@<TRIPOS>MOLECULE
1ET4_rdock.pdb
 750 839 0 0 0
SMALL
GASTEIGER

@<TRIPOS>ATOM
      1  P         40.2060   44.0130   45.9480 P.3   201  G201        0.1280
      2  C5'       39.2380   43.3100   43.5910 C.3   201  G201        0.1795
      3  O5'       38.9750   43.5970   44.9670 O.3   201  G201       -0.3259
      4  C4'       38.2370   42.3070   43.0500 C.3   201  G201        0.1772
      5  O4'       38.3760   41.0100   43.6980 O.3   201  G201       -0.3307
      6  C3'       36.7750   42.6640   43.2580 C.3   201  G201        0.1860
      7  O3'       36.3480   43.6540   42.3290 O.3   201  G201       -0.3112
      8  C2'       36.0900   41.3080   43.0910 C.3   201  G201        0.2309
      9  O2'       35.9360   40.8880   41.7450 O.3   201  G201       -0.2156
     10  C1'       37.0890   40.3940   43.8110 C.3   201  G201        0.2408
     11  N1        33.5030   39.3840   47.2650 N.ar  201  G201       -0.1709
     12  C2        33.4770   39.1620   45.9160 C.ar  201  G201        0.2606
     13  N2        32.3220   38.6500   45.4370 N.pl3 201  G201       -0.0859
     14  N3        34.5030   39.4210   45.0980 N.ar  201  G201       -0.1918
     15  C4        35.5590   39.9240   45.7710 C.ar  201  G201        0.1723
     16  C5        35.6760   40.1680   47.1230 C.ar  201  G201        0.1748
     17  C6        34.5800   39.8940   47.9700 C.ar  201  G201        0.3023
     18  O6        34.4920   40.0640   49.1910 O.2   201  G201       -0.2633
     19  N7        36.9270   40.6880   47.4240 N.ar  201  G201       -0.2173
     20  C8        37.5300   40.7620   46.2700 C.ar  201  G201        0.1817
     21  N9        36.7460   40.3430   45.2240 N.ar  201  G201       -0.2693
     22  OP1       39.8690   43.6030   47.3860 O.3   201  G201       -0.1955
     23  OP2       41.4260   43.2990   45.3580 O.co2 201  G201       -0.7863
     24  P         35.4370   44.8910   42.8420 P.3   202  G202        0.2141
     25  C5'       33.4020   43.5180   41.9730 C.3   202  G202        0.1812
     26  O5'       34.0010   44.2330   43.0490 O.3   202  G202       -0.3114
     27  C4'       32.0850   42.9290   42.4000 C.3   202  G202        0.1773
     28  O4'       32.2940   41.8310   43.3330 O.3   202  G202       -0.3307
     29  C3'       31.1740   43.8780   43.1580 C.3   202  G202        0.1860
     30  O3'       30.5410   44.7880   42.2680 O.3   202  G202       -0.3112
     31  C2'       30.2350   42.9040   43.8550 C.3   202  G202        0.2309
     32  O2'       29.3100   42.3280   42.9510 O.3   202  G202       -0.2156
     33  C1'       31.2240   41.8070   44.2700 C.3   202  G202        0.2408
     34  N1        30.3270   41.5720   49.2180 N.ar  202  G202       -0.1709
     35  C2        29.5310   41.2120   48.1650 C.ar  202  G202        0.2606
     36  N2        28.3170   40.7310   48.4670 N.pl3 202  G202       -0.0859
     37  N3        29.8910   41.3120   46.9100 N.ar  202  G202       -0.1918
     38  C4        31.1320   41.8140   46.7810 C.ar  202  G202        0.1723
     39  C5        32.0120   42.2010   47.7630 C.ar  202  G202        0.1748
     40  C6        31.6130   42.0770   49.1140 C.ar  202  G202        0.3023
     41  O6        32.2490   42.3460   50.1380 O.2   202  G202       -0.2633
     42  N7        33.1970   42.6650   47.2060 N.ar  202  G202       -0.2173
     43  C8        33.0100   42.5520   45.9190 C.ar  202  G202        0.1817
     44  N9        31.7750   42.0470   45.5980 N.ar  202  G202       -0.2693
     45  OP1       35.3030   45.8090   41.6770 O.2   202  G202       -0.5172
     46  OP2       35.9870   45.4110   44.1430 O.co2 202  G202       -0.4373
     47  P         30.0300   46.2190   42.8140 P.3   203  A203        0.2141
     48  C5'       27.6480   45.1230   42.7310 C.3   203  A203        0.1812
     49  O5'       28.6210   45.8510   43.4800 O.3   203  A203       -0.3114
     50  C4'       26.4580   44.7770   43.5980 C.3   203  A203        0.1773
     51  O4'       26.7780   43.7010   44.5200 O.3   203  A203       -0.3307
     52  C3'       25.9520   45.9000   44.4860 C.3   203  A203        0.1860
     53  O3'       25.1270   46.7890   43.7500 O.3   203  A203       -0.3112
     54  C2'       25.1840   45.1370   45.5560 C.3   203  A203        0.2309
     55  O2'       23.9140   44.7300   45.0810 O.3   203  A203       -0.2156
     56  C1'       26.0810   43.9040   45.7480 C.3   203  A203        0.2408
     57  N1        27.0060   43.5050   50.7930 N.ar  203  A203       -0.2040
     58  C2        25.9340   43.2070   50.0450 C.ar  203  A203        0.2016
     59  N3        25.7660   43.3170   48.7240 N.ar  203  A203       -0.2048
     60  C4        26.8780   43.8060   48.1490 C.ar  203  A203        0.1692
     61  C5        28.0590   44.1570   48.7820 C.ar  203  A203        0.1518
     62  C6        28.1100   43.9900   50.1770 C.ar  203  A203        0.1919
     63  N6        29.1850   44.2870   50.9210 N.pl3 203  A203       -0.1054
     64  N7        28.9880   44.6260   47.8640 N.ar  203  A203       -0.2193
     65  C8        28.3590   44.5500   46.7160 C.ar  203  A203        0.1816
     66  N9        27.0710   44.0740   46.8170 N.ar  203  A203       -0.2693
     67  OP1       29.8000   47.0240   41.5810 O.2   203  A203       -0.5172
     68  OP2       30.9420   46.7490   43.8770 O.co2 203  A203       -0.4373
     69  P         24.8490   48.2690   44.3090 P.3   204  A204        0.2141
     70  C5'       22.7840   47.4400   45.7320 C.3   204  A204        0.1812
     71  O5'       24.0940   48.0230   45.6970 O.3   204  A204       -0.3114
     72  C4'       22.3410   47.1860   47.1640 C.3   204  A204        0.1773
     73  O4'       23.1810   46.1710   47.7810 O.3   204  A204       -0.3307
     74  C3'       22.4620   48.3610   48.1200 C.3   204  A204        0.1860
     75  O3'       21.4230   49.3230   47.9630 O.3   204  A204       -0.3112
     76  C2'       22.4520   47.6660   49.4810 C.3   204  A204        0.2309
     77  O2'       21.1790   47.2200   49.9080 O.3   204  A204       -0.2156
     78  C1'       23.3060   46.4370   49.1800 C.3   204  A204        0.2408
     79  N1        26.9940   46.5410   52.7810 N.ar  204  A204       -0.2040
     80  C2        25.7240   46.1340   52.8260 C.ar  204  A204        0.2016
     81  N3        24.8140   46.1000   51.8490 N.ar  204  A204       -0.2048
     82  C4        25.3380   46.5630   50.6990 C.ar  204  A204        0.1692
     83  C5        26.6280   47.0090   50.5030 C.ar  204  A204        0.1518
     84  C6        27.4820   46.9910   51.5950 C.ar  204  A204        0.1919
     85  N6        28.7570   47.4000   51.5140 N.pl3 204  A204       -0.1054
     86  N7        26.8180   47.4060   49.1900 N.ar  204  A204       -0.2193
     87  C8        25.6540   47.1990   48.6270 C.ar  204  A204        0.1816
     88  N9        24.7060   46.7090   49.4840 N.ar  204  A204       -0.2693
     89  OP1       23.9180   48.9150   43.3440 O.2   204  A204       -0.5172
     90  OP2       26.1370   48.9320   44.6240 O.co2 204  A204       -0.4373
     91  P         21.3990   50.6260   48.9270 P.3   205  C205        0.2141
     92  C5'       21.4360   50.8630   51.5020 C.3   205  C205        0.1812
     93  O5'       21.4330   50.0230   50.3940 O.3   205  C205       -0.3114
     94  C4'       21.3320   50.0390   52.7410 C.3   205  C205        0.1773
     95  O4'       22.3820   49.0400   52.7410 O.3   205  C205       -0.3307
     96  C3'       21.5610   50.8340   54.0060 C.3   205  C205        0.1860
     97  O3'       20.3710   51.5370   54.3420 O.3   205  C205       -0.3112
     98  C2'       22.0340   49.7660   54.9790 C.3   205  C205        0.2309
     99  O2'       20.9550   48.9980   55.4700 O.3   205  C205       -0.2156
    100  C1'       22.9080   48.9010   54.0570 C.3   205  C205        0.2420
    101  N1        24.3410   49.2820   54.0170 N.ar  205  C205       -0.2535
    102  C2        25.1080   49.1590   55.1720 C.ar  205  C205        0.3532
    103  O2        24.5620   48.7630   56.2100 O.2   205  C205       -0.2443
    104  N3        26.4290   49.4710   55.1300 N.ar  205  C205       -0.1739
    105  C4        26.9780   49.8910   53.9890 C.ar  205  C205        0.1759
    106  N4        28.2860   50.1710   53.9820 N.pl3 205  C205       -0.1070
    107  C5        26.2130   50.0420   52.8030 C.ar  205  C205        0.0566
    108  C6        24.9110   49.7320   52.8620 C.ar  205  C205        0.0850
    109  OP1       20.0620   51.2600   48.7300 O.2   205  C205       -0.5172
    110  OP2       22.6420   51.4440   48.7470 O.co2 205  C205       -0.4373
    111  P         20.4470   53.1210   54.6110 P.3   206  C206        0.2141
    112  C5'       20.5120   52.3380   57.0770 C.3   206  C206        0.1812
    113  O5'       21.1070   53.1320   56.0580 O.3   206  C206       -0.3114
    114  C4'       21.2950   52.4410   58.3470 C.3   206  C206        0.1773
    115  O4'       22.4750   51.6120   58.2660 O.3   206  C206       -0.3307
    116  C3'       21.8350   53.8240   58.6470 C.3   206  C206        0.1860
    117  O3'       20.8440   54.6630   59.2130 O.3   206  C206       -0.3112
    118  C2'       22.9660   53.5080   59.6080 C.3   206  C206        0.2309
    119  O2'       22.4620   53.2050   60.8960 O.3   206  C206       -0.2156
    120  C1'       23.5440   52.2390   58.9700 C.3   206  C206        0.2420
    121  N1        24.6560   52.4750   58.0180 N.ar  206  C206       -0.2535
    122  C2        25.9670   52.5910   58.5130 C.ar  206  C206        0.3532
    123  O2        26.1620   52.5030   59.7310 O.2   206  C206       -0.2443
    124  N3        26.9870   52.7900   57.6530 N.ar  206  C206       -0.1739
    125  C4        26.7470   52.8700   56.3480 C.ar  206  C206        0.1759
    126  N4        27.7890   53.0670   55.5430 N.pl3 206  C206       -0.1070
    127  C5        25.4290   52.7540   55.8110 C.ar  206  C206        0.0566
    128  C6        24.4220   52.5640   56.6750 C.ar  206  C206        0.0850
    129  OP1       19.0560   53.6290   54.7480 O.3   206  C206       -0.4373
    130  OP2       21.3430   53.6920   53.5490 O.co2 206  C206       -0.5172
    131  P         20.8950   56.2480   58.9410 P.3   207  G207        0.2141
    132  C5'       22.1840   56.4900   61.2200 C.3   207  G207        0.1812
    133  O5'       22.1510   56.7170   59.8070 O.3   207  G207       -0.3114
    134  C4'       23.5590   56.7970   61.7880 C.3   207  G207        0.1773
    135  O4'       24.5290   55.7870   61.3860 O.3   207  G207       -0.3307
    136  C3'       24.1910   58.0990   61.3280 C.3   207  G207        0.1860
    137  O3'       23.6650   59.2160   62.0250 O.3   207  G207       -0.3112
    138  C2'       25.6570   57.8600   61.6490 C.3   207  G207        0.2309
    139  O2'       25.9000   57.9440   63.0370 O.3   207  G207       -0.2156
    140  C1'       25.8110   56.3970   61.2230 C.3   207  G207        0.2408
    141  N1        29.6630   56.8450   57.9450 N.ar  207  G207       -0.1709
    142  C2        29.6410   57.0470   59.3070 C.ar  207  G207        0.2606
    143  N2        30.8000   57.4200   59.8780 N.pl3 207  G207       -0.0859
    144  N3        28.5640   56.8970   60.0570 N.ar  207  G207       -0.1918
    145  C4        27.4880   56.5260   59.3260 C.ar  207  G207        0.1723
    146  C5        27.4000   56.3140   57.9630 C.ar  207  G207        0.1748
    147  C6        28.5710   56.4750   57.1700 C.ar  207  G207        0.3023
    148  O6        28.7040   56.3310   55.9480 O.2   207  G207       -0.2633
    149  N7        26.1040   55.9580   57.6010 N.ar  207  G207       -0.2173
    150  C8        25.4430   55.9470   58.7320 C.ar  207  G207        0.1817
    151  N9        26.2220   56.2860   59.8190 N.ar  207  G207       -0.2693
    152  OP1       19.6660   56.8500   59.5410 O.3   207  G207       -0.4373
    153  OP2       21.1730   56.4440   57.4920 O.co2 207  G207       -0.5172
    154  P         23.3900   60.5950   61.2310 P.3   208  G208        0.2141
    155  C5'       25.7820   61.3890   61.9800 C.3   208  G208        0.1812
    156  O5'       24.8580   61.1620   60.9160 O.3   208  G208       -0.3114
    157  C4'       27.2000   61.4820   61.4590 C.3   208  G208        0.1773
    158  O4'       27.6320   60.2390   60.8340 O.3   208  G208       -0.3307
    159  C3'       27.4760   62.5020   60.3710 C.3   208  G208        0.1860
    160  O3'       27.5000   63.8220   60.8640 O.3   208  G208       -0.3112
    161  C2'       28.8560   62.0530   59.9060 C.3   208  G208        0.2309
    162  O2'       29.8450   62.3450   60.8830 O.3   208  G208       -0.2156
    163  C1'       28.6600   60.5340   59.8790 C.3   208  G208        0.2408
    164  N1        30.1550   59.6580   55.0890 N.ar  208  G208       -0.1709
    165  C2        30.8770   60.1100   56.1710 C.ar  208  G208        0.2606
    166  N2        32.1650   60.3950   55.9500 N.pl3 208  G208       -0.0859
    167  N3        30.3760   60.2730   57.3770 N.ar  208  G208       -0.1918
    168  C4        29.0640   59.9640   57.4310 C.ar  208  G208        0.1723
    169  C5        28.2440   59.5010   56.4190 C.ar  208  G208        0.1748
    170  C6        28.8060   59.3090   55.1100 C.ar  208  G208        0.3023
    171  O6        28.2540   58.8930   54.0650 O.2   208  G208       -0.2633
    172  N7        26.9490   59.2940   56.8890 N.ar  208  G208       -0.2173
    173  C8        27.0010   59.6340   58.1530 C.ar  208  G208        0.1817
    174  N9        28.2530   60.0600   58.5510 N.ar  208  G208       -0.2693
    175  OP1       22.7310   61.4760   62.2430 O.3   208  G208       -0.4373
    176  OP2       22.7300   60.3460   59.9090 O.co2 208  G208       -0.5172
    177  P         27.2140   65.0560   59.8560 P.3   209  U209        0.2141
    178  C5'       29.7670   65.4570   59.5680 C.3   209  U209        0.1812
    179  O5'       28.5260   65.1520   58.9570 O.3   209  U209       -0.3114
    180  C4'       30.8520   65.5090   58.5310 C.3   209  U209        0.1773
    181  O4'       31.1270   64.1780   58.0090 O.3   209  U209       -0.3307
    182  C3'       30.5350   66.3270   57.2910 C.3   209  U209        0.1860
    183  O3'       30.6650   67.7230   57.5380 O.3   209  U209       -0.3112
    184  C2'       31.5650   65.7920   56.3050 C.3   209  U209        0.2309
    185  O2'       32.8630   66.2970   56.5520 O.3   209  U209       -0.2156
    186  C1'       31.5490   64.2940   56.6530 C.3   209  U209        0.2420
    187  N1        30.5860   63.5990   55.7880 N.ar  209  U209       -0.2534
    188  C2        31.0390   63.2050   54.5640 C.ar  209  U209        0.3546
    189  O2        32.2220   63.3220   54.2400 O.2   209  U209       -0.2443
    190  N3        30.0770   62.6750   53.7290 N.ar  209  U209       -0.1530
    191  C4        28.7380   62.4870   54.0090 C.ar  209  U209        0.2846
    192  O4        27.9810   62.0420   53.1330 O.2   209  U209       -0.2650
    193  C5        28.3560   62.8760   55.3300 C.ar  209  U209        0.0814
    194  C6        29.2750   63.3990   56.1570 C.ar  209  U209        0.0870
    195  OP1       27.1530   66.2990   60.6760 O.3   209  U209       -0.4373
    196  OP2       26.0660   64.7000   58.9750 O.co2 209  U209       -0.5172
    197  P         29.6990   68.7560   56.7730 P.3   210  G210        0.2141
    198  C5'       31.6540   69.4380   55.1550 C.3   210  G210        0.1812
    199  O5'       30.3440   68.9170   55.3240 O.3   210  G210       -0.3114
    200  C4'       31.7440   70.1950   53.8480 C.3   210  G210        0.1773
    201  O4'       31.7220   69.2950   52.7140 O.3   210  G210       -0.3307
    202  C3'       30.5820   71.1180   53.5380 C.3   210  G210        0.1860
    203  O3'       30.6600   72.3170   54.2860 O.3   210  G210       -0.3112
    204  C2'       30.8110   71.4010   52.0660 C.3   210  G210        0.2309
    205  O2'       31.8110   72.3780   51.9260 O.3   210  G210       -0.2156
    206  C1'       31.3410   70.0430   51.5690 C.3   210  G210        0.2408
    207  N1        30.2460   67.7200   47.1920 N.ar  210  G210       -0.1709
    208  C2        31.4400   68.2420   47.6270 C.ar  210  G210        0.2606
    209  N2        32.4630   68.1720   46.7630 N.pl3 210  G210       -0.0859
    210  N3        31.6180   68.7880   48.8160 N.ar  210  G210       -0.1918
    211  C4        30.4910   68.7690   49.5540 C.ar  210  G210        0.1723
    212  C5        29.2530   68.2610   49.2200 C.ar  210  G210        0.1748
    213  C6        29.0770   67.6790   47.9350 C.ar  210  G210        0.3023
    214  O6        28.0550   67.1730   47.4560 O.2   210  G210       -0.2633
    215  N7        28.3510   68.4210   50.2680 N.ar  210  G210       -0.2173
    216  C8        29.0410   69.0260   51.1910 C.ar  210  G210        0.1817
    217  N9        30.3390   69.2940   50.8120 N.ar  210  G210       -0.2693
    218  OP1       29.8340   70.0490   57.4800 O.3   210  G210       -0.4373
    219  OP2       28.3430   68.1500   56.5920 O.co2 210  G210       -0.5172
    220  P         29.3120   73.1040   54.6740 P.3   211  C211        0.2141
    221  C5'       28.7420   74.9520   52.9060 C.3   211  C211        0.1812
    222  O5'       28.7170   73.5740   53.2730 O.3   211  C211       -0.3114
    223  C4'       29.6160   75.1980   51.6830 C.3   211  C211        0.1773
    224  O4'       29.0680   74.5480   50.5270 O.3   211  C211       -0.3307
    225  C3'       29.6740   76.6680   51.2960 C.3   211  C211        0.1860
    226  O3'       30.7590   77.3000   51.9590 O.3   211  C211       -0.3112
    227  C2'       29.7200   76.6730   49.7600 C.3   211  C211        0.2309
    228  O2'       30.9250   77.2160   49.2760 O.3   211  C211       -0.2156
    229  C1'       29.5660   75.1970   49.3830 C.3   211  C211        0.2420
    230  N1        28.6370   74.9180   48.2710 N.ar  211  C211       -0.2535
    231  C2        29.1530   74.5430   47.0170 C.ar  211  C211        0.3532
    232  O2        30.3910   74.5650   46.8360 O.2   211  C211       -0.2443
    233  N3        28.2900   74.1760   46.0340 N.ar  211  C211       -0.1739
    234  C4        26.9670   74.1980   46.2590 C.ar  211  C211        0.1759
    235  N4        26.1450   73.7950   45.2690 N.pl3 211  C211       -0.1070
    236  C5        26.4230   74.6270   47.5060 C.ar  211  C211        0.0566
    237  C6        27.2850   74.9770   48.4700 C.ar  211  C211        0.0850
    238  OP1       29.8130   74.2960   55.4170 O.3   211  C211       -0.4373
    239  OP2       28.3700   72.1530   55.3330 O.co2 211  C211       -0.5172
    240  P         30.5140   77.9470   53.4240 P.3   212  G212        0.2141
    241  C5'       30.6650   80.4160   54.3440 C.3   212  G212        0.1812
    242  O5'       30.8900   79.4930   53.2590 O.3   212  G212       -0.3114
    243  C4'       30.5240   81.8060   53.8080 C.3   212  G212        0.1773
    244  O4'       31.7470   82.0870   53.0870 O.3   212  G212       -0.3307
    245  C3'       29.3920   81.9690   52.8060 C.3   212  G212        0.1860
    246  O3'       28.4980   80.9060   52.5900 O.3   212  G212       -0.3112
    247  C2'       29.9520   82.9020   51.7420 C.3   212  G212        0.2309
    248  O2'       29.6860   84.2150   52.1600 O.3   212  G212       -0.2156
    249  C1'       31.4650   82.6720   51.8450 C.3   212  G212        0.2408
    250  N1        33.3620   82.3360   47.0980 N.ar  212  G212       -0.1709
    251  C2        32.6850   83.3780   47.6810 C.ar  212  G212        0.2606
    252  N2        32.5040   84.4530   46.9060 N.pl3 212  G212       -0.0859
    253  N3        32.2220   83.3660   48.9200 N.ar  212  G212       -0.1918
    254  C4        32.4940   82.2000   49.5490 C.ar  212  G212        0.1723
    255  C5        33.1640   81.1070   49.0610 C.ar  212  G212        0.1748
    256  C6        33.6510   81.1340   47.7260 C.ar  212  G212        0.3023
    257  O6        34.2630   80.2490   47.1180 O.2   212  G212       -0.2633
    258  N7        33.2500   80.1090   50.0240 N.ar  212  G212       -0.2173
    259  C8        32.6300   80.5960   51.0570 C.ar  212  G212        0.1817
    260  N9        32.1520   81.8630   50.8490 N.ar  212  G212       -0.2693
    261  OP1       31.5260   77.2780   54.3000 O.3   212  G212       -0.4373
    262  OP2       29.0340   77.9330   53.8260 O.co2 212  G212       -0.5172
    263  P         26.9840   81.1900   52.1170 P.3   213  C213        0.2141
    264  C5'       26.5770   83.4060   50.7760 C.3   213  C213        0.1812
    265  O5'       27.1030   82.1040   50.8210 O.3   213  C213       -0.3114
    266  C4'       26.7360   83.9620   49.3860 C.3   213  C213        0.1773
    267  O4'       28.1260   83.9270   48.9750 O.3   213  C213       -0.3307
    268  C3'       26.0190   83.1860   48.2960 C.3   213  C213        0.1860
    269  O3'       24.6840   83.6210   48.3100 O.3   213  C213       -0.3112
    270  C2'       26.7750   83.6120   47.0390 C.3   213  C213        0.2309
    271  O2'       26.4340   84.9140   46.6360 O.3   213  C213       -0.2156
    272  C1'       28.2060   83.6970   47.5680 C.3   213  C213        0.2420
    273  N1        29.0060   82.4800   47.3380 N.ar  213  C213       -0.2535
    274  C2        29.6160   82.3090   46.1050 C.ar  213  C213        0.3532
    275  O2        29.4680   83.1780   45.2410 O.2   213  C213       -0.2443
    276  N3        30.3510   81.2100   45.8760 N.ar  213  C213       -0.1739
    277  C4        30.4810   80.2890   46.8250 C.ar  213  C213        0.1759
    278  N4        31.2040   79.2090   46.5380 N.pl3 213  C213       -0.1070
    279  C5        29.8740   80.4320   48.1040 C.ar  213  C213        0.0566
    280  C6        29.1490   81.5380   48.3150 C.ar  213  C213        0.0850
    281  OP1       26.2260   81.8370   53.1900 O.3   213  C213       -0.4373
    282  OP2       26.5840   79.8450   51.6470 O.co2 213  C213       -0.5172
    283  P         23.5270   82.6470   47.8290 P.3   214  A214        0.2141
    284  C5'       22.9530   80.1850   48.4710 C.3   214  A214        0.1812
    285  O5'       23.9210   81.2270   48.4340 O.3   214  A214       -0.3114
    286  C4'       23.6230   78.8350   48.4450 C.3   214  A214        0.1773
    287  O4'       24.3520   78.6650   47.1970 O.3   214  A214       -0.3307
    288  C3'       24.6340   78.5820   49.5530 C.3   214  A214        0.1860
    289  O3'       24.5820   77.1860   49.7350 O.3   214  A214       -0.3112
    290  C2'       25.9580   78.9690   48.8880 C.3   214  A214        0.2309
    291  O2'       27.0170   78.2700   49.5140 O.3   214  A214       -0.2156
    292  C1'       25.7260   78.4450   47.4660 C.3   214  A214        0.2408
    293  N1        29.5220   78.0090   43.9750 N.ar  214  A214       -0.2040
    294  C2        29.2150   77.2660   45.0260 C.ar  214  A214        0.2016
    295  N3        28.2630   77.4460   45.9350 N.ar  214  A214       -0.2048
    296  C4        27.5660   78.5670   45.6840 C.ar  214  A214        0.1692
    297  C5        27.7830   79.4420   44.6400 C.ar  214  A214        0.1518
    298  C6        28.8080   79.1170   43.7360 C.ar  214  A214        0.1919
    299  N6        29.0900   79.8330   42.6530 N.pl3 214  A214       -0.1054
    300  N7        26.8790   80.4960   44.6880 N.ar  214  A214       -0.2193
    301  C8        26.1340   80.2210   45.7380 C.ar  214  A214        0.1816
    302  N9        26.4700   79.0560   46.3650 N.ar  214  A214       -0.2693
    303  OP1       23.5660   82.5800   46.3320 O.2   214  A214       -0.5172
    304  OP2       22.2860   83.1020   48.5180 O.co2 214  A214       -0.4373
    305  P         24.5730   76.5550   51.2040 P.3   215  U215        0.2141
    306  C5'       23.4990   74.3770   50.1710 C.3   215  U215        0.1812
    307  O5'       24.5770   74.9820   50.9070 O.3   215  U215       -0.3114
    308  C4'       23.5680   72.8600   50.2690 C.3   215  U215        0.1773
    309  O4'       24.4600   72.3510   49.2370 O.3   215  U215       -0.3307
    310  C3'       24.1160   72.3270   51.5900 C.3   215  U215        0.1860
    311  O3'       23.5540   71.0550   51.8850 O.3   215  U215       -0.3112
    312  C2'       25.5790   72.0510   51.2410 C.3   215  U215        0.2309
    313  O2'       26.1650   71.0650   52.0640 O.3   215  U215       -0.2156
    314  C1'       25.4020   71.4870   49.8390 C.3   215  U215        0.2420
    315  N1        26.5910   71.3780   48.9770 N.ar  215  U215       -0.2534
    316  C2        26.4290   70.7010   47.7660 C.ar  215  U215        0.3546
    317  O2        25.3460   70.2200   47.4140 O.2   215  U215       -0.2443
    318  N3        27.5520   70.6060   46.9930 N.ar  215  U215       -0.1530
    319  C4        28.7950   71.1070   47.2780 C.ar  215  U215        0.2846
    320  O4        29.7120   70.9550   46.4480 O.2   215  U215       -0.2650
    321  C5        28.8910   71.8050   48.5520 C.ar  215  U215        0.0814
    322  C6        27.8100   71.9090   49.3340 C.ar  215  U215        0.0870
    323  OP1       23.2840   76.8510   51.8610 O.3   215  U215       -0.4373
    324  OP2       25.8530   76.9460   51.8580 O.co2 215  U215       -0.5172
    325  P         21.9690   70.8930   52.0660 P.3   216  A216        0.2141
    326  C5'       21.8230   69.1080   50.1060 C.3   216  A216        0.1812
    327  O5'       21.4740   70.3970   50.6240 O.3   216  A216       -0.3114
    328  C4'       20.6130   68.4540   49.4700 C.3   216  A216        0.1773
    329  O4'       20.0900   69.2960   48.4000 O.3   216  A216       -0.3307
    330  C3'       20.8720   67.1080   48.8070 C.3   216  A216        0.1860
    331  O3'       20.8110   66.0570   49.7540 O.3   216  A216       -0.3112
    332  C2'       19.7830   67.0550   47.7360 C.3   216  A216        0.2309
    333  O2'       18.4960   66.7460   48.2610 O.3   216  A216       -0.2156
    334  C1'       19.7960   68.5050   47.2540 C.3   216  A216        0.2408
    335  N1        21.6840   67.4450   42.5710 N.ar  216  A216       -0.2040
    336  C2        20.5970   66.9900   43.2280 C.ar  216  A216        0.2016
    337  N3        20.1570   67.3040   44.4460 N.ar  216  A216       -0.2048
    338  C4        20.9680   68.2130   45.0180 C.ar  216  A216        0.1692
    339  C5        22.1090   68.7800   44.4610 C.ar  216  A216        0.1518
    340  C6        22.4700   68.3580   43.1750 C.ar  216  A216        0.1919
    341  N6        23.5400   68.8110   42.5270 N.pl3 216  A216       -0.1054
    342  N7        22.6860   69.6950   45.3350 N.ar  216  A216       -0.2193
    343  C8        21.9000   69.6480   46.3910 C.ar  216  A216        0.1816
    344  N9        20.8420   68.7720   46.2640 N.ar  216  A216       -0.2693
    345  OP1       21.2930   72.1920   52.2140 O.2   216  A216       -0.5172
    346  OP2       21.7600   69.8250   53.0730 O.co2 216  A216       -0.4373
    347  P         21.8890   64.8880   49.6840 P.3   217  A217        0.2141
    348  C5'       20.2480   63.6070   48.0680 C.3   217  A217        0.1812
    349  O5'       21.5430   64.1520   48.3070 O.3   217  A217       -0.3114
    350  C4'       20.1780   63.0390   46.6720 C.3   217  A217        0.1773
    351  O4'       20.2650   64.1180   45.7010 O.3   217  A217       -0.3307
    352  C3'       21.3010   62.0930   46.2790 C.3   217  A217        0.1860
    353  O3'       20.9980   60.7690   46.6730 O.3   217  A217       -0.3112
    354  C2'       21.2590   62.1830   44.7630 C.3   217  A217        0.2309
    355  O2'       20.1380   61.4850   44.2140 O.3   217  A217       -0.2156
    356  C1'       20.9960   63.6790   44.5640 C.3   217  A217        0.2408
    357  N1        25.0690   65.0570   41.7510 N.ar  217  A217       -0.2040
    358  C2        24.0680   64.1970   41.5250 C.ar  217  A217        0.2016
    359  N3        23.0540   63.8630   42.3050 N.ar  217  A217       -0.2048
    360  C4        23.1150   64.5300   43.4660 C.ar  217  A217        0.1692
    361  C5        24.0760   65.4500   43.8500 C.ar  217  A217        0.1518
    362  C6        25.1070   65.7180   42.9310 C.ar  217  A217        0.1919
    363  N6        26.1150   66.5880   43.1460 N.pl3 217  A217       -0.1054
    364  N7        23.8050   65.9380   45.1140 N.ar  217  A217       -0.2193
    365  C8        22.7040   65.3140   45.4630 C.ar  217  A217        0.1816
    366  N9        22.2240   64.4650   44.5030 N.ar  217  A217       -0.2693
    367  OP1       21.6260   63.9180   50.7830 O.3   217  A217       -0.4373
    368  OP2       23.2380   65.5620   49.5550 O.co2 217  A217       -0.5172
    369  P         22.1610   59.8040   47.2330 P.3   218  C218        0.2141
    370  C5'       22.5820   58.7750   44.8420 C.3   218  C218        0.1812
    371  O5'       23.0790   59.5220   45.9540 O.3   218  C218       -0.3114
    372  C4'       23.4760   58.9610   43.6300 C.3   218  C218        0.1773
    373  O4'       23.5220   60.3680   43.2590 O.3   218  C218       -0.3307
    374  C3'       24.9380   58.5840   43.8240 C.3   218  C218        0.1860
    375  O3'       25.1100   57.1880   43.6960 O.3   218  C218       -0.3112
    376  C2'       25.6260   59.3840   42.7220 C.3   218  C218        0.2309
    377  O2'       25.4550   58.8530   41.4230 O.3   218  C218       -0.2156
    378  C1'       24.8200   60.6850   42.7520 C.3   218  C218        0.2420
    379  N1        25.4400   61.7020   43.6160 N.ar  218  C218       -0.2535
    380  C2        26.5410   62.4270   43.1300 C.ar  218  C218        0.3532
    381  O2        26.9790   62.1890   41.9880 O.2   218  C218       -0.2443
    382  N3        27.1170   63.3540   43.9130 N.ar  218  C218       -0.1739
    383  C4        26.6580   63.5660   45.1410 C.ar  218  C218        0.1759
    384  N4        27.2940   64.4660   45.8880 N.pl3 218  C218       -0.1070
    385  C5        25.5340   62.8600   45.6610 C.ar  218  C218        0.0566
    386  C6        24.9590   61.9420   44.8710 C.ar  218  C218        0.0850
    387  OP1       21.4660   58.5590   47.6380 O.2   218  C218       -0.5172
    388  OP2       22.9670   60.5540   48.2420 O.co2 218  C218       -0.4373
    389  P         26.1450   56.4150   44.6470 P.3   219  C219        0.2141
    390  C5'       28.0240   56.8730   42.8900 C.3   219  C219        0.1812
    391  O5'       27.5380   57.0410   44.2180 O.3   219  C219       -0.3114
    392  C4'       29.2680   57.6930   42.6880 C.3   219  C219        0.1773
    393  O4'       28.9180   59.0930   42.7210 O.3   219  C219       -0.3307
    394  C3'       30.3460   57.5530   43.7520 C.3   219  C219        0.1860
    395  O3'       31.1880   56.4250   43.5110 O.3   219  C219       -0.3112
    396  C2'       31.1060   58.8600   43.5880 C.3   219  C219        0.2309
    397  O2'       31.9710   58.8330   42.4710 O.3   219  C219       -0.2156
    398  C1'       29.9530   59.8310   43.3300 C.3   219  C219        0.2420
    399  N1        29.4120   60.3740   44.5800 N.ar  219  C219       -0.2535
    400  C2        30.0840   61.4200   45.1980 C.ar  219  C219        0.3532
    401  O2        31.0810   61.8830   44.6390 O.2   219  C219       -0.2443
    402  N3        29.6240   61.9000   46.3810 N.ar  219  C219       -0.1739
    403  C4        28.5200   61.3770   46.9290 C.ar  219  C219        0.1759
    404  N4        28.0890   61.8790   48.0900 N.pl3 219  C219       -0.1070
    405  C5        27.8040   60.3150   46.3040 C.ar  219  C219        0.0566
    406  C6        28.2810   59.8490   45.1390 C.ar  219  C219        0.0850
    407  OP1       26.1490   55.0020   44.2610 O.2   219  C219       -0.5172
    408  OP2       25.8260   56.7730   46.0500 O.co2 219  C219       -0.4373
    409  P         31.7100   55.5430   44.7420 P.3   220  A220        0.2141
    410  C5'       33.7810   57.1150   44.6820 C.3   220  A220        0.1812
    411  O5'       32.7600   56.5040   45.4510 O.3   220  A220       -0.3114
    412  C4'       34.4190   58.2260   45.4670 C.3   220  A220        0.1773
    413  O4'       33.4970   59.3420   45.6180 O.3   220  A220       -0.3307
    414  C3'       34.8050   57.8740   46.8960 C.3   220  A220        0.1860
    415  O3'       36.0030   57.1060   46.9370 O.3   220  A220       -0.3112
    416  C2'       34.9210   59.2600   47.5270 C.3   220  A220        0.2309
    417  O2'       36.0880   59.9040   47.0710 O.3   220  A220       -0.2156
    418  C1'       33.7280   59.9730   46.8770 C.3   220  A220        0.2408
    419  N1        31.1090   61.7370   50.9690 N.ar  220  A220       -0.2040
    420  C2        32.2970   62.0880   50.4320 C.ar  220  A220        0.2016
    421  N3        32.9170   61.6020   49.3540 N.ar  220  A220       -0.2048
    422  C4        32.1820   60.6240   48.7870 C.ar  220  A220        0.1692
    423  C5        30.9470   60.1560   49.2160 C.ar  220  A220        0.1518
    424  C6        30.3950   60.7550   50.3730 C.ar  220  A220        0.1919
    425  N6        29.2060   60.3980   50.9070 N.pl3 220  A220       -0.1054
    426  N7        30.4880   59.1440   48.3860 N.ar  220  A220       -0.2193
    427  C8        31.4430   59.0170   47.4890 C.ar  220  A220        0.1816
    428  N9        32.5030   59.8740   47.6770 N.ar  220  A220       -0.2693
    429  OP1       32.4840   54.3920   44.1860 O.2   220  A220       -0.5172
    430  OP2       30.6010   55.2910   45.6870 O.co2 220  A220       -0.4373
    431  P         36.3060   56.1580   48.2070 P.3   221  C221        0.2141
    432  C5'       37.4930   58.0870   49.5620 C.3   221  C221        0.1812
    433  O5'       36.4050   57.1640   49.4490 O.3   221  C221       -0.3114
    434  C4'       37.2430   59.0550   50.7010 C.3   221  C221        0.1773
    435  O4'       35.9640   59.7190   50.4980 O.3   221  C221       -0.3307
    436  C3'       37.1150   58.4370   52.0850 C.3   221  C221        0.1860
    437  O3'       38.3960   58.1970   52.6600 O.3   221  C221       -0.3112
    438  C2'       36.3330   59.5090   52.8320 C.3   221  C221        0.2309
    439  O2'       37.1470   60.6140   53.1880 O.3   221  C221       -0.2156
    440  C1'       35.3600   59.9750   51.7470 C.3   221  C221        0.2420
    441  N1        34.0730   59.2680   51.7930 N.ar  221  C221       -0.2535
    442  C2        33.1660   59.6240   52.7940 C.ar  221  C221        0.3532
    443  O2        33.4870   60.5130   53.5870 O.2   221  C221       -0.2443
    444  N3        31.9750   58.9910   52.8770 N.ar  221  C221       -0.1739
    445  C4        31.6800   58.0210   52.0060 C.ar  221  C221        0.1759
    446  N4        30.4960   57.4130   52.1340 N.pl3 221  C221       -0.1070
    447  C5        32.5870   57.6350   50.9660 C.ar  221  C221        0.0566
    448  C6        33.7610   58.2830   50.8960 C.ar  221  C221        0.0850
    449  OP1       37.6690   55.5950   48.0010 O.2   221  C221       -0.5172
    450  OP2       35.1770   55.2580   48.5510 O.co2 221  C221       -0.4373
    451  P         38.5870   57.0080   53.7340 P.3   222  C222        0.2141
    452  C5'       38.3640   58.8720   55.5630 C.3   222  C222        0.1812
    453  O5'       38.0010   57.5960   55.0900 O.3   222  C222       -0.3114
    454  C4'       37.6710   59.1340   56.8700 C.3   222  C222        0.1773
    455  O4'       36.2370   59.1270   56.6270 O.3   222  C222       -0.3307
    456  C3'       37.9090   58.0930   57.9610 C.3   222  C222        0.1860
    457  O3'       37.8720   58.7380   59.2410 O.3   222  C222       -0.3112
    458  C2'       36.7050   57.1720   57.8020 C.3   222  C222        0.2309
    459  O2'       36.3470   56.4180   58.9470 O.3   222  C222       -0.2156
    460  C1'       35.6160   58.1840   57.4750 C.3   222  C222        0.2420
    461  N1        34.4920   57.5770   56.7530 N.ar  222  C222       -0.2535
    462  C2        33.2420   57.5270   57.3750 C.ar  222  C222        0.3532
    463  O2        33.1220   57.9890   58.5220 O.2   222  C222       -0.2443
    464  N3        32.2050   56.9720   56.7230 N.ar  222  C222       -0.1739
    465  C4        32.3790   56.4720   55.4990 C.ar  222  C222        0.1759
    466  N4        31.3160   55.9260   54.8910 N.pl3 222  C222       -0.1070
    467  C5        33.6440   56.5070   54.8420 C.ar  222  C222        0.0566
    468  C6        34.6610   57.0650   55.4980 C.ar  222  C222        0.0850
    469  OP1       40.0340   56.7550   53.8950 O.3   222  C222       -0.4373
    470  OP2       37.6890   55.8860   53.3510 O.co2 222  C222       -0.5172
    471  P         39.2460   58.9870   60.0470 P.3   223  U223        0.2141
    472  C5'       38.7980   61.5580   60.1300 C.3   223  U223        0.1812
    473  O5'       38.9620   60.3380   60.8310 O.3   223  U223       -0.3114
    474  C4'       38.0100   62.5380   60.9650 C.3   223  U223        0.1773
    475  O4'       36.5980   62.2010   60.9260 O.3   223  U223       -0.3307
    476  C3'       38.3880   62.6160   62.4400 C.3   223  U223        0.1860
    477  O3'       38.2580   63.9590   62.8940 O.3   223  U223       -0.3112
    478  C2'       37.3140   61.7670   63.1060 C.3   223  U223        0.2309
    479  O2'       37.0500   62.1990   64.4210 O.3   223  U223       -0.2156
    480  C1'       36.1030   62.0880   62.2430 C.3   223  U223        0.2420
    481  N1        35.0750   61.0350   62.2700 N.ar  223  U223       -0.2534
    482  C2        33.9260   61.2730   63.0170 C.ar  223  U223        0.3546
    483  O2        33.7600   62.3020   63.6610 O.2   223  U223       -0.2443
    484  N3        32.9880   60.2730   62.9820 N.ar  223  U223       -0.1530
    485  C4        33.0830   59.0830   62.3040 C.ar  223  U223        0.2846
    486  O4        32.1420   58.2850   62.3450 O.2   223  U223       -0.2650
    487  C5        34.3130   58.9060   61.5650 C.ar  223  U223        0.0814
    488  C6        35.2390   59.8700   61.5780 C.ar  223  U223        0.0870
    489  OP1       40.3600   59.2430   59.1010 O.2   223  U223       -0.5172
    490  OP2       39.3750   57.8730   61.0170 O.co2 223  U223       -0.4373
    491  P         39.5870   64.8240   63.1970 P.3   224  C224        0.2141
    492  C5'       41.8040   65.0990   61.8160 C.3   224  C224        0.1812
    493  O5'       40.4600   64.6530   61.8770 O.3   224  C224       -0.3114
    494  C4'       42.0610   65.7210   60.4710 C.3   224  C224        0.1773
    495  O4'       43.4660   66.1090   60.3940 O.3   224  C224       -0.3307
    496  C3'       41.8140   64.7960   59.2800 C.3   224  C224        0.1860
    497  O3'       41.3540   65.5610   58.1700 O.3   224  C224       -0.3112
    498  C2'       43.2150   64.2600   58.9860 C.3   224  C224        0.2309
    499  O2'       43.3740   63.8710   57.6390 O.3   224  C224       -0.2156
    500  C1'       44.0590   65.4980   59.2670 C.3   224  C224        0.2420
    501  N1        45.4750   65.2580   59.5550 N.ar  224  C224       -0.2535
    502  C2        46.4410   65.9560   58.8110 C.ar  224  C224        0.3532
    503  O2        46.0750   66.7090   57.8940 O.2   224  C224       -0.2443
    504  N3        47.7470   65.7870   59.1030 N.ar  224  C224       -0.1739
    505  C4        48.1120   64.9430   60.0760 C.ar  224  C224        0.1759
    506  N4        49.4180   64.8090   60.3370 N.pl3 224  C224       -0.1070
    507  C5        47.1580   64.1980   60.8250 C.ar  224  C224        0.0566
    508  C6        45.8570   64.3870   60.5350 C.ar  224  C224        0.0850
    509  OP1       40.3440   64.1610   64.3030 O.3   224  C224       -0.4373
    510  OP2       39.1740   66.2490   63.3100 O.co2 224  C224       -0.5172
    511  P         39.7650   65.7380   57.9080 P.3   225  A225        0.2141
    512  C5'       39.5200   63.3780   56.7640 C.3   225  A225        0.1812
    513  O5'       39.2020   64.2490   57.8550 O.3   225  A225       -0.3114
    514  C4'       38.2490   62.9080   56.0820 C.3   225  A225        0.1773
    515  O4'       37.3570   62.3220   57.0680 O.3   225  A225       -0.3307
    516  C3'       37.4340   63.9980   55.4010 C.3   225  A225        0.1860
    517  O3'       37.8950   64.1210   54.0530 O.3   225  A225       -0.3112
    518  C2'       36.0160   63.4220   55.4330 C.3   225  A225        0.2309
    519  O2'       35.7550   62.5010   54.3960 O.3   225  A225       -0.2156
    520  C1'       36.0140   62.6350   56.7450 C.3   225  A225        0.2408
    521  N1        32.4020   62.3770   60.4170 N.ar  225  A225       -0.2040
    522  C2        32.7150   61.5590   59.4020 C.ar  225  A225        0.2016
    523  N3        33.6550   61.6970   58.4680 N.ar  225  A225       -0.2048
    524  C4        34.3410   62.8400   58.6440 C.ar  225  A225        0.1692
    525  C5        34.1360   63.7820   59.6310 C.ar  225  A225        0.1518
    526  C6        33.1030   63.5250   60.5590 C.ar  225  A225        0.1919
    527  N6        32.7790   64.3470   61.5600 N.pl3 225  A225       -0.1054
    528  N7        35.0240   64.8350   59.4920 N.ar  225  A225       -0.2193
    529  C8        35.7470   64.5090   58.4490 C.ar  225  A225        0.1816
    530  N9        35.3960   63.3080   57.8900 N.ar  225  A225       -0.2693
    531  OP1       39.5970   66.3570   56.5570 O.2   225  A225       -0.5172
    532  OP2       39.1880   66.4280   59.1000 O.co2 225  A225       -0.4373
    533  P         38.4380   65.5280   53.4800 P.3   226  G226        0.2141
    534  C5'       37.0870   65.1190   51.2540 C.3   226  G226        0.1812
    535  O5'       38.3410   65.3350   51.9050 O.3   226  G226       -0.3114
    536  C4'       36.8660   66.1860   50.2030 C.3   226  G226        0.1773
    537  O4'       35.5940   65.9330   49.5480 O.3   226  G226       -0.3307
    538  C3'       36.7540   67.5890   50.7820 C.3   226  G226        0.1860
    539  O3'       36.9340   68.6010   49.8060 O.3   226  G226       -0.3112
    540  C2'       35.2730   67.6720   51.1260 C.3   226  G226        0.2309
    541  O2'       34.7910   69.0110   51.1110 O.3   226  G226       -0.2156
    542  C1'       34.6620   66.9080   49.9480 C.3   226  G226        0.2408
    543  N1        30.9860   64.0710   47.9680 N.ar  226  G226       -0.1709
    544  C2        32.2810   64.2350   47.5510 C.ar  226  G226        0.2606
    545  N2        32.6200   63.6410   46.4000 N.pl3 226  G226       -0.0859
    546  N3        33.1840   64.9280   48.2130 N.ar  226  G226       -0.1918
    547  C4        32.6890   65.4500   49.3460 C.ar  226  G226        0.1723
    548  C5        31.4250   65.3280   49.8700 C.ar  226  G226        0.1748
    549  C6        30.4520   64.5820   49.1430 C.ar  226  G226        0.3023
    550  O6        29.2570   64.3570   49.4300 O.2   226  G226       -0.2633
    551  N7        31.3300   65.9930   51.0820 N.ar  226  G226       -0.2173
    552  C8        32.5100   66.5190   51.2480 C.ar  226  G226        0.1817
    553  N9        33.3580   66.2850   50.1930 N.ar  226  G226       -0.2693
    554  OP1       39.8890   65.6720   53.7210 O.2   226  G226       -0.5172
    555  OP2       37.5200   66.6140   53.8950 O.co2 226  G226       -0.4373
    556  P         38.3350   68.8000   49.0410 P.3   227  U227        0.2141
    557  C5'       38.3390   69.1300   46.4590 C.3   227  U227        0.1812
    558  O5'       37.8900   68.4190   47.5650 O.3   227  U227       -0.3114
    559  C4'       37.3340   69.0600   45.3190 C.3   227  U227        0.1773
    560  O4'       35.9560   69.1070   45.8350 O.3   227  U227       -0.3307
    561  C3'       37.4660   70.3080   44.4670 C.3   227  U227        0.1860
    562  O3'       36.9610   70.0890   43.1770 O.3   227  U227       -0.3112
    563  C2'       36.5890   71.2700   45.2330 C.3   227  U227        0.2309
    564  O2'       36.3100   72.4750   44.5740 O.3   227  U227       -0.2156
    565  C1'       35.3850   70.3640   45.4760 C.3   227  U227        0.2420
    566  N1        34.4920   70.8530   46.5360 N.ar  227  U227       -0.2534
    567  C2        33.2370   71.3070   46.1580 C.ar  227  U227        0.3546
    568  O2        32.8270   71.2480   45.0160 O.2   227  U227       -0.2443
    569  N3        32.4800   71.8380   47.1570 N.ar  227  U227       -0.1530
    570  C4        32.8260   71.9550   48.4740 C.ar  227  U227        0.2846
    571  O4        32.0250   72.4750   49.2620 O.2   227  U227       -0.2650
    572  C5        34.1210   71.4350   48.8000 C.ar  227  U227        0.0814
    573  C6        34.8850   70.9060   47.8410 C.ar  227  U227        0.0870
    574  OP1       39.3470   67.8040   49.4550 O.3   227  U227       -0.4373
    575  OP2       38.6330   70.2230   49.1250 O.co2 227  U227       -0.5172
    576  P         37.8170   69.2310   42.1260 P.3   228  G228        0.2141
    577  C5'       37.5910   66.6940   41.4970 C.3   228  G228        0.1812
    578  O5'       37.0220   67.8410   42.0990 O.3   228  G228       -0.3114
    579  C4'       36.5120   65.7390   41.0060 C.3   228  G228        0.1773
    580  O4'       35.8320   65.1250   42.1240 O.3   228  G228       -0.3307
    581  C3'       35.3730   66.3250   40.1850 C.3   228  G228        0.1860
    582  O3'       35.7440   66.5380   38.8420 O.3   228  G228       -0.3112
    583  C2'       34.3490   65.2090   40.2620 C.3   228  G228        0.2309
    584  O2'       34.7140   64.1510   39.4180 O.3   228  G228       -0.2156
    585  C1'       34.5400   64.7100   41.7040 C.3   228  G228        0.2408
    586  N1        29.6990   64.4400   43.2450 N.ar  228  G228       -0.1709
    587  C2        30.3240   63.7870   42.2040 C.ar  228  G228        0.2606
    588  N2        29.5460   62.9610   41.4740 N.pl3 228  G228       -0.0859
    589  N3        31.6070   63.9400   41.8980 N.ar  228  G228       -0.1918
    590  C4        32.2210   64.8220   42.7160 C.ar  228  G228        0.1723
    591  C5        31.6840   65.5370   43.7700 C.ar  228  G228        0.1748
    592  C6        30.3100   65.3610   44.0910 C.ar  228  G228        0.3023
    593  O6        29.6450   65.9120   44.9800 O.2   228  G228       -0.2633
    594  N7        32.6480   66.3410   44.3560 N.ar  228  G228       -0.2173
    595  C8        33.7310   66.1120   43.6630 C.ar  228  G228        0.1817
    596  N9        33.5430   65.1970   42.6560 N.ar  228  G228       -0.2693
    597  OP1       39.1960   68.9840   42.6630 O.3   228  G228       -0.4373
    598  OP2       37.6460   69.9570   40.8370 O.co2 228  G228       -0.5172
    599  P         35.2280   67.8480   38.0730 P.3   229  C229        0.2141
    600  C5'       33.0720   66.4700   37.6210 C.3   229  C229        0.1812
    601  O5'       33.6500   67.6700   38.0930 O.3   229  C229       -0.3114
    602  C4'       31.5900   66.4110   37.9210 C.3   229  C229        0.1773
    603  O4'       31.3170   66.0280   39.2850 O.3   229  C229       -0.3307
    604  C3'       30.8000   67.6880   37.7160 C.3   229  C229        0.1860
    605  O3'       30.5930   67.8250   36.3290 O.3   229  C229       -0.3112
    606  C2'       29.5170   67.3890   38.5000 C.3   229  C229        0.2309
    607  O2'       28.6050   66.5130   37.8720 O.3   229  C229       -0.2156
    608  C1'       30.0720   66.6000   39.6880 C.3   229  C229        0.2420
    609  N1        30.3050   67.4260   40.8770 N.ar  229  C229       -0.2535
    610  C2        29.3080   67.5180   41.8480 C.ar  229  C229        0.3532
    611  O2        28.2390   66.9080   41.6750 O.2   229  C229       -0.2443
    612  N3        29.5320   68.2650   42.9580 N.ar  229  C229       -0.1739
    613  C4        30.6930   68.9080   43.1020 C.ar  229  C229        0.1759
    614  N4        30.8780   69.6380   44.2030 N.pl3 229  C229       -0.1070
    615  C5        31.7290   68.8290   42.1120 C.ar  229  C229        0.0566
    616  C6        31.4900   68.0900   41.0320 C.ar  229  C229        0.0850
    617  OP1       35.7240   67.8160   36.6700 O.2   229  C229       -0.5172
    618  OP2       35.5520   69.0280   38.9120 O.co2 229  C229       -0.4373
    619  P         30.5730   69.2720   35.6360 P.3   230  G230        0.2141
    620  C5'       31.5380   71.6200   36.1690 C.3   230  G230        0.1812
    621  O5'       31.1900   70.3200   36.6530 O.3   230  G230       -0.3114
    622  C4'       32.4890   72.2840   37.1220 C.3   230  G230        0.1773
    623  O4'       31.7530   72.7540   38.2970 O.3   230  G230       -0.3307
    624  C3'       33.5770   71.3660   37.6520 C.3   230  G230        0.1860
    625  O3'       34.7300   72.1600   37.8930 O.3   230  G230       -0.3112
    626  C2'       32.9490   70.8330   38.9420 C.3   230  G230        0.2309
    627  O2'       33.9070   70.4090   39.8890 O.3   230  G230       -0.2156
    628  C1'       32.1960   72.0680   39.4500 C.3   230  G230        0.2408
    629  N1        29.7480   73.0520   43.8050 N.ar  230  G230       -0.1709
    630  C2        31.0380   73.3830   43.4490 C.ar  230  G230        0.2606
    631  N2        31.7470   74.1180   44.3590 N.pl3 230  G230       -0.0859
    632  N3        31.6000   73.0270   42.2910 N.ar  230  G230       -0.1918
    633  C4        30.7510   72.3070   41.5190 C.ar  230  G230        0.1723
    634  C5        29.4620   71.9300   41.7900 C.ar  230  G230        0.1748
    635  C6        28.8720   72.3170   43.0220 C.ar  230  G230        0.3023
    636  O6        27.7290   72.0740   43.4310 O.2   230  G230       -0.2633
    637  N7        28.9330   71.1930   40.7430 N.ar  230  G230       -0.2173
    638  C8        29.8940   71.1420   39.8700 C.ar  230  G230        0.1817
    639  N9        31.0080   71.8240   40.2560 N.ar  230  G230       -0.2693
    640  OP1       29.1200   69.5780   35.5360 O.3   230  G230       -0.4373
    641  OP2       31.4270   69.3170   34.4200 O.co2 230  G230       -0.5172
    642  P         36.1290   71.7560   37.2110 P.3   231  A231        0.2141
    643  C5'       36.5830   74.2560   36.8660 C.3   231  A231        0.1812
    644  O5'       36.4320   72.9950   36.2950 O.3   231  A231       -0.3114
    645  C4'       35.7690   75.2740   36.1130 C.3   231  A231        0.1773
    646  O4'       34.3380   75.0060   36.2200 O.3   231  A231       -0.3307
    647  C3'       35.9500   76.6660   36.6810 C.3   231  A231        0.1860
    648  O3'       37.1530   77.2390   36.1870 O.3   231  A231       -0.3112
    649  C2'       34.6430   77.3590   36.3290 C.3   231  A231        0.2309
    650  O2'       34.5880   77.8530   35.0020 O.3   231  A231       -0.2156
    651  C1'       33.6430   76.2160   36.5520 C.3   231  A231        0.2408
    652  N1        30.6720   78.1130   40.4090 N.ar  231  A231       -0.2040
    653  C2        30.7580   78.4380   39.1100 C.ar  231  A231        0.2016
    654  N3        31.5340   77.8980   38.1430 N.ar  231  A231       -0.2048
    655  C4        32.2980   76.9100   38.6360 C.ar  231  A231        0.1692
    656  C5        32.3190   76.4680   39.9460 C.ar  231  A231        0.1518
    657  C6        31.4570   77.1080   40.8640 C.ar  231  A231        0.1919
    658  N6        31.3830   76.7670   42.1540 N.pl3 231  A231       -0.1054
    659  N7        33.2190   75.4280   40.0940 N.ar  231  A231       -0.2193
    660  C8        33.7250   75.2700   38.8910 C.ar  231  A231        0.1816
    661  N9        33.2250   76.1370   37.9620 N.ar  231  A231       -0.2693
    662  OP1       35.9010   70.5890   36.3110 O.2   231  A231       -0.5172
    663  OP2       37.1500   71.6560   38.2740 O.co2 231  A231       -0.4373
    664  P         37.7260   78.5500   36.8930 P.3   232  G232        0.2141
    665  C5'       36.6740   80.8850   37.0740 C.3   232  G232        0.1812
    666  O5'       36.5680   79.5940   36.5960 O.3   232  G232       -0.3114
    667  C4'       35.3290   81.5300   37.1470 C.3   232  G232        0.1773
    668  O4'       34.3070   80.5940   37.5690 O.3   232  G232       -0.3307
    669  C3'       35.3050   82.6170   38.1990 C.3   232  G232        0.1860
    670  O3'       35.9600   83.7390   37.6620 O.3   232  G232       -0.3112
    671  C2'       33.8290   82.7230   38.5350 C.3   232  G232        0.2309
    672  O2'       33.0940   83.4420   37.5710 O.3   232  G232       -0.2156
    673  C1'       33.4330   81.2470   38.4840 C.3   232  G232        0.2408
    674  N1        31.7940   81.0720   43.2580 N.ar  232  G232       -0.1709
    675  C2        31.4900   81.9570   42.2640 C.ar  232  G232        0.2606
    676  N2        30.5920   82.9100   42.5700 N.pl3 232  G232       -0.0859
    677  N3        32.0180   81.9180   41.0550 N.ar  232  G232       -0.1918
    678  C4        32.8840   80.9050   40.9190 C.ar  232  G232        0.1723
    679  C5        33.2580   79.9650   41.8480 C.ar  232  G232        0.1748
    680  C6        32.6840   80.0200   43.1450 C.ar  232  G232        0.3023
    681  O6        32.8820   79.2760   44.1220 O.2   232  G232       -0.2633
    682  N7        34.1810   79.0800   41.3080 N.ar  232  G232       -0.2173
    683  C8        34.3410   79.4930   40.0780 C.ar  232  G232        0.1817
    684  N9        33.5610   80.5820   39.7760 N.ar  232  G232       -0.2693
    685  OP1       38.9650   78.9900   36.1850 O.2   232  G232       -0.5172
    686  OP2       37.7510   78.3370   38.3570 O.co2 232  G232       -0.4373
    687  P         37.1540   84.4080   38.4860 P.3   233  C233        0.2141
    688  C5'       35.2630   86.1110   38.9770 C.3   233  C233        0.1812
    689  O5'       36.3320   85.3210   39.4930 O.3   233  C233       -0.3114
    690  C4'       34.3360   86.5210   40.0780 C.3   233  C233        0.1773
    691  O4'       33.5210   85.4000   40.5230 O.3   233  C233       -0.3307
    692  C3'       35.0140   86.9860   41.3500 C.3   233  C233        0.1860
    693  O3'       35.5540   88.2900   41.2160 O.3   233  C233       -0.3112
    694  C2'       33.8710   86.8750   42.3380 C.3   233  C233        0.2309
    695  O2'       32.9080   87.8680   42.0410 O.3   233  C233       -0.2156
    696  C1'       33.2870   85.5180   41.9230 C.3   233  C233        0.2420
    697  N1        33.9590   84.3810   42.6000 N.ar  233  C233       -0.2535
    698  C2        33.5680   84.0410   43.9040 C.ar  233  C233        0.3532
    699  O2        32.7070   84.7380   44.4780 O.2   233  C233       -0.2443
    700  N3        34.1390   82.9670   44.5100 N.ar  233  C233       -0.1739
    701  C4        35.0710   82.2610   43.8690 C.ar  233  C233        0.1759
    702  N4        35.6000   81.1990   44.4980 N.pl3 233  C233       -0.1070
    703  C5        35.5050   82.6050   42.5540 C.ar  233  C233        0.0566
    704  C6        34.9300   83.6620   41.9650 C.ar  233  C233        0.0850
    705  OP1       37.8810   85.3060   37.5480 O.2   233  C233       -0.5172
    706  OP2       37.8810   83.3220   39.2040 O.co2 233  C233       -0.4373
    707  P         36.9120   88.6760   42.0070 P.3   234  A234        0.2141
    708  C5'       35.3950   89.4330   44.0260 C.3   234  A234        0.1812
    709  O5'       36.4910   88.6420   43.5530 O.3   234  A234       -0.3114
    710  C4'       34.9930   89.0180   45.4260 C.3   234  A234        0.1773
    711  O4'       34.4480   87.6720   45.4130 O.3   234  A234       -0.3307
    712  C3'       36.1100   88.9640   46.4600 C.3   234  A234        0.1860
    713  O3'       36.3660   90.2550   46.9880 O.3   234  A234       -0.3112
    714  C2'       35.5280   88.0170   47.5040 C.3   234  A234        0.2309
    715  O2'       34.5560   88.6150   48.3550 O.3   234  A234       -0.2156
    716  C1'       34.8260   86.9990   46.6020 C.3   234  A234        0.2408
    717  N1        36.8670   82.5560   48.0460 N.ar  234  A234       -0.2040
    718  C2        36.0160   83.3870   48.6400 C.ar  234  A234        0.2016
    719  N3        35.5270   84.5280   48.2050 N.ar  234  A234       -0.2048
    720  C4        36.0110   84.8100   46.9890 C.ar  234  A234        0.1692
    721  C5        36.8930   84.0550   46.2490 C.ar  234  A234        0.1518
    722  C6        37.3350   82.8680   46.8220 C.ar  234  A234        0.1919
    723  N6        38.1940   82.0250   46.2270 N.pl3 234  A234       -0.1054
    724  N7        37.1710   84.6700   45.0320 N.ar  234  A234       -0.2193
    725  C8        36.4540   85.7680   45.0650 C.ar  234  A234        0.1816
    726  N9        35.7240   85.9130   46.2230 N.ar  234  A234       -0.2693
    727  OP1       37.2280   90.0750   41.5810 O.2   234  A234       -0.5172
    728  OP2       37.9360   87.6080   41.8320 O.co2 234  A234       -0.4373
    729  P         37.8720   90.7180   47.2670 P.3   235  A235        0.2141
    730  C5'       37.6350   90.2980   49.8350 C.3   235  A235        0.1813
    731  O5'       38.2600   89.9520   48.6110 O.3   235  A235       -0.3114
    732  C4'       37.8170   89.2000   50.8390 C.3   235  A235        0.1801
    733  O4'       37.4030   87.9470   50.2330 O.3   235  A235       -0.3306
    734  C3'       39.2440   88.9330   51.2950 C.3   235  A235        0.2161
    735  O3'       39.7330   89.8690   52.3040 O.3   235  A235       -0.2175
    736  C2'       39.1440   87.5000   51.7980 C.3   235  A235        0.2337
    737  O2'       38.5020   87.4380   53.0480 O.3   235  A235       -0.2155
    738  C1'       38.1830   86.8930   50.7720 C.3   235  A235        0.2409
    739  N1        40.1680   82.4670   49.1080 N.ar  235  A235       -0.2040
    740  C2        39.5640   82.8050   50.2450 C.ar  235  A235        0.2016
    741  N3        39.0700   83.9810   50.6150 N.ar  235  A235       -0.2048
    742  C4        39.2530   84.9000   49.6520 C.ar  235  A235        0.1692
    743  C5        39.8550   84.7070   48.4310 C.ar  235  A235        0.1518
    744  C6        40.3280   83.4140   48.1550 C.ar  235  A235        0.1919
    745  N6        40.9220   83.0780   47.0060 N.pl3 235  A235       -0.1054
    746  N7        39.8570   85.8850   47.6920 N.ar  235  A235       -0.2193
    747  C8        39.2570   86.7470   48.4740 C.ar  235  A235        0.1816
    748  N9        38.8680   86.2190   49.6750 N.ar  235  A235       -0.2693
    749  OP1       37.7960   92.1840   47.5500 O.3   235  A235       -0.4373
    750  OP2       38.7530   90.2340   46.1740 O.co2 235  A235       -0.5172
@<TRIPOS>BOND
     1   641   619    2
     2   650   649    1
     3   640   619    1
     4   619   605    1
     5   619   621    1
     6   645   646    1
     7   645   647    1
     8   645   643    1
     9   620   621    1
    10   620   622    1
    11   685   664    2
    12   648   647    1
    13   648   664    1
    14   646   651    1
    15   644   643    1
    16   644   642    1
    17   662   642    2
    18   649   651    1
    19   649   647    1
    20   605   604    1
    21   651   661    1
    22   666   664    1
    23   666   665    1
    24   617   599    2
    25   664   686    1
    26   665   667    1
    27   622   624    1
    28   622   623    1
    29   667   668    1
    30   667   669    1
    31   642   625    1
    32   642   663    1
    33   705   687    2
    34   668   673    1
    35   672   671    1
    36   600   602    1
    37   600   601    1
    38   624   625    1
    39   624   626    1
    40   670   669    1
    41   670   687    1
    42   604   602    1
    43   604   606    1
    44   607   606    1
    45   602   603    1
    46   661   655   ar
    47   661   660   ar
    48   599   601    1
    49   599   582    1
    50   599   618    1
    51   654   655   ar
    52   654   653   ar
    53   669   671    1
    54   623   628    1
    55   673   671    1
    56   673   684    1
    57   687   706    1
    58   687   689    1
    59   606   608    1
    60   655   656   ar
    61   582   581    1
    62   660   659   ar
    63   626   628    1
    64   626   627    1
    65   688   689    1
    66   688   690    1
    67   653   652   ar
    68   603   608    1
    69   584   583    1
    70   628   639    1
    71   608   609    1
    72   684   683   ar
    73   684   678   ar
    74   638   639   ar
    75   638   637   ar
    76   656   659   ar
    77   656   657   ar
    78   683   682   ar
    79   690   691    1
    80   690   692    1
    81   581   583    1
    82   581   579    1
    83   639   633   ar
    84   583   585    1
    85   652   657   ar
    86   691   696    1
    87   637   634   ar
    88   598   576    2
    89   657   658    1
    90   609   616   ar
    91   609   610   ar
    92   678   677   ar
    93   678   679   ar
    94   579   577    1
    95   579   580    1
    96   616   615   ar
    97   677   675   ar
    98   693   692    1
    99   693   707    1
   100   682   679   ar
   101   692   694    1
   102   377   376    1
   103   588   587    1
   104   577   578    1
   105   633   634   ar
   106   633   632   ar
   107   358   357   ar
   108   358   359   ar
   109   727   707    2
   110    67    47    2
   111   611   610    2
   112    45    24    2
   113   585   580    1
   114   585   596    1
   115     9     8    1
   116   357   362   ar
   117   634   635   ar
   118   728   707    1
   119   679   680   ar
   120   610   612   ar
   121   589   587   ar
   122   589   590   ar
   123   696   694    1
   124   696   697    1
   125   704   703   ar
   126   704   697   ar
   127    25    27    1
   128    25    26    1
   129   381   380    2
   130   707   709    1
   131   695   694    1
   132   578   576    1
   133   615   613   ar
   134   576   597    1
   135   576   562    1
   136   587   586   ar
   137   675   676    1
   138   675   674   ar
   139    30    47    1
   140    30    29    1
   141   632   630   ar
   142   359   360   ar
   143     7    24    1
   144     7     6    1
   145    27    29    1
   146    27    28    1
   147   397   396    1
   148   341   340    1
   149   703   701   ar
   150   335   340   ar
   151   335   336   ar
   152   697   698   ar
   153   299   298    1
   154   596   590   ar
   155   596   595   ar
   156   392   393    1
   157   392   390    1
   158   392   394    1
   159   590   591   ar
   160   393   398    1
   161   376   378    1
   162   376   374    1
   163    48    49    1
   164    48    50    1
   165   378   373    1
   166   378   379    1
   167    47    49    1
   168    47    68    1
   169    24    26    1
   170    24    46    1
   171   390   391    1
   172   362   363    1
   173   362   361   ar
   174    32    31    1
   175   612   613   ar
   176   635   636    2
   177   635   629   ar
   178     4     6    1
   179     4     2    1
   180     4     5    1
   181     8     6    1
   182     8    10    1
   183   613   614    1
   184   380   379   ar
   185   380   382   ar
   186   680   674   ar
   187   680   681    2
   188    29    31    1
   189   340   339   ar
   190   562   561    1
   191   336   337   ar
   192   586   592   ar
   193   373   372    1
   194   398   396    1
   195   398   399    1
   196    28    33    1
   197    89    69    2
   198   630   629   ar
   199   630   631    1
   200   360   361   ar
   201   360   366   ar
   202   395   394    1
   203   395   409    1
   204   709   708    1
   205   396   394    1
   206     2     3    1
   207    50    52    1
   208    50    51    1
   209   379   386   ar
   210   372   374    1
   211   372   370    1
   212   595   594   ar
   213   375   374    1
   214   375   389    1
   215     5    10    1
   216   298   293   ar
   217   298   297   ar
   218    53    69    1
   219    53    52    1
   220   591   592   ar
   221   591   594   ar
   222    10    21    1
   223   361   364   ar
   224    31    33    1
   225   701   702    1
   226   701   700   ar
   227   698   699    2
   228   698   700   ar
   229   382   383   ar
   230   293   294   ar
   231   708   710    1
   232   592   593    2
   233   429   409    2
   234   355   354    1
   235   391   389    1
   236   407   389    2
   237    33    44    1
   238    69    90    1
   239    69    71    1
   240   337   338   ar
   241   339   338   ar
   242   339   342   ar
   243   561   563    1
   244   561   559    1
   245    52    54    1
   246   366   356    1
   247   366   365   ar
   248    51    56    1
   249   356   354    1
   250   356   351    1
   251   564   563    1
   252   399   406   ar
   253   399   400   ar
   254   401   400    2
   255   297   300   ar
   256   297   296   ar
   257   389   408    1
   258   410   411    1
   259   410   412    1
   260   300   301   ar
   261   409   411    1
   262   409   430    1
   263   354   352    1
   264   370   371    1
   265   386   385   ar
   266     3     1    1
   267   568   567    2
   268   338   344   ar
   269   294   295   ar
   270   724   725   ar
   271   724   721   ar
   272   725   726   ar
   273    55    54    1
   274    14    15   ar
   275    14    12   ar
   276   364   365   ar
   277   406   405   ar
   278   383   385   ar
   279   383   384    1
   280   400   402   ar
   281    21    15   ar
   282    21    20   ar
   283   563   565    1
   284   275   274    2
   285   235   234    1
   286   559   560    1
   287   559   557    1
   288   342   343   ar
   289    23     1    1
   290   711   710    1
   291   711   716    1
   292   710   712    1
   293    13    12    1
   294   412   413    1
   295   412   414    1
   296   565   560    1
   297   565   566    1
   298    54    56    1
   299    44    43   ar
   300    44    38   ar
   301   413   418    1
   302   296   295   ar
   303   296   302   ar
   304    71    70    1
   305   351   350    1
   306    70    72    1
   307   301   302   ar
   308    56    66    1
   309    15    16   ar
   310   276   274   ar
   311   276   277   ar
   312    12    11   ar
   313    43    42   ar
   314     1    22    1
   315   371   369    1
   316   233   234   ar
   317   233   231   ar
   318   274   273   ar
   319   567   566   ar
   320   567   569   ar
   321   750   729    2
   322   726   716    1
   323   726   720   ar
   324   723   722    1
   325   721   722   ar
   326   721   720   ar
   327   234   236   ar
   328   344   343   ar
   329   344   334    1
   330    20    19   ar
   331   352   350    1
   332   352   353    1
   333   405   403   ar
   334   303   283    2
   335   302   292    1
   336   402   403   ar
   337   545   544    1
   338   320   319    2
   339   557   558    1
   340   712   713    1
   341   712   714    1
   342   566   573   ar
   343   278   277    1
   344   716   714    1
   345   271   270    1
   346   350   348    1
   347   353   369    1
   348    65    66   ar
   349    65    64   ar
   350   209   208    1
   351    38    37   ar
   352    38    39   ar
   353    66    60   ar
   354   722   717   ar
   355   277   279   ar
   356   232   231    2
   357   418   416    1
   358   418   428    1
   359   414   415    1
   360   414   416    1
   361   252   251    1
   362    37    35   ar
   363   403   404    1
   364   415   431    1
   365   713   729    1
   366   720   719   ar
   367   318   319   ar
   368   318   316   ar
   369   745   744    1
   370   231   230   ar
   371   270   272    1
   372   270   268    1
   373   417   416    1
   374   250   251   ar
   375   250   256   ar
   376   257   256    2
   377    16    19   ar
   378    16    17   ar
   379   569   570   ar
   380    72    73    1
   381    72    74    1
   382   207   208   ar
   383   207   213   ar
   384   287   292    1
   385   287   286    1
   386    42    39   ar
   387   369   387    2
   388   369   388    1
   389   334   332    1
   390   334   329    1
   391    11    17   ar
   392   729   749    1
   393   729   731    1
   394   319   321   ar
   395   273   272    1
   396   273   280   ar
   397   317   316    2
   398   214   213    2
   399   292   290    1
   400   427   428   ar
   401   427   426   ar
   402   714   715    1
   403   236   237   ar
   404   544   543   ar
   405   544   546   ar
   406   558   556    1
   407   272   267    1
   408   208   210   ar
   409   428   422   ar
   410   251   253   ar
   411   746   743   ar
   412   746   747   ar
   413   256   255   ar
   414   332   333    1
   415   332   330    1
   416    39    40   ar
   417   316   315   ar
   418    73    78    1
   419   283   269    1
   420   283   285    1
   421   283   304    1
   422   573   572   ar
   423    64    61   ar
   424   213   212   ar
   425    75    74    1
   426    75    91    1
   427   543   549   ar
   428    17    18    2
   429   449   431    2
   430   717   718   ar
   431   348   349    1
   432   279   280   ar
   433    74    76    1
   434    60    59   ar
   435    60    61   ar
   436   744   743   ar
   437   744   739   ar
   438    35    36    1
   439    35    34   ar
   440   719   718   ar
   441   431   450    1
   442   431   433    1
   443   546   547   ar
   444   230   237   ar
   445   230   229    1
   446   268   269    1
   447   268   266    1
   448   349   347    1
   449   426   423   ar
   450   329   328    1
   451   743   742   ar
   452   285   284    1
   453   286   284    1
   454   286   288    1
   455   747   748   ar
   456   570   572   ar
   457   570   571    2
   458   321   322   ar
   459   731   730    1
   460    87    86   ar
   461    87    88   ar
   462    59    58   ar
   463   109    91    2
   464   110    91    1
   465    61    62   ar
   466   422   423   ar
   467   422   421   ar
   468   330   328    1
   469   330   331    1
   470   210   211   ar
   471   290   291    1
   472   290   288    1
   473   253   254   ar
   474    91    93    1
   475   267   266    1
   476   315   322   ar
   477   315   314    1
   478   556   575    2
   479   556   574    1
   480   556   539    1
   481   255   254   ar
   482   255   258   ar
   483   739   740   ar
   484    40    34   ar
   485    40    41    2
   486   549   550    2
   487   549   548   ar
   488    78    76    1
   489    78    88    1
   490    86    83   ar
   491   423   424   ar
   492   212   211   ar
   493   212   215   ar
   494   309   314    1
   495   309   308    1
   496   228   227    1
   497   547   548   ar
   498   547   553   ar
   499   421   420   ar
   500   229   227    1
   501   229   224    1
   502   266   264    1
   503   433   432    1
   504   328   326    1
   505    76    77    1
   506    88    82   ar
   507   537   542    1
   508   537   536    1
   509   254   260   ar
   510   288   289    1
   511   211   217   ar
   512   368   347    2
   513   432   434    1
   514   742   748   ar
   515   742   741   ar
   516   748   738    1
   517   347   331    1
   518   347   367    1
   519   289   305    1
   520   227   225    1
   521   539   538    1
   522   730   732    1
   523   314   312    1
   524   548   551   ar
   525   542   553    1
   526   542   540    1
   527   258   259   ar
   528    58    57   ar
   529   326   327    1
   530   306   308    1
   531   306   307    1
   532    62    57   ar
   533    62    63    1
   534   553   552   ar
   535   536   538    1
   536   536   534    1
   537   733   738    1
   538   733   732    1
   539   740   741   ar
   540   215   216   ar
   541   308   310    1
   542   424   425    1
   543   424   419   ar
   544    93    92    1
   545   420   419   ar
   546   435   434    1
   547   435   440    1
   548    83    82   ar
   549    83    84   ar
   550   224   223    1
   551   327   325    1
   552    82    81   ar
   553   434   436    1
   554   738   736    1
   555   264   265    1
   556   538   540    1
   557   217   216   ar
   558   217   206    1
   559   265   263    1
   560   732   734    1
   561   260   259   ar
   562   260   249    1
   563   448   447   ar
   564   448   441   ar
   565   307   305    1
   566   447   445   ar
   567   551   552   ar
   568   541   540    1
   569   305   324    2
   570   305   323    1
   571   312   310    1
   572   312   313    1
   573   534   535    1
   574   734   736    1
   575   734   735    1
   576   225   223    1
   577   225   226    1
   578    92    94    1
   579    85    84    1
   580   206   204    1
   581   206   201    1
   582   310   311    1
   583    84    79   ar
   584   282   263    2
   585   223   221    1
   586   247   249    1
   587   247   248    1
   588   247   245    1
   589   440   441    1
   590   440   438    1
   591   441   442   ar
   592   736   737    1
   593   249   244    1
   594    81    80   ar
   595   311   325    1
   596   535   533    1
   597   205   204    1
   598   226   240    1
   599   445   446    1
   600   445   444   ar
   601   325   345    2
   602   325   346    1
   603   204   202    1
   604   436   437    1
   605   436   438    1
   606   263   246    1
   607   263   281    1
   608   246   245    1
   609   437   451    1
   610   201   200    1
   611    95    94    1
   612    95   100    1
   613    94    96    1
   614    79    80   ar
   615   442   444   ar
   616   442   443    2
   617   107   108   ar
   618   107   105   ar
   619   245   243    1
   620   438   439    1
   621   108   101   ar
   622   221   222    1
   623   244   243    1
   624   192   191    2
   625   242   240    1
   626   242   241    1
   627   222   220    1
   628   470   451    2
   629   240   262    2
   630   240   261    1
   631   533   554    2
   632   533   555    1
   633   533   517    1
   634   202   200    1
   635   202   203    1
   636   130   111    2
   637   190   191   ar
   638   190   188   ar
   639   451   469    1
   640   451   453    1
   641   243   241    1
   642   200   198    1
   643   106   105    1
   644   105   104   ar
   645    96    97    1
   646    96    98    1
   647   191   193   ar
   648   101   100    1
   649   101   102   ar
   650   517   516    1
   651   100    98    1
   652   171   170    2
   653   189   188    2
   654   203   220    1
   655    97   111    1
   656   519   518    1
   657   188   187   ar
   658   111   129    1
   659   111   113    1
   660   220   239    2
   661   220   238    1
   662   467   468   ar
   663   467   465   ar
   664   466   465    1
   665    98    99    1
   666   164   170   ar
   667   164   165   ar
   668   453   452    1
   669   170   169   ar
   670   104   102   ar
   671   198   199    1
   672   102   103    2
   673   199   197    1
   674   193   194   ar
   675   516   518    1
   676   516   514    1
   677   518   520    1
   678   468   461   ar
   679   465   464   ar
   680   126   125    1
   681   452   454    1
   682   187   194   ar
   683   187   186    1
   684   127   125   ar
   685   127   128   ar
   686   148   147    2
   687   166   165    1
   688   113   112    1
   689   514   512    1
   690   514   515    1
   691   165   167   ar
   692   184   185    1
   693   184   186    1
   694   184   182    1
   695   125   124   ar
   696   169   172   ar
   697   169   168   ar
   698   531   511    2
   699   219   197    2
   700   455   454    1
   701   455   460    1
   702   186   181    1
   703   128   121   ar
   704   464   462   ar
   705   520   515    1
   706   520   530    1
   707   461   462   ar
   708   461   460    1
   709   512   513    1
   710   197   218    1
   711   197   183    1
   712   454   456    1
   713   172   173   ar
   714   112   114    1
   715   147   141   ar
   716   147   146   ar
   717   182   183    1
   718   182   180    1
   719   462   463    2
   720   167   168   ar
   721   168   174   ar
   722   460   458    1
   723   153   131    2
   724   149   146   ar
   725   149   150   ar
   726   499   498    1
   727   124   122   ar
   728   458   456    1
   729   458   459    1
   730   513   511    1
   731   530   529   ar
   732   530   524   ar
   733   503   502    2
   734   511   497    1
   735   511   532    1
   736   141   142   ar
   737   456   457    1
   738   146   145   ar
   739   181   180    1
   740   121   122   ar
   741   121   120    1
   742   173   174   ar
   743   497   496    1
   744   115   114    1
   745   115   120    1
   746   114   116    1
   747   529   528   ar
   748   523   524   ar
   749   523   522   ar
   750   122   123    2
   751   180   178    1
   752   174   163    1
   753   524   525   ar
   754   116   117    1
   755   116   118    1
   756   150   151   ar
   757   502   504   ar
   758   502   501   ar
   759   131   117    1
   760   131   152    1
   761   131   133    1
   762   179   178    1
   763   179   177    1
   764   120   118    1
   765   196   177    2
   766   498   500    1
   767   498   496    1
   768   489   471    2
   769   504   505   ar
   770   457   471    1
   771   500   501    1
   772   500   495    1
   773   496   494    1
   774   142   143    1
   775   142   144   ar
   776   145   151   ar
   777   145   144   ar
   778   522   521   ar
   779   528   525   ar
   780   501   508   ar
   781   118   119    1
   782   525   526   ar
   783   133   132    1
   784   151   140    1
   785   177   195    1
   786   177   160    1
   787   163   161    1
   788   163   158    1
   789   161   159    1
   790   161   162    1
   791   176   154    2
   792   471   473    1
   793   471   490    1
   794   505   506    1
   795   505   507   ar
   796   472   473    1
   797   472   474    1
   798   159   160    1
   799   159   157    1
   800   495   494    1
   801   521   526   ar
   802   494   492    1
   803   508   507   ar
   804   526   527    1
   805   158   157    1
   806   156   154    1
   807   156   155    1
   808   475   474    1
   809   475   480    1
   810   474   476    1
   811   132   134    1
   812   140   135    1
   813   140   138    1
   814   154   137    1
   815   154   175    1
   816   136   138    1
   817   136   134    1
   818   136   137    1
   819   135   134    1
   820   157   155    1
   821   487   488   ar
   822   487   485   ar
   823   488   481   ar
   824   138   139    1
   825   492   493    1
   826   493   491    1
   827   480   481    1
   828   480   478    1
   829   481   482   ar
   830   485   486    2
   831   485   484   ar
   832   476   477    1
   833   476   478    1
   834   477   491    1
   835   484   482   ar
   836   482   483    2
   837   478   479    1
   838   491   510    2
   839   491   509    1
