1pbr
 OpenBabel11021811403D
libRbt.so/2013.1/901 2013/11/27
 42 45  0  0  0  0  0  0  0  0999 V2000
    1.8470   -0.7459   44.2977 C   0  0  2  0  0  0  0  0  0  0  0  0
    1.4313   -2.1199   44.5039 O   0  0  0  0  0  0  0  0  0  0  0  0
    3.2453   -0.4778   44.9693 C   0  0  2  0  0  0  0  0  0  0  0  0
    4.2322   -1.5754   44.7970 N   0  3  0  0  0  0  0  0  0  0  0  0
    3.1116   -0.2526   46.4872 C   0  0  1  0  0  0  0  0  0  0  0  0
    4.3306    0.2457   47.0342 O   0  0  0  0  0  0  0  0  0  0  0  0
    1.9722    0.7287   46.8013 C   0  0  2  0  0  0  0  0  0  0  0  0
    1.8922    0.9581   48.2046 O   0  0  0  0  0  0  0  0  0  0  0  0
    0.6378    0.2264   46.2067 C   0  0  2  0  0  0  0  0  0  0  0  0
    0.8152    0.1609   44.7758 O   0  0  0  0  0  0  0  0  0  0  0  0
   -0.5570    1.1351   46.4907 C   0  0  0  0  0  0  0  0  0  0  0  0
   -1.5750    0.9682   45.5128 O   0  0  0  0  0  0  0  0  0  0  0  0
    0.2895   -5.3214   41.9242 C   0  0  1  0  0  0  0  0  0  0  0  0
   -0.3231   -6.1983   40.9096 N   0  3  0  0  0  0  0  0  0  0  0  0
    1.1350   -4.1789   41.2843 C   0  0  2  0  0  0  0  0  0  0  0  0
    2.1757   -4.7229   40.4759 O   0  0  0  0  0  0  0  0  0  0  0  0
    1.7812   -3.2751   42.3747 C   0  0  1  0  0  0  0  0  0  0  0  0
    2.4126   -2.1347   41.7206 O   0  0  0  0  0  0  0  0  0  0  0  0
    0.7297   -2.7624   43.4123 C   0  0  1  0  0  0  0  0  0  0  0  0
   -0.1476   -3.9112   44.0052 C   0  0  1  0  0  0  0  0  0  0  0  0
   -1.1968   -3.3853   44.9063 N   0  3  0  0  0  0  0  0  0  0  0  0
   -0.8020   -4.7407   42.8702 C   0  0  0  0  0  0  0  0  0  0  0  0
    3.8413   -2.1711   41.4057 C   0  0  1  0  0  0  0  0  0  0  0  0
    4.0079   -2.2242   39.8755 C   0  0  2  0  0  0  0  0  0  0  0  0
    5.2481   -2.8264   39.5160 O   0  0  0  0  0  0  0  0  0  0  0  0
    3.9850   -0.7172   39.5782 C   0  0  1  0  0  0  0  0  0  0  0  0
    4.8588   -0.1540   40.6867 C   0  0  2  0  0  0  0  0  0  0  0  0
    4.4724   -0.9409   41.8030 O   0  0  0  0  0  0  0  0  0  0  0  0
    4.6526    1.3362   40.9878 C   0  0  0  0  0  0  0  0  0  0  0  0
    4.8500    2.1034   39.8094 O   0  0  0  0  0  0  0  0  0  0  0  0
    2.0745    2.2446   35.7765 C   0  0  1  0  0  0  0  0  0  0  0  0
    2.9180    3.3875   35.9076 O   0  0  0  0  0  0  0  0  0  0  0  0
    2.8546    1.1080   35.0588 C   0  0  2  0  0  0  0  0  0  0  0  0
    1.9192    0.1330   34.6039 O   0  0  0  0  0  0  0  0  0  0  0  0
    3.9447    0.3940   35.9236 C   0  0  1  0  0  0  0  0  0  0  0  0
    5.2162    1.1490   35.8743 N   0  3  0  0  0  0  0  0  0  0  0  0
    3.4553    0.1364   37.3730 C   0  0  1  0  0  0  0  0  0  0  0  0
    4.4926   -0.3251   38.2731 O   0  0  0  0  0  0  0  0  0  0  0  0
    1.6074    1.7589   37.1718 C   0  0  1  0  0  0  0  0  0  0  0  0
    2.7858    1.3282   37.9065 O   0  0  0  0  0  0  0  0  0  0  0  0
    0.8177    2.8153   37.9670 C   0  0  0  0  0  0  0  0  0  0  0  0
    0.2628    2.2832   39.2269 N   0  3  0  0  0  0  0  0  0  0  0  0
  1  2  1  1  0  0  0
  1  3  1  0  0  0  0
  1 10  1  0  0  0  0
  3  4  1  1  0  0  0
  3  5  1  0  0  0  0
  5  6  1  6  0  0  0
  5  7  1  0  0  0  0
  7  8  1  1  0  0  0
  7  9  1  0  0  0  0
  9 10  1  0  0  0  0
  9 11  1  6  0  0  0
 11 12  1  0  0  0  0
 13 14  1  6  0  0  0
 13 15  1  0  0  0  0
 13 22  1  0  0  0  0
 15 16  1  1  0  0  0
 15 17  1  0  0  0  0
 17 18  1  6  0  0  0
 17 19  1  0  0  0  0
 19  2  1  1  0  0  0
 19 20  1  0  0  0  0
 20 21  1  1  0  0  0
 20 22  1  0  0  0  0
 23 18  1  6  0  0  0
 23 24  1  0  0  0  0
 23 28  1  0  0  0  0
 24 25  1  1  0  0  0
 24 26  1  0  0  0  0
 26 27  1  0  0  0  0
 26 38  1  6  0  0  0
 27 28  1  0  0  0  0
 27 29  1  1  0  0  0
 29 30  1  0  0  0  0
 31 32  1  1  0  0  0
 31 33  1  0  0  0  0
 31 39  1  0  0  0  0
 33 34  1  1  0  0  0
 33 35  1  0  0  0  0
 35 36  1  1  0  0  0
 35 37  1  0  0  0  0
 37 38  1  1  0  0  0
 37 40  1  0  0  0  0
 39 40  1  0  0  0  0
 39 41  1  1  0  0  0
 41 42  1  0  0  0  0
M  CHG  5   4   1  14   1  21   1  36   1  42   1
M  END
>  <CHROM.1>
-143.12324647,81.76269854,-49.56529235,-167.40337325,-176.94844307,155.41794391
152.74943400,-176.76873494,63.86733916,-95.62180368,111.85354183,-21.74513303
-169.35067065,109.23208391,-56.31401627,-51.47542674,61.66990237,177.48521642
58.16731584,-172.86799773,173.89801847,68.69247888,2.28494935,-0.70972333
41.39354628,-2.32110862,-1.23095275,-2.03223596

>  <Name>
1pbr

>  <RI>
0

>  <Rbt.Current_Directory>
/home/itssahil/PROJECTS/Mol_Feturizer/New_Systems/rnas/1pbr

>  <Rbt.Executable>
rbdock ($Id: //depot/dev/client3/rdock/2013.1/src/exe/rbdock.cxx#4 $)

>  <Rbt.Library>
libRbt.so (2013.1, Build901 2013/11/27)

>  <Rbt.Parameter_File>
/export/apps/rDock/src/rDock_2013.1_src/data/scripts/dock_solv.prm

>  <Rbt.Receptor>
prm/pocket_docking_2.prm

>  <SCORE>
-51.5938

>  <SCORE.INTER>
-52.157

>  <SCORE.INTER.CONST>
1

>  <SCORE.INTER.POLAR>
-6.71818

>  <SCORE.INTER.ROT>
9

>  <SCORE.INTER.SOLV>
27.3707

>  <SCORE.INTER.VDW>
-31.101

>  <SCORE.INTER.norm>
-1.24183

>  <SCORE.INTRA>
0.442459

>  <SCORE.INTRA.DIHEDRAL>
6.11875

>  <SCORE.INTRA.DIHEDRAL.0>
29.7866

>  <SCORE.INTRA.POLAR>
-0.194423

>  <SCORE.INTRA.POLAR.0>
-0.984091

>  <SCORE.INTRA.REPUL>
-0.274115

>  <SCORE.INTRA.REPUL.0>
0.274115

>  <SCORE.INTRA.SOLV>
-0.377524

>  <SCORE.INTRA.SOLV.lig_0>
-152.978

>  <SCORE.INTRA.VDW>
-0.396544

>  <SCORE.INTRA.VDW.0>
-6.10719

>  <SCORE.INTRA.norm>
0.0105347

>  <SCORE.RESTR>
0.120664

>  <SCORE.RESTR.CAVITY>
0.120664

>  <SCORE.RESTR.norm>
0.00287295

>  <SCORE.SYSTEM>
0

>  <SCORE.SYSTEM.CONST>
0

>  <SCORE.SYSTEM.DIHEDRAL>
0

>  <SCORE.SYSTEM.SOLV>
0

>  <SCORE.SYSTEM.norm>
0

>  <SCORE.heavy>
42

>  <SCORE.norm>
-1.22842

>  <RMSD>
0.690

$$$$
1pbr
 OpenBabel11021811403D
libRbt.so/2013.1/901 2013/11/27
 42 45  0  0  0  0  0  0  0  0999 V2000
    2.0917   -0.3096   44.1187 C   0  0  2  0  0  0  0  0  0  0  0  0
    1.9506   -1.7479   44.2394 O   0  0  0  0  0  0  0  0  0  0  0  0
    3.4061    0.1850   44.8302 C   0  0  2  0  0  0  0  0  0  0  0  0
    4.5893   -0.6878   44.6147 N   0  3  0  0  0  0  0  0  0  0  0  0
    3.2201    0.2902   46.3557 C   0  0  1  0  0  0  0  0  0  0  0  0
    4.3144    0.9827   46.9524 O   0  0  0  0  0  0  0  0  0  0  0  0
    1.9089    1.0111   46.7034 C   0  0  2  0  0  0  0  0  0  0  0  0
    1.7756    1.1375   48.1156 O   0  0  0  0  0  0  0  0  0  0  0  0
    0.7025    0.2950   46.0567 C   0  0  2  0  0  0  0  0  0  0  0  0
    0.8995    0.3496   44.6279 O   0  0  0  0  0  0  0  0  0  0  0  0
   -0.6487    0.9359   46.3693 C   0  0  0  0  0  0  0  0  0  0  0  0
   -1.0101    0.7382   47.7298 O   0  0  0  0  0  0  0  0  0  0  0  0
    0.1741   -4.9682   42.0757 C   0  0  1  0  0  0  0  0  0  0  0  0
   -0.6717   -5.8465   41.2467 N   0  3  0  0  0  0  0  0  0  0  0  0
    0.8988   -3.8772   41.2306 C   0  0  2  0  0  0  0  0  0  0  0  0
    1.7221   -4.4829   40.2367 O   0  0  0  0  0  0  0  0  0  0  0  0
    1.7946   -2.9714   42.1254 C   0  0  1  0  0  0  0  0  0  0  0  0
    2.3072   -1.8744   41.3126 O   0  0  0  0  0  0  0  0  0  0  0  0
    1.0092   -2.3906   43.3465 C   0  0  1  0  0  0  0  0  0  0  0  0
    0.2431   -3.4878   44.1526 C   0  0  1  0  0  0  0  0  0  0  0  0
   -0.5690   -2.8974   45.2396 N   0  3  0  0  0  0  0  0  0  0  0  0
   -0.6678   -4.3202   43.2136 C   0  0  0  0  0  0  0  0  0  0  0  0
    3.7486   -1.7307   41.1035 C   0  0  1  0  0  0  0  0  0  0  0  0
    4.0106   -1.5238   39.5999 C   0  0  2  0  0  0  0  0  0  0  0  0
    5.3246   -1.9463   39.2464 O   0  0  0  0  0  0  0  0  0  0  0  0
    3.8532    0.0029   39.5358 C   0  0  1  0  0  0  0  0  0  0  0  0
    4.5979    0.4590   40.7796 C   0  0  2  0  0  0  0  0  0  0  0  0
    4.2272   -0.5276   41.7303 O   0  0  0  0  0  0  0  0  0  0  0  0
    4.2245    1.8572   41.2888 C   0  0  0  0  0  0  0  0  0  0  0  0
    4.8213    2.0896   42.5562 O   0  0  0  0  0  0  0  0  0  0  0  0
    1.7991    2.2029   35.2644 C   0  0  1  0  0  0  0  0  0  0  0  0
    2.2131    3.5594   35.4173 O   0  0  0  0  0  0  0  0  0  0  0  0
    3.0064    1.3457   34.7919 C   0  0  2  0  0  0  0  0  0  0  0  0
    2.5134    0.1057   34.2900 O   0  0  0  0  0  0  0  0  0  0  0  0
    4.0877    1.0525   35.8830 C   0  0  1  0  0  0  0  0  0  0  0  0
    5.0533    2.1706   35.9638 N   0  3  0  0  0  0  0  0  0  0  0  0
    3.4474    0.7120   37.2544 C   0  0  1  0  0  0  0  0  0  0  0  0
    4.3955    0.6425   38.3477 O   0  0  0  0  0  0  0  0  0  0  0  0
    1.2594    1.6514   36.6080 C   0  0  1  0  0  0  0  0  0  0  0  0
    2.3598    1.6492   37.5582 O   0  0  0  0  0  0  0  0  0  0  0  0
    0.0537    2.4327   37.1629 C   0  0  0  0  0  0  0  0  0  0  0  0
   -0.2989    2.0345   38.5397 N   0  3  0  0  0  0  0  0  0  0  0  0
  1  2  1  1  0  0  0
  1  3  1  0  0  0  0
  1 10  1  0  0  0  0
  3  4  1  1  0  0  0
  3  5  1  0  0  0  0
  5  6  1  6  0  0  0
  5  7  1  0  0  0  0
  7  8  1  1  0  0  0
  7  9  1  0  0  0  0
  9 10  1  0  0  0  0
  9 11  1  6  0  0  0
 11 12  1  0  0  0  0
 13 14  1  6  0  0  0
 13 15  1  0  0  0  0
 13 22  1  0  0  0  0
 15 16  1  6  0  0  0
 15 17  1  0  0  0  0
 17 18  1  6  0  0  0
 17 19  1  0  0  0  0
 19  2  1  1  0  0  0
 19 20  1  0  0  0  0
 20 21  1  1  0  0  0
 20 22  1  0  0  0  0
 23 18  1  6  0  0  0
 23 24  1  0  0  0  0
 23 28  1  0  0  0  0
 24 25  1  1  0  0  0
 24 26  1  0  0  0  0
 26 27  1  0  0  0  0
 26 38  1  6  0  0  0
 27 28  1  0  0  0  0
 27 29  1  1  0  0  0
 29 30  1  0  0  0  0
 31 32  1  1  0  0  0
 31 33  1  0  0  0  0
 31 39  1  0  0  0  0
 33 34  1  1  0  0  0
 33 35  1  0  0  0  0
 35 36  1  1  0  0  0
 35 37  1  0  0  0  0
 37 38  1  1  0  0  0
 37 40  1  0  0  0  0
 39 40  1  0  0  0  0
 39 41  1  1  0  0  0
 41 42  1  0  0  0  0
M  CHG  5   4   1  14   1  21   1  36   1  42   1
M  END
>  <CHROM.1>
-163.72342480,97.47505981,-72.95801357,-152.42124668,-56.51158457,-70.31195177
56.44997712,-157.15768974,-51.56290399,-117.73924118,131.61288388,52.95801460
-45.47636245,88.32948258,171.00051234,-161.31455336,-76.94775851,147.15593854
69.20428123,-165.37631885,-170.46302373,-171.66514100,2.25307580,-0.35639433
41.40017438,-1.97146136,-1.10846017,-1.70802328

>  <Name>
1pbr

>  <RI>
0

>  <Rbt.Current_Directory>
/home/itssahil/PROJECTS/Mol_Feturizer/New_Systems/rnas/1pbr

>  <Rbt.Executable>
rbdock ($Id: //depot/dev/client3/rdock/2013.1/src/exe/rbdock.cxx#4 $)

>  <Rbt.Library>
libRbt.so (2013.1, Build901 2013/11/27)

>  <Rbt.Parameter_File>
/export/apps/rDock/src/rDock_2013.1_src/data/scripts/dock_solv.prm

>  <Rbt.Receptor>
prm/pocket_docking_2.prm

>  <SCORE>
-49.3273

>  <SCORE.INTER>
-49.9467

>  <SCORE.INTER.CONST>
1

>  <SCORE.INTER.POLAR>
-5.23657

>  <SCORE.INTER.ROT>
9

>  <SCORE.INTER.SOLV>
32.4321

>  <SCORE.INTER.VDW>
-36.2533

>  <SCORE.INTER.norm>
-1.18921

>  <SCORE.INTRA>
0.619355

>  <SCORE.INTRA.DIHEDRAL>
9.648

>  <SCORE.INTRA.DIHEDRAL.0>
29.7866

>  <SCORE.INTRA.POLAR>
-0.53741

>  <SCORE.INTRA.POLAR.0>
-0.984091

>  <SCORE.INTRA.REPUL>
-0.257089

>  <SCORE.INTRA.REPUL.0>
0.274115

>  <SCORE.INTRA.SOLV>
0.222603

>  <SCORE.INTRA.SOLV.lig_0>
-152.978

>  <SCORE.INTRA.VDW>
-1.20331

>  <SCORE.INTRA.VDW.0>
-6.10719

>  <SCORE.INTRA.norm>
0.0147465

>  <SCORE.RESTR>
0

>  <SCORE.RESTR.CAVITY>
0

>  <SCORE.RESTR.norm>
0

>  <SCORE.SYSTEM>
0

>  <SCORE.SYSTEM.CONST>
0

>  <SCORE.SYSTEM.DIHEDRAL>
0

>  <SCORE.SYSTEM.SOLV>
0

>  <SCORE.SYSTEM.norm>
0

>  <SCORE.heavy>
42

>  <SCORE.norm>
-1.17446

>  <RMSD>
0.700

$$$$
1pbr
 OpenBabel11021811403D
libRbt.so/2013.1/901 2013/11/27
 42 45  0  0  0  0  0  0  0  0999 V2000
    1.9892   -0.2772   44.3700 C   0  0  2  0  0  0  0  0  0  0  0  0
    2.0498   -1.7218   44.2578 O   0  0  0  0  0  0  0  0  0  0  0  0
    3.3362    0.2957   44.9493 C   0  0  2  0  0  0  0  0  0  0  0  0
    4.5622   -0.3462   44.4079 N   0  3  0  0  0  0  0  0  0  0  0  0
    3.4075    0.1389   46.4800 C   0  0  1  0  0  0  0  0  0  0  0  0
    4.4953    0.8895   47.0155 O   0  0  0  0  0  0  0  0  0  0  0  0
    2.0983    0.5931   47.1429 C   0  0  2  0  0  0  0  0  0  0  0  0
    2.1987    0.4821   48.5592 O   0  0  0  0  0  0  0  0  0  0  0  0
    0.8953   -0.1898   46.5717 C   0  0  2  0  0  0  0  0  0  0  0  0
    0.8319    0.1101   45.1613 O   0  0  0  0  0  0  0  0  0  0  0  0
   -0.4492    0.1855   47.1925 C   0  0  0  0  0  0  0  0  0  0  0  0
   -0.6146    1.5962   47.2490 O   0  0  0  0  0  0  0  0  0  0  0  0
    0.1895   -4.9245   42.1388 C   0  0  1  0  0  0  0  0  0  0  0  0
   -0.6702   -5.7886   41.3092 N   0  3  0  0  0  0  0  0  0  0  0  0
    0.9970   -3.9006   41.2849 C   0  0  2  0  0  0  0  0  0  0  0  0
    1.8227   -4.5803   40.3422 O   0  0  0  0  0  0  0  0  0  0  0  0
    1.9057   -3.0092   42.1812 C   0  0  1  0  0  0  0  0  0  0  0  0
    2.5008   -1.9677   41.3517 O   0  0  0  0  0  0  0  0  0  0  0  0
    1.1087   -2.3482   43.3530 C   0  0  1  0  0  0  0  0  0  0  0  0
    0.2609   -3.3777   44.1667 C   0  0  1  0  0  0  0  0  0  0  0  0
   -0.5576   -2.7105   45.2032 N   0  3  0  0  0  0  0  0  0  0  0  0
   -0.6577   -4.1966   43.2232 C   0  0  0  0  0  0  0  0  0  0  0  0
    3.9520   -1.9187   41.1686 C   0  0  1  0  0  0  0  0  0  0  0  0
    4.2559   -1.8189   39.6621 C   0  0  2  0  0  0  0  0  0  0  0  0
    5.5502   -2.3356   39.3656 O   0  0  0  0  0  0  0  0  0  0  0  0
    4.1884   -0.2924   39.5032 C   0  0  1  0  0  0  0  0  0  0  0  0
    4.9329    0.1957   40.7349 C   0  0  2  0  0  0  0  0  0  0  0  0
    4.4865   -0.7086   41.7337 O   0  0  0  0  0  0  0  0  0  0  0  0
    4.6307    1.6412   41.1508 C   0  0  0  0  0  0  0  0  0  0  0  0
    5.5987    2.0914   42.0871 O   0  0  0  0  0  0  0  0  0  0  0  0
    2.0519    2.8624   36.2151 C   0  0  1  0  0  0  0  0  0  0  0  0
    2.4011    4.0311   36.9546 O   0  0  0  0  0  0  0  0  0  0  0  0
    3.2897    2.3704   35.4141 C   0  0  2  0  0  0  0  0  0  0  0  0
    2.8481    1.4562   34.4132 O   0  0  0  0  0  0  0  0  0  0  0  0
    4.4082    1.6837   36.2644 C   0  0  1  0  0  0  0  0  0  0  0  0
    5.3184    2.7012   36.8348 N   0  3  0  0  0  0  0  0  0  0  0  0
    3.8163    0.7366   37.3412 C   0  0  1  0  0  0  0  0  0  0  0  0
    4.7908    0.2419   38.2923 O   0  0  0  0  0  0  0  0  0  0  0  0
    1.5703    1.7443   37.1735 C   0  0  1  0  0  0  0  0  0  0  0  0
    2.6903    1.3814   38.0266 O   0  0  0  0  0  0  0  0  0  0  0  0
    0.3398    2.1319   38.0146 C   0  0  0  0  0  0  0  0  0  0  0  0
    0.7023    2.6776   39.3373 N   0  3  0  0  0  0  0  0  0  0  0  0
  1  2  1  1  0  0  0
  1  3  1  0  0  0  0
  1 10  1  0  0  0  0
  3  4  1  6  0  0  0
  3  5  1  0  0  0  0
  5  6  1  1  0  0  0
  5  7  1  0  0  0  0
  7  8  1  1  0  0  0
  7  9  1  0  0  0  0
  9 10  1  0  0  0  0
  9 11  1  1  0  0  0
 11 12  1  0  0  0  0
 13 14  1  6  0  0  0
 13 15  1  0  0  0  0
 13 22  1  0  0  0  0
 15 16  1  6  0  0  0
 15 17  1  0  0  0  0
 17 18  1  6  0  0  0
 17 19  1  0  0  0  0
 19  2  1  1  0  0  0
 19 20  1  0  0  0  0
 20 21  1  1  0  0  0
 20 22  1  0  0  0  0
 23 18  1  6  0  0  0
 23 24  1  0  0  0  0
 23 28  1  0  0  0  0
 24 25  1  1  0  0  0
 24 26  1  0  0  0  0
 26 27  1  0  0  0  0
 26 38  1  6  0  0  0
 27 28  1  0  0  0  0
 27 29  1  1  0  0  0
 29 30  1  0  0  0  0
 31 32  1  1  0  0  0
 31 33  1  0  0  0  0
 31 39  1  0  0  0  0
 33 34  1  6  0  0  0
 33 35  1  0  0  0  0
 35 36  1  1  0  0  0
 35 37  1  0  0  0  0
 37 38  1  1  0  0  0
 37 40  1  0  0  0  0
 39 40  1  0  0  0  0
 39 41  1  1  0  0  0
 41 42  1  0  0  0  0
M  CHG  5   4   1  14   1  21   1  36   1  42   1
M  END
>  <CHROM.1>
-159.87424961,114.89521394,-63.26765241,-176.42651935,-56.60217807,47.34890378
74.92998082,81.26492619,63.81966092,-116.50458030,129.61330461,45.75272050
178.73041153,108.74889548,-165.84066289,71.87976981,172.18179739,60.97066741
-178.70299344,162.34183564,-93.73306705,80.60328685,2.47680975,-0.30921296
41.62292325,-2.12162391,-1.12914784,-1.78254797

>  <Name>
1pbr

>  <RI>
0

>  <Rbt.Current_Directory>
/home/itssahil/PROJECTS/Mol_Feturizer/New_Systems/rnas/1pbr

>  <Rbt.Executable>
rbdock ($Id: //depot/dev/client3/rdock/2013.1/src/exe/rbdock.cxx#4 $)

>  <Rbt.Library>
libRbt.so (2013.1, Build901 2013/11/27)

>  <Rbt.Parameter_File>
/export/apps/rDock/src/rDock_2013.1_src/data/scripts/dock_solv.prm

>  <Rbt.Receptor>
prm/pocket_docking_2.prm

>  <SCORE>
-55.1258

>  <SCORE.INTER>
-59.7783

>  <SCORE.INTER.CONST>
1

>  <SCORE.INTER.POLAR>
-7.63713

>  <SCORE.INTER.ROT>
9

>  <SCORE.INTER.SOLV>
35.8447

>  <SCORE.INTER.VDW>
-35.9434

>  <SCORE.INTER.norm>
-1.42329

>  <SCORE.INTRA>
4.4718

>  <SCORE.INTRA.DIHEDRAL>
10.8761

>  <SCORE.INTRA.DIHEDRAL.0>
29.7866

>  <SCORE.INTRA.POLAR>
-0.32516

>  <SCORE.INTRA.POLAR.0>
-0.984091

>  <SCORE.INTRA.REPUL>
-0.274115

>  <SCORE.INTRA.REPUL.0>
0.274115

>  <SCORE.INTRA.SOLV>
5.71177

>  <SCORE.INTRA.SOLV.lig_0>
-152.978

>  <SCORE.INTRA.VDW>
-1.346

>  <SCORE.INTRA.VDW.0>
-6.10719

>  <SCORE.INTRA.norm>
0.106471

>  <SCORE.RESTR>
0.180694

>  <SCORE.RESTR.CAVITY>
0.180694

>  <SCORE.RESTR.norm>
0.00430225

>  <SCORE.SYSTEM>
0

>  <SCORE.SYSTEM.CONST>
0

>  <SCORE.SYSTEM.DIHEDRAL>
0

>  <SCORE.SYSTEM.SOLV>
0

>  <SCORE.SYSTEM.norm>
0

>  <SCORE.heavy>
42

>  <SCORE.norm>
-1.31252

>  <RMSD>
0.702

$$$$
1pbr
 OpenBabel11021811403D
libRbt.so/2013.1/901 2013/11/27
 42 45  0  0  0  0  0  0  0  0999 V2000
    1.9726   -0.3260   44.0151 C   0  0  2  0  0  0  0  0  0  0  0  0
    1.6715   -1.7367   44.1651 O   0  0  0  0  0  0  0  0  0  0  0  0
    3.3127    0.0415   44.7548 C   0  0  2  0  0  0  0  0  0  0  0  0
    4.3988   -0.9602   44.5963 N   0  3  0  0  0  0  0  0  0  0  0  0
    3.0968    0.2070   46.2709 C   0  0  1  0  0  0  0  0  0  0  0  0
    4.2433    0.7921   46.8845 O   0  0  0  0  0  0  0  0  0  0  0  0
    1.8633    1.0753   46.5611 C   0  0  2  0  0  0  0  0  0  0  0  0
    1.7051    1.2531   47.9653 O   0  0  0  0  0  0  0  0  0  0  0  0
    0.6042    0.4776   45.8948 C   0  0  2  0  0  0  0  0  0  0  0  0
    0.8459    0.4723   44.4718 O   0  0  0  0  0  0  0  0  0  0  0  0
   -0.6768    1.2698   46.1506 C   0  0  0  0  0  0  0  0  0  0  0  0
   -1.1829    1.0233   47.4558 O   0  0  0  0  0  0  0  0  0  0  0  0
    0.5652   -4.9684   41.6077 C   0  0  1  0  0  0  0  0  0  0  0  0
   -0.0213   -5.8527   40.5841 N   0  3  0  0  0  0  0  0  0  0  0  0
    1.4773   -3.8683   40.9852 C   0  0  2  0  0  0  0  0  0  0  0  0
    2.5409   -4.4636   40.2456 O   0  0  0  0  0  0  0  0  0  0  0  0
    2.0944   -2.9563   42.0857 C   0  0  1  0  0  0  0  0  0  0  0  0
    2.7935   -1.8523   41.4380 O   0  0  0  0  0  0  0  0  0  0  0  0
    1.0073   -2.3861   43.0544 C   0  0  1  0  0  0  0  0  0  0  0  0
    0.0657   -3.4927   43.6283 C   0  0  1  0  0  0  0  0  0  0  0  0
   -1.0117   -2.9129   44.4606 N   0  3  0  0  0  0  0  0  0  0  0  0
   -0.5549   -4.3314   42.4812 C   0  0  0  0  0  0  0  0  0  0  0  0
    4.2080   -1.9874   41.0878 C   0  0  1  0  0  0  0  0  0  0  0  0
    4.3725   -1.7069   39.5824 C   0  0  2  0  0  0  0  0  0  0  0  0
    5.5305   -2.3555   39.0643 O   0  0  0  0  0  0  0  0  0  0  0  0
    4.5363   -0.1805   39.6381 C   0  0  1  0  0  0  0  0  0  0  0  0
    5.4686    0.0032   40.8241 C   0  0  2  0  0  0  0  0  0  0  0  0
    4.9842   -0.9669   41.7401 O   0  0  0  0  0  0  0  0  0  0  0  0
    5.4463    1.3978   41.4630 C   0  0  0  0  0  0  0  0  0  0  0  0
    6.6415    1.6164   42.1979 O   0  0  0  0  0  0  0  0  0  0  0  0
    2.5520    2.9444   36.0082 C   0  0  1  0  0  0  0  0  0  0  0  0
    3.2035    4.1660   36.3518 O   0  0  0  0  0  0  0  0  0  0  0  0
    3.5507    2.0219   35.2550 C   0  0  2  0  0  0  0  0  0  0  0  0
    2.8122    0.9930   34.6002 O   0  0  0  0  0  0  0  0  0  0  0  0
    4.6538    1.3608   36.1449 C   0  0  1  0  0  0  0  0  0  0  0  0
    5.7998    2.2814   36.3122 N   0  3  0  0  0  0  0  0  0  0  0  0
    4.0823    0.8615   37.4980 C   0  0  1  0  0  0  0  0  0  0  0  0
    5.0932    0.4370   38.4452 O   0  0  0  0  0  0  0  0  0  0  0  0
    2.0409    2.2307   37.2850 C   0  0  1  0  0  0  0  0  0  0  0  0
    3.2007    1.8761   38.0868 O   0  0  0  0  0  0  0  0  0  0  0  0
    1.0377    3.0635   38.1049 C   0  0  0  0  0  0  0  0  0  0  0  0
   -0.3665    2.7270   37.7994 N   0  3  0  0  0  0  0  0  0  0  0  0
  1  2  1  1  0  0  0
  1  3  1  0  0  0  0
  1 10  1  0  0  0  0
  3  4  1  1  0  0  0
  3  5  1  0  0  0  0
  5  6  1  6  0  0  0
  5  7  1  0  0  0  0
  7  8  1  1  0  0  0
  7  9  1  0  0  0  0
  9 10  1  0  0  0  0
  9 11  1  6  0  0  0
 11 12  1  0  0  0  0
 13 14  1  6  0  0  0
 13 15  1  0  0  0  0
 13 22  1  0  0  0  0
 15 16  1  1  0  0  0
 15 17  1  0  0  0  0
 17 18  1  6  0  0  0
 17 19  1  0  0  0  0
 19  2  1  1  0  0  0
 19 20  1  0  0  0  0
 20 21  1  6  0  0  0
 20 22  1  0  0  0  0
 23 18  1  1  0  0  0
 23 24  1  0  0  0  0
 23 28  1  0  0  0  0
 24 25  1  1  0  0  0
 24 26  1  0  0  0  0
 26 27  1  0  0  0  0
 26 38  1  6  0  0  0
 27 28  1  0  0  0  0
 27 29  1  1  0  0  0
 29 30  1  0  0  0  0
 31 32  1  1  0  0  0
 31 33  1  0  0  0  0
 31 39  1  0  0  0  0
 33 34  1  1  0  0  0
 33 35  1  0  0  0  0
 35 36  1  1  0  0  0
 35 37  1  0  0  0  0
 37 38  1  1  0  0  0
 37 40  1  0  0  0  0
 39 40  1  0  0  0  0
 39 41  1  1  0  0  0
 41 42  1  0  0  0  0
M  CHG  5   4   1  14   1  21   1  36   1  42   1
M  END
>  <CHROM.1>
-146.46846616,90.11025837,-174.87070289,62.16106159,-60.37846669,-77.25106368
-140.92216546,60.49760797,174.32894416,-90.01608281,124.35969289,101.50715168
-56.70714651,91.56096300,-158.87667452,-80.40780812,57.79460761,-54.63556633
32.36367434,-172.79847257,96.26705100,178.40052931,2.61745157,-0.28425662
41.37400805,-2.33955607,-1.16061220,-2.01098414

>  <Name>
1pbr

>  <RI>
0

>  <Rbt.Current_Directory>
/home/itssahil/PROJECTS/Mol_Feturizer/New_Systems/rnas/1pbr

>  <Rbt.Executable>
rbdock ($Id: //depot/dev/client3/rdock/2013.1/src/exe/rbdock.cxx#4 $)

>  <Rbt.Library>
libRbt.so (2013.1, Build901 2013/11/27)

>  <Rbt.Parameter_File>
/export/apps/rDock/src/rDock_2013.1_src/data/scripts/dock_solv.prm

>  <Rbt.Receptor>
prm/pocket_docking_2.prm

>  <SCORE>
-48.5843

>  <SCORE.INTER>
-52.7073

>  <SCORE.INTER.CONST>
1

>  <SCORE.INTER.POLAR>
-6.30823

>  <SCORE.INTER.ROT>
9

>  <SCORE.INTER.SOLV>
32.7179

>  <SCORE.INTER.VDW>
-34.6167

>  <SCORE.INTER.norm>
-1.25494

>  <SCORE.INTRA>
3.2852

>  <SCORE.INTRA.DIHEDRAL>
11.4628

>  <SCORE.INTRA.DIHEDRAL.0>
29.7866

>  <SCORE.INTRA.POLAR>
-0.290918

>  <SCORE.INTRA.POLAR.0>
-0.984091

>  <SCORE.INTRA.REPUL>
-0.274115

>  <SCORE.INTRA.REPUL.0>
0.274115

>  <SCORE.INTRA.SOLV>
-1.5872

>  <SCORE.INTRA.SOLV.lig_0>
-152.978

>  <SCORE.INTRA.VDW>
0.707105

>  <SCORE.INTRA.VDW.0>
-6.10719

>  <SCORE.INTRA.norm>
0.0782191

>  <SCORE.RESTR>
0.837786

>  <SCORE.RESTR.CAVITY>
0.837786

>  <SCORE.RESTR.norm>
0.0199473

>  <SCORE.SYSTEM>
0

>  <SCORE.SYSTEM.CONST>
0

>  <SCORE.SYSTEM.DIHEDRAL>
0

>  <SCORE.SYSTEM.SOLV>
0

>  <SCORE.SYSTEM.norm>
0

>  <SCORE.heavy>
42

>  <SCORE.norm>
-1.15677

>  <RMSD>
0.745

$$$$
1pbr
 OpenBabel11021811403D
libRbt.so/2013.1/901 2013/11/27
 42 45  0  0  0  0  0  0  0  0999 V2000
    1.6824   -0.2176   44.1185 C   0  0  2  0  0  0  0  0  0  0  0  0
    1.5359   -1.6538   44.2570 O   0  0  0  0  0  0  0  0  0  0  0  0
    2.9869    0.2839   44.8433 C   0  0  2  0  0  0  0  0  0  0  0  0
    4.1711   -0.5945   44.6581 N   0  3  0  0  0  0  0  0  0  0  0  0
    2.7777    0.4107   46.3641 C   0  0  1  0  0  0  0  0  0  0  0  0
    3.8645    1.1090   46.9679 O   0  0  0  0  0  0  0  0  0  0  0  0
    1.4632    1.1393   46.6815 C   0  0  2  0  0  0  0  0  0  0  0  0
    1.3085    1.2856   48.0896 O   0  0  0  0  0  0  0  0  0  0  0  0
    0.2650    0.4170   46.0264 C   0  0  2  0  0  0  0  0  0  0  0  0
    0.4841    0.4513   44.6001 O   0  0  0  0  0  0  0  0  0  0  0  0
   -1.0891    1.0652   46.3092 C   0  0  0  0  0  0  0  0  0  0  0  0
   -1.3812    1.0621   47.7003 O   0  0  0  0  0  0  0  0  0  0  0  0
    0.2669   -4.9660   41.8850 C   0  0  1  0  0  0  0  0  0  0  0  0
   -0.3875   -5.8835   40.9342 N   0  3  0  0  0  0  0  0  0  0  0  0
    1.1219   -3.8802   41.1642 C   0  0  2  0  0  0  0  0  0  0  0  0
    2.1320   -4.4916   40.3652 O   0  0  0  0  0  0  0  0  0  0  0  0
    1.8122   -2.9325   42.1885 C   0  0  1  0  0  0  0  0  0  0  0  0
    2.4529   -1.8446   41.4584 O   0  0  0  0  0  0  0  0  0  0  0  0
    0.7959   -2.3395   43.2183 C   0  0  1  0  0  0  0  0  0  0  0  0
   -0.0922   -3.4334   43.8930 C   0  0  1  0  0  0  0  0  0  0  0  0
   -1.1089   -2.8348   44.7859 N   0  3  0  0  0  0  0  0  0  0  0  0
   -0.7900   -4.3092   42.8205 C   0  0  0  0  0  0  0  0  0  0  0  0
    3.9091   -1.8184   41.3147 C   0  0  1  0  0  0  0  0  0  0  0  0
    4.2546   -1.6469   39.8236 C   0  0  2  0  0  0  0  0  0  0  0  0
    5.5452   -2.1761   39.5330 O   0  0  0  0  0  0  0  0  0  0  0  0
    4.2232   -0.1131   39.7438 C   0  0  1  0  0  0  0  0  0  0  0  0
    4.9450    0.2935   41.0178 C   0  0  2  0  0  0  0  0  0  0  0  0
    4.4538   -0.6515   41.9561 O   0  0  0  0  0  0  0  0  0  0  0  0
    4.6622    1.7217   41.5017 C   0  0  0  0  0  0  0  0  0  0  0  0
    5.6726    2.1380   42.4084 O   0  0  0  0  0  0  0  0  0  0  0  0
    2.2502    2.8823   36.1265 C   0  0  1  0  0  0  0  0  0  0  0  0
    2.6099    4.1233   36.7308 O   0  0  0  0  0  0  0  0  0  0  0  0
    3.4951    2.2706   35.4253 C   0  0  2  0  0  0  0  0  0  0  0  0
    3.0562    1.2528   34.5286 O   0  0  0  0  0  0  0  0  0  0  0  0
    4.5740    1.6663   36.3828 C   0  0  1  0  0  0  0  0  0  0  0  0
    5.4948    2.7245   36.8532 N   0  3  0  0  0  0  0  0  0  0  0  0
    3.9310    0.8686   37.5477 C   0  0  1  0  0  0  0  0  0  0  0  0
    4.8682    0.4702   38.5783 O   0  0  0  0  0  0  0  0  0  0  0  0
    1.7163    1.8981   37.1975 C   0  0  1  0  0  0  0  0  0  0  0  0
    2.8046    1.6156   38.1191 O   0  0  0  0  0  0  0  0  0  0  0  0
    0.4749    2.4110   37.9512 C   0  0  0  0  0  0  0  0  0  0  0  0
   -0.2850    3.4151   37.1813 N   0  3  0  0  0  0  0  0  0  0  0  0
  1  2  1  1  0  0  0
  1  3  1  0  0  0  0
  1 10  1  0  0  0  0
  3  4  1  1  0  0  0
  3  5  1  0  0  0  0
  5  6  1  6  0  0  0
  5  7  1  0  0  0  0
  7  8  1  1  0  0  0
  7  9  1  0  0  0  0
  9 10  1  0  0  0  0
  9 11  1  6  0  0  0
 11 12  1  0  0  0  0
 13 14  1  6  0  0  0
 13 15  1  0  0  0  0
 13 22  1  0  0  0  0
 15 16  1  1  0  0  0
 15 17  1  0  0  0  0
 17 18  1  6  0  0  0
 17 19  1  0  0  0  0
 19  2  1  1  0  0  0
 19 20  1  0  0  0  0
 20 21  1  6  0  0  0
 20 22  1  0  0  0  0
 23 18  1  6  0  0  0
 23 24  1  0  0  0  0
 23 28  1  0  0  0  0
 24 25  1  1  0  0  0
 24 26  1  0  0  0  0
 26 27  1  0  0  0  0
 26 38  1  6  0  0  0
 27 28  1  0  0  0  0
 27 29  1  1  0  0  0
 29 30  1  0  0  0  0
 31 32  1  1  0  0  0
 31 33  1  0  0  0  0
 31 39  1  0  0  0  0
 33 34  1  6  0  0  0
 33 35  1  0  0  0  0
 35 36  1  1  0  0  0
 35 37  1  0  0  0  0
 37 38  1  1  0  0  0
 37 40  1  0  0  0  0
 39 40  1  0  0  0  0
 39 41  1  1  0  0  0
 41 42  1  0  0  0  0
M  CHG  5   4   1  14   1  21   1  36   1  42   1
M  END
>  <CHROM.1>
-153.15804808,96.96127622,-78.14022181,-167.05401787,-48.79017086,-61.66036509
54.04575762,71.66379077,64.74936313,-106.11968411,128.09107481,-21.73011982
178.08441734,100.73636365,-161.42858876,76.94318143,-75.88521644,-62.91728230
-172.19782843,172.09031030,23.85277223,-63.48556743,2.31715312,-0.18563772
41.51786624,-2.37912593,-1.17824655,-2.03928148

>  <Name>
1pbr

>  <RI>
0

>  <Rbt.Current_Directory>
/home/itssahil/PROJECTS/Mol_Feturizer/New_Systems/rnas/1pbr

>  <Rbt.Executable>
rbdock ($Id: //depot/dev/client3/rdock/2013.1/src/exe/rbdock.cxx#4 $)

>  <Rbt.Library>
libRbt.so (2013.1, Build901 2013/11/27)

>  <Rbt.Parameter_File>
/export/apps/rDock/src/rDock_2013.1_src/data/scripts/dock_solv.prm

>  <Rbt.Receptor>
prm/pocket_docking_2.prm

>  <SCORE>
-50.6708

>  <SCORE.INTER>
-53.7712

>  <SCORE.INTER.CONST>
1

>  <SCORE.INTER.POLAR>
-5.96463

>  <SCORE.INTER.ROT>
9

>  <SCORE.INTER.SOLV>
32.199

>  <SCORE.INTER.VDW>
-36.2984

>  <SCORE.INTER.norm>
-1.28027

>  <SCORE.INTRA>
2.59837

>  <SCORE.INTRA.DIHEDRAL>
10.2746

>  <SCORE.INTRA.DIHEDRAL.0>
29.7866

>  <SCORE.INTRA.POLAR>
-0.811227

>  <SCORE.INTRA.POLAR.0>
-0.984091

>  <SCORE.INTRA.REPUL>
-0.267472

>  <SCORE.INTRA.REPUL.0>
0.274115

>  <SCORE.INTRA.SOLV>
2.58691

>  <SCORE.INTRA.SOLV.lig_0>
-152.978

>  <SCORE.INTRA.VDW>
0.263146

>  <SCORE.INTRA.VDW.0>
-6.10719

>  <SCORE.INTRA.norm>
0.0618659

>  <SCORE.RESTR>
0.502069

>  <SCORE.RESTR.CAVITY>
0.502069

>  <SCORE.RESTR.norm>
0.011954

>  <SCORE.SYSTEM>
0

>  <SCORE.SYSTEM.CONST>
0

>  <SCORE.SYSTEM.DIHEDRAL>
0

>  <SCORE.SYSTEM.SOLV>
0

>  <SCORE.SYSTEM.norm>
0

>  <SCORE.heavy>
42

>  <SCORE.norm>
-1.20645

>  <RMSD>
0.752

$$$$
1pbr
 OpenBabel11021811403D
libRbt.so/2013.1/901 2013/11/27
 42 45  0  0  0  0  0  0  0  0999 V2000
    2.1265   -0.3378   44.2753 C   0  0  2  0  0  0  0  0  0  0  0  0
    2.0675   -1.7860   44.3243 O   0  0  0  0  0  0  0  0  0  0  0  0
    3.3554    0.2001   45.0993 C   0  0  2  0  0  0  0  0  0  0  0  0
    4.6028   -0.5900   44.9319 N   0  3  0  0  0  0  0  0  0  0  0  0
    3.0588    0.2225   46.6106 C   0  0  1  0  0  0  0  0  0  0  0  0
    4.0642    0.9500   47.3129 O   0  0  0  0  0  0  0  0  0  0  0  0
    1.6844    0.8474   46.8941 C   0  0  2  0  0  0  0  0  0  0  0  0
    1.4467    0.8994   48.2973 O   0  0  0  0  0  0  0  0  0  0  0  0
    0.5723    0.0920   46.1330 C   0  0  2  0  0  0  0  0  0  0  0  0
    0.8633    0.2251   44.7256 O   0  0  0  0  0  0  0  0  0  0  0  0
   -0.8345    0.6364   46.3753 C   0  0  0  0  0  0  0  0  0  0  0  0
   -0.8360    1.6223   47.3992 O   0  0  0  0  0  0  0  0  0  0  0  0
    0.3572   -5.0301   42.1430 C   0  0  1  0  0  0  0  0  0  0  0  0
   -0.4580   -5.9155   41.2913 N   0  3  0  0  0  0  0  0  0  0  0  0
    1.1387   -3.9675   41.3124 C   0  0  2  0  0  0  0  0  0  0  0  0
    2.0024   -4.6057   40.3747 O   0  0  0  0  0  0  0  0  0  0  0  0
    2.0009   -3.0538   42.2318 C   0  0  1  0  0  0  0  0  0  0  0  0
    2.5691   -1.9818   41.4226 O   0  0  0  0  0  0  0  0  0  0  0  0
    1.1633   -2.4360   43.3988 C   0  0  1  0  0  0  0  0  0  0  0  0
    0.3423   -3.5051   44.1885 C   0  0  1  0  0  0  0  0  0  0  0  0
   -0.5151   -2.8803   45.2200 N   0  3  0  0  0  0  0  0  0  0  0  0
   -0.5318   -4.3463   43.2226 C   0  0  0  0  0  0  0  0  0  0  0  0
    4.0129   -1.9285   41.1891 C   0  0  1  0  0  0  0  0  0  0  0  0
    4.2618   -1.4537   39.7453 C   0  0  2  0  0  0  0  0  0  0  0  0
    5.5221   -1.9134   39.2652 O   0  0  0  0  0  0  0  0  0  0  0  0
    4.2487    0.0636   39.9849 C   0  0  1  0  0  0  0  0  0  0  0  0
    5.0593    0.1977   41.2635 C   0  0  2  0  0  0  0  0  0  0  0  0
    4.6166   -0.9199   42.0183 O   0  0  0  0  0  0  0  0  0  0  0  0
    4.8311    1.4957   42.0487 C   0  0  0  0  0  0  0  0  0  0  0  0
    3.4419    1.6988   42.2615 O   0  0  0  0  0  0  0  0  0  0  0  0
    2.3398    2.4787   35.7714 C   0  0  1  0  0  0  0  0  0  0  0  0
    2.5629    3.8461   36.1108 O   0  0  0  0  0  0  0  0  0  0  0  0
    3.6837    1.8294   35.3381 C   0  0  2  0  0  0  0  0  0  0  0  0
    3.3993    0.6092   34.6578 O   0  0  0  0  0  0  0  0  0  0  0  0
    4.6906    1.5357   36.4981 C   0  0  1  0  0  0  0  0  0  0  0  0
    5.4953    2.7404   36.7982 N   0  3  0  0  0  0  0  0  0  0  0  0
    3.9775    0.9626   37.7511 C   0  0  1  0  0  0  0  0  0  0  0  0
    4.8242    0.8738   38.9233 O   0  0  0  0  0  0  0  0  0  0  0  0
    1.7553    1.7125   36.9847 C   0  0  1  0  0  0  0  0  0  0  0  0
    2.7568    1.7247   38.0385 O   0  0  0  0  0  0  0  0  0  0  0  0
    0.4151    2.2774   37.4914 C   0  0  0  0  0  0  0  0  0  0  0  0
    0.4624    3.7339   37.7255 N   0  3  0  0  0  0  0  0  0  0  0  0
  1  2  1  1  0  0  0
  1  3  1  0  0  0  0
  1 10  1  0  0  0  0
  3  4  1  1  0  0  0
  3  5  1  0  0  0  0
  5  6  1  1  0  0  0
  5  7  1  0  0  0  0
  7  8  1  1  0  0  0
  7  9  1  0  0  0  0
  9 10  1  0  0  0  0
  9 11  1  6  0  0  0
 11 12  1  0  0  0  0
 13 14  1  6  0  0  0
 13 15  1  0  0  0  0
 13 22  1  0  0  0  0
 15 16  1  6  0  0  0
 15 17  1  0  0  0  0
 17 18  1  6  0  0  0
 17 19  1  0  0  0  0
 19  2  1  1  0  0  0
 19 20  1  0  0  0  0
 20 21  1  1  0  0  0
 20 22  1  0  0  0  0
 23 18  1  1  0  0  0
 23 24  1  0  0  0  0
 23 28  1  0  0  0  0
 24 25  1  1  0  0  0
 24 26  1  0  0  0  0
 26 27  1  0  0  0  0
 26 38  1  6  0  0  0
 27 28  1  0  0  0  0
 27 29  1  1  0  0  0
 29 30  1  0  0  0  0
 31 32  1  1  0  0  0
 31 33  1  0  0  0  0
 31 39  1  0  0  0  0
 33 34  1  1  0  0  0
 33 35  1  0  0  0  0
 35 36  1  1  0  0  0
 35 37  1  0  0  0  0
 37 38  1  1  0  0  0
 37 40  1  0  0  0  0
 39 40  1  0  0  0  0
 39 41  1  1  0  0  0
 41 42  1  0  0  0  0
M  CHG  5   4   1  14   1  21   1  36   1  42   1
M  END
>  <CHROM.1>
-167.73447000,103.89430399,39.14587747,-61.61268679,63.96675336,-7.80549913
-55.75917865,76.57449844,62.76202578,-112.47957181,142.35164064,51.17251977
178.32132378,73.80339726,51.48035503,179.85851795,61.43324247,62.56213050
71.27251133,-166.68527009,-50.88920131,-85.51209195,2.44637824,-0.28065166
41.60412282,-2.34049968,-1.23130364,-2.01906629

>  <Name>
1pbr

>  <RI>
0

>  <Rbt.Current_Directory>
/home/itssahil/PROJECTS/Mol_Feturizer/New_Systems/rnas/1pbr

>  <Rbt.Executable>
rbdock ($Id: //depot/dev/client3/rdock/2013.1/src/exe/rbdock.cxx#4 $)

>  <Rbt.Library>
libRbt.so (2013.1, Build901 2013/11/27)

>  <Rbt.Parameter_File>
/export/apps/rDock/src/rDock_2013.1_src/data/scripts/dock_solv.prm

>  <Rbt.Receptor>
prm/pocket_docking_2.prm

>  <SCORE>
-60.5817

>  <SCORE.INTER>
-57.0707

>  <SCORE.INTER.CONST>
1

>  <SCORE.INTER.POLAR>
-7.13208

>  <SCORE.INTER.ROT>
9

>  <SCORE.INTER.SOLV>
30.9757

>  <SCORE.INTER.VDW>
-34.1988

>  <SCORE.INTER.norm>
-1.35883

>  <SCORE.INTRA>
-3.81036

>  <SCORE.INTRA.DIHEDRAL>
0.696799

>  <SCORE.INTRA.DIHEDRAL.0>
29.7866

>  <SCORE.INTRA.POLAR>
-1.47686

>  <SCORE.INTRA.POLAR.0>
-0.984091

>  <SCORE.INTRA.REPUL>
-0.274115

>  <SCORE.INTRA.REPUL.0>
0.274115

>  <SCORE.INTRA.SOLV>
5.94573

>  <SCORE.INTRA.SOLV.lig_0>
-152.978

>  <SCORE.INTRA.VDW>
-0.739709

>  <SCORE.INTRA.VDW.0>
-6.10719

>  <SCORE.INTRA.norm>
-0.0907228

>  <SCORE.RESTR>
0.29938

>  <SCORE.RESTR.CAVITY>
0.29938

>  <SCORE.RESTR.norm>
0.00712809

>  <SCORE.SYSTEM>
0

>  <SCORE.SYSTEM.CONST>
0

>  <SCORE.SYSTEM.DIHEDRAL>
0

>  <SCORE.SYSTEM.SOLV>
0

>  <SCORE.SYSTEM.norm>
0

>  <SCORE.heavy>
42

>  <SCORE.norm>
-1.44242

>  <RMSD>
0.779

$$$$
1pbr
 OpenBabel11021811403D
libRbt.so/2013.1/901 2013/11/27
 42 45  0  0  0  0  0  0  0  0999 V2000
    2.0803   -0.2945   44.1169 C   0  0  2  0  0  0  0  0  0  0  0  0
    2.0872   -1.7447   44.1126 O   0  0  0  0  0  0  0  0  0  0  0  0
    3.3669    0.2688   44.8279 C   0  0  2  0  0  0  0  0  0  0  0  0
    4.6210   -0.4567   44.4975 N   0  3  0  0  0  0  0  0  0  0  0  0
    3.2335    0.2229   46.3617 C   0  0  1  0  0  0  0  0  0  0  0  0
    4.2773    0.9697   46.9831 O   0  0  0  0  0  0  0  0  0  0  0  0
    1.8727    0.7735   46.8141 C   0  0  2  0  0  0  0  0  0  0  0  0
    1.7849    0.7637   48.2355 O   0  0  0  0  0  0  0  0  0  0  0  0
    0.7178   -0.0039   46.1444 C   0  0  2  0  0  0  0  0  0  0  0  0
    0.8503    0.1932   44.7208 O   0  0  0  0  0  0  0  0  0  0  0  0
   -0.6763    0.4663   46.5559 C   0  0  0  0  0  0  0  0  0  0  0  0
   -0.8829    0.3046   47.9530 O   0  0  0  0  0  0  0  0  0  0  0  0
    0.1814   -5.0162   42.1447 C   0  0  1  0  0  0  0  0  0  0  0  0
   -0.6980   -5.9080   41.3667 N   0  3  0  0  0  0  0  0  0  0  0  0
    0.9579   -4.0144   41.2375 C   0  0  2  0  0  0  0  0  0  0  0  0
    1.7588   -4.7180   40.2909 O   0  0  0  0  0  0  0  0  0  0  0  0
    1.8882   -3.0932   42.0798 C   0  0  1  0  0  0  0  0  0  0  0  0
    2.4530   -2.0740   41.2027 O   0  0  0  0  0  0  0  0  0  0  0  0
    1.1230   -2.4015   43.2550 C   0  0  1  0  0  0  0  0  0  0  0  0
    0.3050   -3.4102   44.1234 C   0  0  1  0  0  0  0  0  0  0  0  0
   -0.4858   -2.7164   45.1639 N   0  3  0  0  0  0  0  0  0  0  0  0
   -0.6369   -4.2604   43.2321 C   0  0  0  0  0  0  0  0  0  0  0  0
    3.8382   -1.6384   41.3850 C   0  0  1  0  0  0  0  0  0  0  0  0
    4.5087   -1.5350   40.0023 C   0  0  2  0  0  0  0  0  0  0  0  0
    5.9212   -1.6915   40.1052 O   0  0  0  0  0  0  0  0  0  0  0  0
    4.1071   -0.0955   39.6468 C   0  0  1  0  0  0  0  0  0  0  0  0
    4.3381    0.6393   40.9569 C   0  0  2  0  0  0  0  0  0  0  0  0
    3.8763   -0.3013   41.9143 O   0  0  0  0  0  0  0  0  0  0  0  0
    3.5813    1.9656   41.1044 C   0  0  0  0  0  0  0  0  0  0  0  0
    2.2407    1.7201   41.5030 O   0  0  0  0  0  0  0  0  0  0  0  0
    2.9178    3.3704   35.9661 C   0  0  1  0  0  0  0  0  0  0  0  0
    3.6539    4.4998   36.4322 O   0  0  0  0  0  0  0  0  0  0  0  0
    3.8912    2.3624   35.2937 C   0  0  2  0  0  0  0  0  0  0  0  0
    3.1270    1.4433   34.5168 O   0  0  0  0  0  0  0  0  0  0  0  0
    4.8029    1.5552   36.2751 C   0  0  1  0  0  0  0  0  0  0  0  0
    6.0150    2.3346   36.6100 N   0  3  0  0  0  0  0  0  0  0  0  0
    4.0248    1.0854   37.5323 C   0  0  1  0  0  0  0  0  0  0  0  0
    4.8646    0.5219   38.5699 O   0  0  0  0  0  0  0  0  0  0  0  0
    2.1848    2.6830   37.1455 C   0  0  1  0  0  0  0  0  0  0  0  0
    3.1963    2.1762   38.0587 O   0  0  0  0  0  0  0  0  0  0  0  0
    1.1892    3.6003   37.8799 C   0  0  0  0  0  0  0  0  0  0  0  0
    0.2365    2.8498   38.7212 N   0  3  0  0  0  0  0  0  0  0  0  0
  1  2  1  1  0  0  0
  1  3  1  0  0  0  0
  1 10  1  0  0  0  0
  3  4  1  1  0  0  0
  3  5  1  0  0  0  0
  5  6  1  1  0  0  0
  5  7  1  0  0  0  0
  7  8  1  1  0  0  0
  7  9  1  0  0  0  0
  9 10  1  0  0  0  0
  9 11  1  1  0  0  0
 11 12  1  0  0  0  0
 13 14  1  6  0  0  0
 13 15  1  0  0  0  0
 13 22  1  0  0  0  0
 15 16  1  6  0  0  0
 15 17  1  0  0  0  0
 17 18  1  6  0  0  0
 17 19  1  0  0  0  0
 19  2  1  1  0  0  0
 19 20  1  0  0  0  0
 20 21  1  1  0  0  0
 20 22  1  0  0  0  0
 23 18  1  6  0  0  0
 23 24  1  0  0  0  0
 23 28  1  0  0  0  0
 24 25  1  1  0  0  0
 24 26  1  0  0  0  0
 26 27  1  0  0  0  0
 26 38  1  6  0  0  0
 27 28  1  0  0  0  0
 27 29  1  6  0  0  0
 29 30  1  0  0  0  0
 31 32  1  1  0  0  0
 31 33  1  0  0  0  0
 31 39  1  0  0  0  0
 33 34  1  1  0  0  0
 33 35  1  0  0  0  0
 35 36  1  1  0  0  0
 35 37  1  0  0  0  0
 37 38  1  1  0  0  0
 37 40  1  0  0  0  0
 39 40  1  0  0  0  0
 39 41  1  1  0  0  0
 41 42  1  0  0  0  0
M  CHG  5   4   1  14   1  21   1  36   1  42   1
M  END
>  <CHROM.1>
-167.32191348,110.96254432,169.73607824,-164.41752559,-53.77398926,-61.24147752
57.17915716,-150.05486202,61.79670292,-142.30113953,136.51673634,-78.29655895
178.77119580,128.09542116,81.11344409,-174.87653085,164.58637043,-177.66554764
135.97560358,-171.18234743,163.42939122,-77.25348927,2.44618360,-0.18885565
41.56481981,-2.44002155,-1.20070544,-2.03051650

>  <Name>
1pbr

>  <RI>
0

>  <Rbt.Current_Directory>
/home/itssahil/PROJECTS/Mol_Feturizer/New_Systems/rnas/1pbr

>  <Rbt.Executable>
rbdock ($Id: //depot/dev/client3/rdock/2013.1/src/exe/rbdock.cxx#4 $)

>  <Rbt.Library>
libRbt.so (2013.1, Build901 2013/11/27)

>  <Rbt.Parameter_File>
/export/apps/rDock/src/rDock_2013.1_src/data/scripts/dock_solv.prm

>  <Rbt.Receptor>
prm/pocket_docking_2.prm

>  <SCORE>
-48.6939

>  <SCORE.INTER>
-51.655

>  <SCORE.INTER.CONST>
1

>  <SCORE.INTER.POLAR>
-6.31392

>  <SCORE.INTER.ROT>
9

>  <SCORE.INTER.SOLV>
33.4323

>  <SCORE.INTER.VDW>
-34.1344

>  <SCORE.INTER.norm>
-1.22988

>  <SCORE.INTRA>
2.15497

>  <SCORE.INTRA.DIHEDRAL>
8.1489

>  <SCORE.INTRA.DIHEDRAL.0>
29.7866

>  <SCORE.INTRA.POLAR>
-0.525751

>  <SCORE.INTRA.POLAR.0>
-0.984091

>  <SCORE.INTRA.REPUL>
-0.274115

>  <SCORE.INTRA.REPUL.0>
0.274115

>  <SCORE.INTRA.SOLV>
4.58966

>  <SCORE.INTRA.SOLV.lig_0>
-152.978

>  <SCORE.INTRA.VDW>
-1.05618

>  <SCORE.INTRA.VDW.0>
-6.10719

>  <SCORE.INTRA.norm>
0.0513088

>  <SCORE.RESTR>
0.806161

>  <SCORE.RESTR.CAVITY>
0.806161

>  <SCORE.RESTR.norm>
0.0191943

>  <SCORE.SYSTEM>
0

>  <SCORE.SYSTEM.CONST>
0

>  <SCORE.SYSTEM.DIHEDRAL>
0

>  <SCORE.SYSTEM.SOLV>
0

>  <SCORE.SYSTEM.norm>
0

>  <SCORE.heavy>
42

>  <SCORE.norm>
-1.15938

>  <RMSD>
0.780

$$$$
1pbr
 OpenBabel11021811403D
libRbt.so/2013.1/901 2013/11/27
 42 45  0  0  0  0  0  0  0  0999 V2000
    2.4266   -0.4101   44.1333 C   0  0  2  0  0  0  0  0  0  0  0  0
    2.2017   -1.8376   44.2554 O   0  0  0  0  0  0  0  0  0  0  0  0
    3.7584    0.0104   44.8597 C   0  0  2  0  0  0  0  0  0  0  0  0
    4.8922   -0.9295   44.6607 N   0  3  0  0  0  0  0  0  0  0  0  0
    3.5603    0.1305   46.3826 C   0  0  1  0  0  0  0  0  0  0  0  0
    4.6853    0.7608   46.9911 O   0  0  0  0  0  0  0  0  0  0  0  0
    2.2886    0.9264   46.7125 C   0  0  2  0  0  0  0  0  0  0  0  0
    2.1456    1.0644   48.1228 O   0  0  0  0  0  0  0  0  0  0  0  0
    1.0510    0.2788   46.0528 C   0  0  2  0  0  0  0  0  0  0  0  0
    1.2681    0.3179   44.6263 O   0  0  0  0  0  0  0  0  0  0  0  0
   -0.2649    0.9971   46.3473 C   0  0  0  0  0  0  0  0  0  0  0  0
   -1.2396    0.7152   45.3519 O   0  0  0  0  0  0  0  0  0  0  0  0
    0.3768   -4.9642   41.9967 C   0  0  1  0  0  0  0  0  0  0  0  0
   -0.4746   -5.8010   41.1313 N   0  3  0  0  0  0  0  0  0  0  0  0
    1.1649   -3.8896   41.1882 C   0  0  2  0  0  0  0  0  0  0  0  0
    1.9954   -4.5121   40.2108 O   0  0  0  0  0  0  0  0  0  0  0  0
    2.0653   -3.0280   42.1213 C   0  0  1  0  0  0  0  0  0  0  0  0
    2.6409   -1.9401   41.3388 O   0  0  0  0  0  0  0  0  0  0  0  0
    1.2651   -2.4346   43.3264 C   0  0  1  0  0  0  0  0  0  0  0  0
    0.4365   -3.5135   44.0947 C   0  0  1  0  0  0  0  0  0  0  0  0
   -0.3861   -2.9078   45.1652 N   0  3  0  0  0  0  0  0  0  0  0  0
   -0.4750   -4.3006   43.1180 C   0  0  0  0  0  0  0  0  0  0  0  0
    4.0911   -1.7444   41.3146 C   0  0  1  0  0  0  0  0  0  0  0  0
    4.5365   -1.5370   39.8550 C   0  0  2  0  0  0  0  0  0  0  0  0
    5.8994   -1.9126   39.6772 O   0  0  0  0  0  0  0  0  0  0  0  0
    4.3338   -0.0175   39.7547 C   0  0  1  0  0  0  0  0  0  0  0  0
    4.8957    0.4732   41.0788 C   0  0  2  0  0  0  0  0  0  0  0  0
    4.4416   -0.5206   41.9847 O   0  0  0  0  0  0  0  0  0  0  0  0
    4.4100    1.8597   41.5209 C   0  0  0  0  0  0  0  0  0  0  0  0
    3.0783    2.0739   41.0773 O   0  0  0  0  0  0  0  0  0  0  0  0
    2.6649    2.7865   35.7075 C   0  0  1  0  0  0  0  0  0  0  0  0
    3.1645    4.0751   36.0608 O   0  0  0  0  0  0  0  0  0  0  0  0
    3.8305    1.9127   35.1658 C   0  0  2  0  0  0  0  0  0  0  0  0
    3.2765    0.7921   34.4802 O   0  0  0  0  0  0  0  0  0  0  0  0
    4.8370    1.3948   36.2449 C   0  0  1  0  0  0  0  0  0  0  0  0
    5.8731    2.4161   36.5141 N   0  3  0  0  0  0  0  0  0  0  0  0
    4.1116    0.9216   37.5320 C   0  0  1  0  0  0  0  0  0  0  0  0
    5.0009    0.6345   38.6392 O   0  0  0  0  0  0  0  0  0  0  0  0
    2.0264    2.1010   36.9417 C   0  0  1  0  0  0  0  0  0  0  0  0
    3.0787    1.8883   37.9221 O   0  0  0  0  0  0  0  0  0  0  0  0
    0.8534    2.8887   37.5545 C   0  0  0  0  0  0  0  0  0  0  0  0
    0.9744    3.0458   39.0171 N   0  3  0  0  0  0  0  0  0  0  0  0
  1  2  1  1  0  0  0
  1  3  1  0  0  0  0
  1 10  1  0  0  0  0
  3  4  1  1  0  0  0
  3  5  1  0  0  0  0
  5  6  1  1  0  0  0
  5  7  1  0  0  0  0
  7  8  1  1  0  0  0
  7  9  1  0  0  0  0
  9 10  1  0  0  0  0
  9 11  1  6  0  0  0
 11 12  1  0  0  0  0
 13 14  1  6  0  0  0
 13 15  1  0  0  0  0
 13 22  1  0  0  0  0
 15 16  1  6  0  0  0
 15 17  1  0  0  0  0
 17 18  1  6  0  0  0
 17 19  1  0  0  0  0
 19  2  1  1  0  0  0
 19 20  1  0  0  0  0
 20 21  1  1  0  0  0
 20 22  1  0  0  0  0
 23 18  1  6  0  0  0
 23 24  1  0  0  0  0
 23 28  1  0  0  0  0
 24 25  1  1  0  0  0
 24 26  1  0  0  0  0
 26 27  1  0  0  0  0
 26 38  1  6  0  0  0
 27 28  1  0  0  0  0
 27 29  1  1  0  0  0
 29 30  1  0  0  0  0
 31 32  1  1  0  0  0
 31 33  1  0  0  0  0
 31 39  1  0  0  0  0
 33 34  1  1  0  0  0
 33 35  1  0  0  0  0
 35 36  1  1  0  0  0
 35 37  1  0  0  0  0
 37 38  1  1  0  0  0
 37 40  1  0  0  0  0
 39 40  1  0  0  0  0
 39 41  1  1  0  0  0
 41 42  1  0  0  0  0
M  CHG  5   4   1  14   1  21   1  36   1  42   1
M  END
>  <CHROM.1>
-161.96426535,95.75184138,166.53101784,-168.45882594,176.70493947,157.09520208
-51.90706367,75.80690564,-179.49514094,-125.57614460,133.32321513,170.77798462
69.92309957,100.88129248,32.54027325,56.57281476,63.34323660,179.48265564
-90.89472425,-170.23726587,-130.88806733,1.01085722,2.63961161,-0.25884823
41.43888951,-2.23989778,-1.17370243,-1.86009860

>  <Name>
1pbr

>  <RI>
0

>  <Rbt.Current_Directory>
/home/itssahil/PROJECTS/Mol_Feturizer/New_Systems/rnas/1pbr

>  <Rbt.Executable>
rbdock ($Id: //depot/dev/client3/rdock/2013.1/src/exe/rbdock.cxx#4 $)

>  <Rbt.Library>
libRbt.so (2013.1, Build901 2013/11/27)

>  <Rbt.Parameter_File>
/export/apps/rDock/src/rDock_2013.1_src/data/scripts/dock_solv.prm

>  <Rbt.Receptor>
prm/pocket_docking_3.prm

>  <SCORE>
-55.083

>  <SCORE.INTER>
-56.6093

>  <SCORE.INTER.CONST>
1

>  <SCORE.INTER.POLAR>
-7.64633

>  <SCORE.INTER.ROT>
9

>  <SCORE.INTER.SOLV>
34.9917

>  <SCORE.INTER.VDW>
-33.5156

>  <SCORE.INTER.norm>
-1.34784

>  <SCORE.INTRA>
1.52631

>  <SCORE.INTRA.DIHEDRAL>
13.6832

>  <SCORE.INTRA.DIHEDRAL.0>
29.7866

>  <SCORE.INTRA.POLAR>
-1.49195

>  <SCORE.INTRA.POLAR.0>
-0.984091

>  <SCORE.INTRA.REPUL>
-0.264235

>  <SCORE.INTRA.REPUL.0>
0.274115

>  <SCORE.INTRA.SOLV>
3.90542

>  <SCORE.INTRA.SOLV.lig_0>
-152.978

>  <SCORE.INTRA.VDW>
-0.874205

>  <SCORE.INTRA.VDW.0>
-6.10719

>  <SCORE.INTRA.norm>
0.0363407

>  <SCORE.RESTR>
0

>  <SCORE.RESTR.CAVITY>
0

>  <SCORE.RESTR.norm>
0

>  <SCORE.SYSTEM>
0

>  <SCORE.SYSTEM.CONST>
0

>  <SCORE.SYSTEM.DIHEDRAL>
0

>  <SCORE.SYSTEM.SOLV>
0

>  <SCORE.SYSTEM.norm>
0

>  <SCORE.heavy>
42

>  <SCORE.norm>
-1.3115

>  <RMSD>
0.782

$$$$
1pbr
 OpenBabel11021811403D
libRbt.so/2013.1/901 2013/11/27
 42 45  0  0  0  0  0  0  0  0999 V2000
    2.2413   -0.2302   44.1099 C   0  0  2  0  0  0  0  0  0  0  0  0
    2.1421   -1.6753   44.1814 O   0  0  0  0  0  0  0  0  0  0  0  0
    3.5373    0.2785   44.8446 C   0  0  2  0  0  0  0  0  0  0  0  0
    4.7467   -0.5514   44.6062 N   0  3  0  0  0  0  0  0  0  0  0  0
    3.3417    0.3266   46.3717 C   0  0  1  0  0  0  0  0  0  0  0  0
    4.4125    1.0305   46.9971 O   0  0  0  0  0  0  0  0  0  0  0  0
    2.0084    0.9966   46.7364 C   0  0  2  0  0  0  0  0  0  0  0  0
    1.8652    1.0714   48.1513 O   0  0  0  0  0  0  0  0  0  0  0  0
    0.8264    0.2676   46.0596 C   0  0  2  0  0  0  0  0  0  0  0  0
    1.0279    0.3762   44.6345 O   0  0  0  0  0  0  0  0  0  0  0  0
   -0.5444    0.8577   46.3864 C   0  0  0  0  0  0  0  0  0  0  0  0
   -1.5679    0.2390   45.6181 O   0  0  0  0  0  0  0  0  0  0  0  0
    0.2354   -4.9037   42.1444 C   0  0  1  0  0  0  0  0  0  0  0  0
   -0.6372   -5.7763   41.3375 N   0  3  0  0  0  0  0  0  0  0  0  0
    1.0551   -3.9120   41.2645 C   0  0  2  0  0  0  0  0  0  0  0  0
    1.8700   -4.6258   40.3377 O   0  0  0  0  0  0  0  0  0  0  0  0
    1.9772   -3.0113   42.1373 C   0  0  1  0  0  0  0  0  0  0  0  0
    2.5848   -1.9986   41.2816 O   0  0  0  0  0  0  0  0  0  0  0  0
    1.1912   -2.3110   43.2936 C   0  0  1  0  0  0  0  0  0  0  0  0
    0.3310   -3.3086   44.1335 C   0  0  1  0  0  0  0  0  0  0  0  0
   -0.4767   -2.6052   45.1544 N   0  3  0  0  0  0  0  0  0  0  0  0
   -0.6001   -4.1380   43.2118 C   0  0  0  0  0  0  0  0  0  0  0  0
    4.0379   -1.8248   41.2728 C   0  0  1  0  0  0  0  0  0  0  0  0
    4.5117   -1.7065   39.8121 C   0  0  2  0  0  0  0  0  0  0  0  0
    5.8717   -2.1105   39.6806 O   0  0  0  0  0  0  0  0  0  0  0  0
    4.3335   -0.1925   39.6227 C   0  0  1  0  0  0  0  0  0  0  0  0
    4.8795    0.3646   40.9270 C   0  0  2  0  0  0  0  0  0  0  0  0
    4.3950   -0.5700   41.8791 O   0  0  0  0  0  0  0  0  0  0  0  0
    4.4069    1.7805   41.2814 C   0  0  0  0  0  0  0  0  0  0  0  0
    4.8556    2.1328   42.5817 O   0  0  0  0  0  0  0  0  0  0  0  0
    2.8675    3.1444   35.9546 C   0  0  1  0  0  0  0  0  0  0  0  0
    3.5588    4.3074   36.4065 O   0  0  0  0  0  0  0  0  0  0  0  0
    3.8709    2.1902   35.2487 C   0  0  2  0  0  0  0  0  0  0  0  0
    3.1320    1.2371   34.4882 O   0  0  0  0  0  0  0  0  0  0  0  0
    4.8499    1.4255   36.1988 C   0  0  1  0  0  0  0  0  0  0  0  0
    6.0303    2.2638   36.5038 N   0  3  0  0  0  0  0  0  0  0  0  0
    4.1330    0.9111   37.4747 C   0  0  1  0  0  0  0  0  0  0  0  0
    5.0295    0.3860   38.4845 O   0  0  0  0  0  0  0  0  0  0  0  0
    2.2043    2.4153   37.1501 C   0  0  1  0  0  0  0  0  0  0  0  0
    3.2659    1.9561   38.0311 O   0  0  0  0  0  0  0  0  0  0  0  0
    1.1852    3.2776   37.9181 C   0  0  0  0  0  0  0  0  0  0  0  0
   -0.0532    3.5153   37.1511 N   0  3  0  0  0  0  0  0  0  0  0  0
  1  2  1  1  0  0  0
  1  3  1  0  0  0  0
  1 10  1  0  0  0  0
  3  4  1  1  0  0  0
  3  5  1  0  0  0  0
  5  6  1  1  0  0  0
  5  7  1  0  0  0  0
  7  8  1  1  0  0  0
  7  9  1  0  0  0  0
  9 10  1  0  0  0  0
  9 11  1  6  0  0  0
 11 12  1  0  0  0  0
 13 14  1  6  0  0  0
 13 15  1  0  0  0  0
 13 22  1  0  0  0  0
 15 16  1  6  0  0  0
 15 17  1  0  0  0  0
 17 18  1  6  0  0  0
 17 19  1  0  0  0  0
 19  2  1  1  0  0  0
 19 20  1  0  0  0  0
 20 21  1  1  0  0  0
 20 22  1  0  0  0  0
 23 18  1  6  0  0  0
 23 24  1  0  0  0  0
 23 28  1  0  0  0  0
 24 25  1  1  0  0  0
 24 26  1  0  0  0  0
 26 27  1  0  0  0  0
 26 38  1  6  0  0  0
 27 28  1  0  0  0  0
 27 29  1  1  0  0  0
 29 30  1  0  0  0  0
 31 32  1  1  0  0  0
 31 33  1  0  0  0  0
 31 39  1  0  0  0  0
 33 34  1  1  0  0  0
 33 35  1  0  0  0  0
 35 36  1  1  0  0  0
 35 37  1  0  0  0  0
 37 38  1  1  0  0  0
 37 40  1  0  0  0  0
 39 40  1  0  0  0  0
 39 41  1  1  0  0  0
 41 42  1  0  0  0  0
M  CHG  5   4   1  14   1  21   1  36   1  42   1
M  END
>  <CHROM.1>
-165.73891703,105.84825266,167.00682578,-164.44293032,-52.93773127,173.43987675
170.08247556,-156.84577992,-55.84491355,-126.98707272,134.77472363,160.11731760
-176.76263837,114.56045299,173.42600020,-159.68100210,170.38498478,-60.53422340
137.72228456,-175.15040613,71.05602444,49.59010748,2.59369748,-0.18667415
41.46145399,-2.26810610,-1.14417314,-1.86339553

>  <Name>
1pbr

>  <RI>
0

>  <Rbt.Current_Directory>
/home/itssahil/PROJECTS/Mol_Feturizer/New_Systems/rnas/1pbr

>  <Rbt.Executable>
rbdock ($Id: //depot/dev/client3/rdock/2013.1/src/exe/rbdock.cxx#4 $)

>  <Rbt.Library>
libRbt.so (2013.1, Build901 2013/11/27)

>  <Rbt.Parameter_File>
/export/apps/rDock/src/rDock_2013.1_src/data/scripts/dock_solv.prm

>  <Rbt.Receptor>
prm/pocket_docking_2.prm

>  <SCORE>
-59.5771

>  <SCORE.INTER>
-59.9911

>  <SCORE.INTER.CONST>
1

>  <SCORE.INTER.POLAR>
-7.90474

>  <SCORE.INTER.ROT>
9

>  <SCORE.INTER.SOLV>
31.2827

>  <SCORE.INTER.VDW>
-33.6725

>  <SCORE.INTER.norm>
-1.42836

>  <SCORE.INTRA>
0.234506

>  <SCORE.INTRA.DIHEDRAL>
9.09226

>  <SCORE.INTRA.DIHEDRAL.0>
29.7866

>  <SCORE.INTRA.POLAR>
-0.874167

>  <SCORE.INTRA.POLAR.0>
-0.984091

>  <SCORE.INTRA.REPUL>
-0.274115

>  <SCORE.INTRA.REPUL.0>
0.274115

>  <SCORE.INTRA.SOLV>
3.06901

>  <SCORE.INTRA.SOLV.lig_0>
-152.978

>  <SCORE.INTRA.VDW>
-1.50338

>  <SCORE.INTRA.VDW.0>
-6.10719

>  <SCORE.INTRA.norm>
0.00558348

>  <SCORE.RESTR>
0.179537

>  <SCORE.RESTR.CAVITY>
0.179537

>  <SCORE.RESTR.norm>
0.0042747

>  <SCORE.SYSTEM>
0

>  <SCORE.SYSTEM.CONST>
0

>  <SCORE.SYSTEM.DIHEDRAL>
0

>  <SCORE.SYSTEM.SOLV>
0

>  <SCORE.SYSTEM.norm>
0

>  <SCORE.heavy>
42

>  <SCORE.norm>
-1.4185

>  <RMSD>
0.785

$$$$
1pbr
 OpenBabel11021811403D
libRbt.so/2013.1/901 2013/11/27
 42 45  0  0  0  0  0  0  0  0999 V2000
    2.0025   -0.4202   44.5239 C   0  0  2  0  0  0  0  0  0  0  0  0
    1.8772   -1.8353   44.8157 O   0  0  0  0  0  0  0  0  0  0  0  0
    3.2680    0.1878   45.2360 C   0  0  2  0  0  0  0  0  0  0  0  0
    4.4747   -0.6785   45.1935 N   0  3  0  0  0  0  0  0  0  0  0  0
    2.9971    0.4770   46.7245 C   0  0  1  0  0  0  0  0  0  0  0  0
    4.0463    1.2622   47.2865 O   0  0  0  0  0  0  0  0  0  0  0  0
    1.6579    1.2062   46.9101 C   0  0  2  0  0  0  0  0  0  0  0  0
    1.4454    1.5036   48.2866 O   0  0  0  0  0  0  0  0  0  0  0  0
    0.4999    0.3889   46.2957 C   0  0  2  0  0  0  0  0  0  0  0  0
    0.7740    0.2704   44.8836 O   0  0  0  0  0  0  0  0  0  0  0  0
   -0.8761    1.0334   46.4545 C   0  0  0  0  0  0  0  0  0  0  0  0
   -1.0064    1.6638   47.7218 O   0  0  0  0  0  0  0  0  0  0  0  0
    0.6097   -5.3680   42.7857 C   0  0  1  0  0  0  0  0  0  0  0  0
   -0.0646   -6.3821   41.9545 N   0  3  0  0  0  0  0  0  0  0  0  0
    1.3529   -4.3001   41.9273 C   0  0  2  0  0  0  0  0  0  0  0  0
    2.3320   -4.9217   41.0981 O   0  0  0  0  0  0  0  0  0  0  0  0
    2.0668   -3.2489   42.8268 C   0  0  1  0  0  0  0  0  0  0  0  0
    2.5958   -2.1895   41.9754 O   0  0  0  0  0  0  0  0  0  0  0  0
    1.0994   -2.6288   43.8874 C   0  0  1  0  0  0  0  0  0  0  0  0
    0.3203   -3.7097   44.7031 C   0  0  1  0  0  0  0  0  0  0  0  0
   -0.6578   -3.0942   45.6272 N   0  3  0  0  0  0  0  0  0  0  0  0
   -0.4083   -4.6932   43.7511 C   0  0  0  0  0  0  0  0  0  0  0  0
    4.0349   -2.1040   41.7233 C   0  0  1  0  0  0  0  0  0  0  0  0
    4.2745   -2.1742   40.2035 C   0  0  2  0  0  0  0  0  0  0  0  0
    5.5783   -2.6699   39.9131 O   0  0  0  0  0  0  0  0  0  0  0  0
    4.1312   -0.6820   39.8678 C   0  0  1  0  0  0  0  0  0  0  0  0
    4.9004   -0.0192   40.9985 C   0  0  2  0  0  0  0  0  0  0  0  0
    4.5355   -0.8139   42.1165 O   0  0  0  0  0  0  0  0  0  0  0  0
    4.5493    1.4524   41.2530 C   0  0  0  0  0  0  0  0  0  0  0  0
    5.5426    2.0565   42.0682 O   0  0  0  0  0  0  0  0  0  0  0  0
    2.3615    2.2608   35.9352 C   0  0  1  0  0  0  0  0  0  0  0  0
    3.2788    3.3527   35.9686 O   0  0  0  0  0  0  0  0  0  0  0  0
    3.0527    1.0267   35.2912 C   0  0  2  0  0  0  0  0  0  0  0  0
    2.0477    0.0845   34.9238 O   0  0  0  0  0  0  0  0  0  0  0  0
    4.1121    0.3077   36.1891 C   0  0  1  0  0  0  0  0  0  0  0  0
    5.4280    0.9725   36.0647 N   0  3  0  0  0  0  0  0  0  0  0  0
    3.6367    0.1883   37.6610 C   0  0  1  0  0  0  0  0  0  0  0  0
    4.6603   -0.2734   38.5764 O   0  0  0  0  0  0  0  0  0  0  0  0
    1.8927    1.9091   37.3695 C   0  0  1  0  0  0  0  0  0  0  0  0
    3.0557    1.4568   38.1156 O   0  0  0  0  0  0  0  0  0  0  0  0
    1.1884    3.0696   38.0969 C   0  0  0  0  0  0  0  0  0  0  0  0
   -0.0971    3.4378   37.4719 N   0  3  0  0  0  0  0  0  0  0  0  0
  1  2  1  1  0  0  0
  1  3  1  0  0  0  0
  1 10  1  0  0  0  0
  3  4  1  1  0  0  0
  3  5  1  0  0  0  0
  5  6  1  6  0  0  0
  5  7  1  0  0  0  0
  7  8  1  1  0  0  0
  7  9  1  0  0  0  0
  9 10  1  0  0  0  0
  9 11  1  6  0  0  0
 11 12  1  0  0  0  0
 13 14  1  6  0  0  0
 13 15  1  0  0  0  0
 13 22  1  0  0  0  0
 15 16  1  1  0  0  0
 15 17  1  0  0  0  0
 17 18  1  6  0  0  0
 17 19  1  0  0  0  0
 19  2  1  1  0  0  0
 19 20  1  0  0  0  0
 20 21  1  1  0  0  0
 20 22  1  0  0  0  0
 23 18  1  6  0  0  0
 23 24  1  0  0  0  0
 23 28  1  0  0  0  0
 24 25  1  1  0  0  0
 24 26  1  0  0  0  0
 26 27  1  0  0  0  0
 26 38  1  6  0  0  0
 27 28  1  0  0  0  0
 27 29  1  1  0  0  0
 29 30  1  0  0  0  0
 31 32  1  1  0  0  0
 31 33  1  0  0  0  0
 31 39  1  0  0  0  0
 33 34  1  1  0  0  0
 33 35  1  0  0  0  0
 35 36  1  1  0  0  0
 35 37  1  0  0  0  0
 37 38  1  1  0  0  0
 37 40  1  0  0  0  0
 39 40  1  0  0  0  0
 39 41  1  1  0  0  0
 41 42  1  0  0  0  0
M  CHG  5   4   1  14   1  21   1  36   1  42   1
M  END
>  <CHROM.1>
-157.96886634,93.55192100,-75.18390608,-66.33913262,-56.79061798,-38.04382196
170.70474315,173.34600839,177.59049361,-106.35767335,122.37346784,-145.59218162
62.80692216,114.46267178,-164.94537504,76.27673366,-178.46618338,-62.31177227
-63.30473650,-166.21421484,66.13293750,-62.43048508,2.45084839,-0.51258356
41.78462088,-2.69164216,-1.31628665,-2.44772569

>  <Name>
1pbr

>  <RI>
0

>  <Rbt.Current_Directory>
/home/itssahil/PROJECTS/Mol_Feturizer/New_Systems/rnas/1pbr

>  <Rbt.Executable>
rbdock ($Id: //depot/dev/client3/rdock/2013.1/src/exe/rbdock.cxx#4 $)

>  <Rbt.Library>
libRbt.so (2013.1, Build901 2013/11/27)

>  <Rbt.Parameter_File>
/export/apps/rDock/src/rDock_2013.1_src/data/scripts/dock_solv.prm

>  <Rbt.Receptor>
prm/pocket_docking_2.prm

>  <SCORE>
-36.831

>  <SCORE.INTER>
-37.3

>  <SCORE.INTER.CONST>
1

>  <SCORE.INTER.POLAR>
-3.46161

>  <SCORE.INTER.ROT>
9

>  <SCORE.INTER.SOLV>
27.4611

>  <SCORE.INTER.VDW>
-32.0817

>  <SCORE.INTER.norm>
-0.888096

>  <SCORE.INTRA>
0.41179

>  <SCORE.INTRA.DIHEDRAL>
6.08947

>  <SCORE.INTRA.DIHEDRAL.0>
29.7866

>  <SCORE.INTRA.POLAR>
-0.187247

>  <SCORE.INTRA.POLAR.0>
-0.984091

>  <SCORE.INTRA.REPUL>
-0.274115

>  <SCORE.INTRA.REPUL.0>
0.274115

>  <SCORE.INTRA.SOLV>
-1.46201

>  <SCORE.INTRA.SOLV.lig_0>
-152.978

>  <SCORE.INTRA.VDW>
0.105271

>  <SCORE.INTRA.VDW.0>
-6.10719

>  <SCORE.INTRA.norm>
0.00980451

>  <SCORE.RESTR>
0.0572642

>  <SCORE.RESTR.CAVITY>
0.0572642

>  <SCORE.RESTR.norm>
0.00136343

>  <SCORE.SYSTEM>
0

>  <SCORE.SYSTEM.CONST>
0

>  <SCORE.SYSTEM.DIHEDRAL>
0

>  <SCORE.SYSTEM.SOLV>
0

>  <SCORE.SYSTEM.norm>
0

>  <SCORE.heavy>
42

>  <SCORE.norm>
-0.876928

>  <RMSD>
0.787

$$$$
1pbr
 OpenBabel11021811403D
libRbt.so/2013.1/901 2013/11/27
 42 45  0  0  0  0  0  0  0  0999 V2000
    1.9907   -0.2162   44.2632 C   0  0  2  0  0  0  0  0  0  0  0  0
    1.8420   -1.6483   44.4370 O   0  0  0  0  0  0  0  0  0  0  0  0
    3.2698    0.3087   45.0160 C   0  0  2  0  0  0  0  0  0  0  0  0
    4.4610   -0.5715   44.8945 N   0  3  0  0  0  0  0  0  0  0  0  0
    3.0106    0.4775   46.5249 C   0  0  1  0  0  0  0  0  0  0  0  0
    4.0759    1.1951   47.1443 O   0  0  0  0  0  0  0  0  0  0  0  0
    1.6852    1.2114   46.7785 C   0  0  2  0  0  0  0  0  0  0  0  0
    1.4840    1.3967   48.1761 O   0  0  0  0  0  0  0  0  0  0  0  0
    0.5104    0.4680   46.1049 C   0  0  2  0  0  0  0  0  0  0  0  0
    0.7762    0.4629   44.6862 O   0  0  0  0  0  0  0  0  0  0  0  0
   -0.8534    1.1205   46.3249 C   0  0  0  0  0  0  0  0  0  0  0  0
   -1.3405    0.8664   47.6358 O   0  0  0  0  0  0  0  0  0  0  0  0
    0.1990   -4.9457   42.2841 C   0  0  1  0  0  0  0  0  0  0  0  0
   -0.6033   -5.8575   41.4480 N   0  3  0  0  0  0  0  0  0  0  0  0
    0.9235   -3.8541   41.4397 C   0  0  2  0  0  0  0  0  0  0  0  0
    1.7879   -4.4589   40.4808 O   0  0  0  0  0  0  0  0  0  0  0  0
    1.7733   -2.9126   42.3425 C   0  0  1  0  0  0  0  0  0  0  0  0
    2.2848   -1.8191   41.5242 O   0  0  0  0  0  0  0  0  0  0  0  0
    0.9408   -2.3277   43.5299 C   0  0  1  0  0  0  0  0  0  0  0  0
    0.1762   -3.4272   44.3344 C   0  0  1  0  0  0  0  0  0  0  0  0
   -0.6793   -2.8358   45.3869 N   0  3  0  0  0  0  0  0  0  0  0  0
   -0.6890   -4.2965   43.3856 C   0  0  0  0  0  0  0  0  0  0  0  0
    3.7158   -1.7337   41.2295 C   0  0  1  0  0  0  0  0  0  0  0  0
    3.8956   -1.5190   39.7150 C   0  0  2  0  0  0  0  0  0  0  0  0
    5.1666   -1.9920   39.2782 O   0  0  0  0  0  0  0  0  0  0  0  0
    3.8002    0.0137   39.6759 C   0  0  1  0  0  0  0  0  0  0  0  0
    4.6372    0.4222   40.8768 C   0  0  2  0  0  0  0  0  0  0  0  0
    4.2824   -0.5598   41.8383 O   0  0  0  0  0  0  0  0  0  0  0  0
    4.3554    1.8284   41.4218 C   0  0  0  0  0  0  0  0  0  0  0  0
    4.9497    1.9829   42.7020 O   0  0  0  0  0  0  0  0  0  0  0  0
    1.9019    2.1585   35.1993 C   0  0  1  0  0  0  0  0  0  0  0  0
    2.6577    3.3556   35.0252 O   0  0  0  0  0  0  0  0  0  0  0  0
    2.8036    0.9304   34.8920 C   0  0  2  0  0  0  0  0  0  0  0  0
    1.9684   -0.2094   34.7028 O   0  0  0  0  0  0  0  0  0  0  0  0
    3.8731    0.5949   35.9826 C   0  0  1  0  0  0  0  0  0  0  0  0
    5.0931    1.4053   35.7732 N   0  3  0  0  0  0  0  0  0  0  0  0
    3.2989    0.7339   37.4171 C   0  0  1  0  0  0  0  0  0  0  0  0
    4.2969    0.6448   38.4636 O   0  0  0  0  0  0  0  0  0  0  0  0
    1.3687    2.0663   36.6512 C   0  0  1  0  0  0  0  0  0  0  0  0
    2.5169    1.9697   37.5378 O   0  0  0  0  0  0  0  0  0  0  0  0
    0.4571    3.2398   37.0558 C   0  0  0  0  0  0  0  0  0  0  0  0
    0.2747    3.3425   38.5169 N   0  3  0  0  0  0  0  0  0  0  0  0
  1  2  1  1  0  0  0
  1  3  1  0  0  0  0
  1 10  1  0  0  0  0
  3  4  1  1  0  0  0
  3  5  1  0  0  0  0
  5  6  1  6  0  0  0
  5  7  1  0  0  0  0
  7  8  1  1  0  0  0
  7  9  1  0  0  0  0
  9 10  1  0  0  0  0
  9 11  1  6  0  0  0
 11 12  1  0  0  0  0
 13 14  1  6  0  0  0
 13 15  1  0  0  0  0
 13 22  1  0  0  0  0
 15 16  1  6  0  0  0
 15 17  1  0  0  0  0
 17 18  1  6  0  0  0
 17 19  1  0  0  0  0
 19  2  1  1  0  0  0
 19 20  1  0  0  0  0
 20 21  1  1  0  0  0
 20 22  1  0  0  0  0
 23 18  1  6  0  0  0
 23 24  1  0  0  0  0
 23 28  1  0  0  0  0
 24 25  1  1  0  0  0
 24 26  1  0  0  0  0
 26 27  1  0  0  0  0
 26 38  1  6  0  0  0
 27 28  1  0  0  0  0
 27 29  1  1  0  0  0
 29 30  1  0  0  0  0
 31 32  1  1  0  0  0
 31 33  1  0  0  0  0
 31 39  1  0  0  0  0
 33 34  1  1  0  0  0
 33 35  1  0  0  0  0
 35 36  1  1  0  0  0
 35 37  1  0  0  0  0
 37 38  1  1  0  0  0
 37 40  1  0  0  0  0
 39 40  1  0  0  0  0
 39 41  1  1  0  0  0
 41 42  1  0  0  0  0
M  CHG  5   4   1  14   1  21   1  36   1  42   1
M  END
>  <CHROM.1>
-163.90647711,95.37395911,-75.61062110,-58.70977763,-65.01181401,-76.09483509
-167.53215613,-155.90184247,72.67829518,-110.88642726,130.88759970,49.63292211
-54.39650046,86.68939494,166.43183171,-138.06242361,-74.97987022,-53.87889349
-57.90735189,-146.24855194,-163.71279012,90.80824850,2.20693777,-0.29072088
41.49779052,-2.11577424,-1.19837750,-1.87064510

>  <Name>
1pbr

>  <RI>
0

>  <Rbt.Current_Directory>
/home/itssahil/PROJECTS/Mol_Feturizer/New_Systems/rnas/1pbr

>  <Rbt.Executable>
rbdock ($Id: //depot/dev/client3/rdock/2013.1/src/exe/rbdock.cxx#4 $)

>  <Rbt.Library>
libRbt.so (2013.1, Build901 2013/11/27)

>  <Rbt.Parameter_File>
/export/apps/rDock/src/rDock_2013.1_src/data/scripts/dock_solv.prm

>  <Rbt.Receptor>
prm/pocket_docking_8.prm

>  <SCORE>
-49.335

>  <SCORE.INTER>
-53.3035

>  <SCORE.INTER.CONST>
1

>  <SCORE.INTER.POLAR>
-6.191

>  <SCORE.INTER.ROT>
9

>  <SCORE.INTER.SOLV>
32.4133

>  <SCORE.INTER.VDW>
-35.3035

>  <SCORE.INTER.norm>
-1.26913

>  <SCORE.INTRA>
3.96858

>  <SCORE.INTRA.DIHEDRAL>
12.6677

>  <SCORE.INTRA.DIHEDRAL.0>
29.7866

>  <SCORE.INTRA.POLAR>
-0.203161

>  <SCORE.INTRA.POLAR.0>
-0.984091

>  <SCORE.INTRA.REPUL>
-0.261488

>  <SCORE.INTRA.REPUL.0>
0.274115

>  <SCORE.INTRA.SOLV>
0.583499

>  <SCORE.INTRA.SOLV.lig_0>
-152.978

>  <SCORE.INTRA.VDW>
-0.658817

>  <SCORE.INTRA.VDW.0>
-6.10719

>  <SCORE.INTRA.norm>
0.09449

>  <SCORE.RESTR>
0

>  <SCORE.RESTR.CAVITY>
0

>  <SCORE.RESTR.norm>
0

>  <SCORE.SYSTEM>
0

>  <SCORE.SYSTEM.CONST>
0

>  <SCORE.SYSTEM.DIHEDRAL>
0

>  <SCORE.SYSTEM.SOLV>
0

>  <SCORE.SYSTEM.norm>
0

>  <SCORE.heavy>
42

>  <SCORE.norm>
-1.17464

>  <RMSD>
0.825

$$$$
1pbr
 OpenBabel11021811403D
libRbt.so/2013.1/901 2013/11/27
 42 45  0  0  0  0  0  0  0  0999 V2000
    2.2837   -0.1898   44.1756 C   0  0  2  0  0  0  0  0  0  0  0  0
    2.0735   -1.6247   44.1932 O   0  0  0  0  0  0  0  0  0  0  0  0
    3.6560    0.1827   44.8512 C   0  0  2  0  0  0  0  0  0  0  0  0
    4.7796   -0.7266   44.5061 N   0  3  0  0  0  0  0  0  0  0  0  0
    3.5521    0.1756   46.3880 C   0  0  1  0  0  0  0  0  0  0  0  0
    4.7096    0.7649   46.9762 O   0  0  0  0  0  0  0  0  0  0  0  0
    2.2995    0.9293   46.8599 C   0  0  2  0  0  0  0  0  0  0  0  0
    2.2435    0.9498   48.2828 O   0  0  0  0  0  0  0  0  0  0  0  0
    1.0264    0.3259   46.2262 C   0  0  2  0  0  0  0  0  0  0  0  0
    1.1546    0.4839   44.7972 O   0  0  0  0  0  0  0  0  0  0  0  0
   -0.2720    1.0047   46.6591 C   0  0  0  0  0  0  0  0  0  0  0  0
   -0.5057    0.8296   48.0503 O   0  0  0  0  0  0  0  0  0  0  0  0
   -0.2990   -4.5951   42.2553 C   0  0  1  0  0  0  0  0  0  0  0  0
   -1.3118   -5.3554   41.5002 N   0  3  0  0  0  0  0  0  0  0  0  0
    0.5613   -3.6796   41.3326 C   0  0  2  0  0  0  0  0  0  0  0  0
    1.2315   -4.4584   40.3442 O   0  0  0  0  0  0  0  0  0  0  0  0
    1.6306   -2.8977   42.1504 C   0  0  1  0  0  0  0  0  0  0  0  0
    2.2844   -1.9394   41.2665 O   0  0  0  0  0  0  0  0  0  0  0  0
    1.0029   -2.1397   43.3655 C   0  0  1  0  0  0  0  0  0  0  0  0
    0.0992   -3.0561   44.2510 C   0  0  1  0  0  0  0  0  0  0  0  0
   -0.5587   -2.2901   45.3327 N   0  3  0  0  0  0  0  0  0  0  0  0
   -0.9747   -3.7651   43.3859 C   0  0  0  0  0  0  0  0  0  0  0  0
    3.7420   -1.9414   41.1358 C   0  0  1  0  0  0  0  0  0  0  0  0
    4.1032   -1.8691   39.6403 C   0  0  2  0  0  0  0  0  0  0  0  0
    5.3890   -2.4325   39.3963 O   0  0  0  0  0  0  0  0  0  0  0  0
    4.0936   -0.3431   39.4636 C   0  0  1  0  0  0  0  0  0  0  0  0
    4.8094    0.1336   40.7165 C   0  0  2  0  0  0  0  0  0  0  0  0
    4.2969   -0.7437   41.7076 O   0  0  0  0  0  0  0  0  0  0  0  0
    4.5420    1.5931   41.1065 C   0  0  0  0  0  0  0  0  0  0  0  0
    3.1471    1.8083   41.2619 O   0  0  0  0  0  0  0  0  0  0  0  0
    2.6697    3.2684   36.1150 C   0  0  1  0  0  0  0  0  0  0  0  0
    3.4464    4.3405   36.6461 O   0  0  0  0  0  0  0  0  0  0  0  0
    3.5863    2.3339   35.2771 C   0  0  2  0  0  0  0  0  0  0  0  0
    2.7630    1.5036   34.4614 O   0  0  0  0  0  0  0  0  0  0  0  0
    4.5531    1.4254   36.1052 C   0  0  1  0  0  0  0  0  0  0  0  0
    5.7925    2.1619   36.4376 N   0  3  0  0  0  0  0  0  0  0  0  0
    3.8557    0.8285   37.3558 C   0  0  1  0  0  0  0  0  0  0  0  0
    4.7570    0.1568   38.2700 O   0  0  0  0  0  0  0  0  0  0  0  0
    2.0100    2.4631   37.2626 C   0  0  1  0  0  0  0  0  0  0  0  0
    3.0749    1.8604   38.0478 O   0  0  0  0  0  0  0  0  0  0  0  0
    1.0746    3.3011   38.1540 C   0  0  0  0  0  0  0  0  0  0  0  0
   -0.1813    3.6717   37.4728 N   0  3  0  0  0  0  0  0  0  0  0  0
  1  2  1  1  0  0  0
  1  3  1  0  0  0  0
  1 10  1  0  0  0  0
  3  4  1  1  0  0  0
  3  5  1  0  0  0  0
  5  6  1  1  0  0  0
  5  7  1  0  0  0  0
  7  8  1  1  0  0  0
  7  9  1  0  0  0  0
  9 10  1  0  0  0  0
  9 11  1  1  0  0  0
 11 12  1  0  0  0  0
 13 14  1  6  0  0  0
 13 15  1  0  0  0  0
 13 22  1  0  0  0  0
 15 16  1  6  0  0  0
 15 17  1  0  0  0  0
 17 18  1  6  0  0  0
 17 19  1  0  0  0  0
 19  2  1  1  0  0  0
 19 20  1  0  0  0  0
 20 21  1  1  0  0  0
 20 22  1  0  0  0  0
 23 18  1  6  0  0  0
 23 24  1  0  0  0  0
 23 28  1  0  0  0  0
 24 25  1  1  0  0  0
 24 26  1  0  0  0  0
 26 27  1  0  0  0  0
 26 38  1  6  0  0  0
 27 28  1  0  0  0  0
 27 29  1  1  0  0  0
 29 30  1  0  0  0  0
 31 32  1  1  0  0  0
 31 33  1  0  0  0  0
 31 39  1  0  0  0  0
 33 34  1  1  0  0  0
 33 35  1  0  0  0  0
 35 36  1  1  0  0  0
 35 37  1  0  0  0  0
 37 38  1  1  0  0  0
 37 40  1  0  0  0  0
 39 40  1  0  0  0  0
 39 41  1  1  0  0  0
 41 42  1  0  0  0  0
M  CHG  5   4   1  14   1  21   1  36   1  42   1
M  END
>  <CHROM.1>
-167.30219170,108.44551381,166.19552577,-163.72833378,-56.72166500,-64.44294157
-59.61455161,122.31770016,178.18182379,-125.51909341,133.46018028,160.55917436
63.41946887,116.25714450,56.32964683,59.01657391,-58.79679863,59.91813637
5.88603951,177.41382238,71.59994136,-69.53646642,2.43421439,-0.16319520,41.51577376
-2.13063774,-1.12433020,-1.76976243

>  <Name>
1pbr

>  <RI>
0

>  <Rbt.Current_Directory>
/home/itssahil/PROJECTS/Mol_Feturizer/New_Systems/rnas/1pbr

>  <Rbt.Executable>
rbdock ($Id: //depot/dev/client3/rdock/2013.1/src/exe/rbdock.cxx#4 $)

>  <Rbt.Library>
libRbt.so (2013.1, Build901 2013/11/27)

>  <Rbt.Parameter_File>
/export/apps/rDock/src/rDock_2013.1_src/data/scripts/dock_solv.prm

>  <Rbt.Receptor>
prm/pocket_docking_2.prm

>  <SCORE>
-47.9201

>  <SCORE.INTER>
-51.4085

>  <SCORE.INTER.CONST>
1

>  <SCORE.INTER.POLAR>
-5.77204

>  <SCORE.INTER.ROT>
9

>  <SCORE.INTER.SOLV>
33.822

>  <SCORE.INTER.VDW>
-35.9062

>  <SCORE.INTER.norm>
-1.22401

>  <SCORE.INTRA>
3.06247

>  <SCORE.INTRA.DIHEDRAL>
9.40988

>  <SCORE.INTRA.DIHEDRAL.0>
29.7866

>  <SCORE.INTRA.POLAR>
-0.213808

>  <SCORE.INTRA.POLAR.0>
-0.984091

>  <SCORE.INTRA.REPUL>
-0.274115

>  <SCORE.INTRA.REPUL.0>
0.274115

>  <SCORE.INTRA.SOLV>
2.77486

>  <SCORE.INTRA.SOLV.lig_0>
-152.978

>  <SCORE.INTRA.VDW>
-0.932383

>  <SCORE.INTRA.VDW.0>
-6.10719

>  <SCORE.INTRA.norm>
0.0729159

>  <SCORE.RESTR>
0.425848

>  <SCORE.RESTR.CAVITY>
0.425848

>  <SCORE.RESTR.norm>
0.0101392

>  <SCORE.SYSTEM>
0

>  <SCORE.SYSTEM.CONST>
0

>  <SCORE.SYSTEM.DIHEDRAL>
0

>  <SCORE.SYSTEM.SOLV>
0

>  <SCORE.SYSTEM.norm>
0

>  <SCORE.heavy>
42

>  <SCORE.norm>
-1.14096

>  <RMSD>
0.848

$$$$
1pbr
 OpenBabel11021811403D
libRbt.so/2013.1/901 2013/11/27
 42 45  0  0  0  0  0  0  0  0999 V2000
    1.6698   -0.1861   44.2306 C   0  0  2  0  0  0  0  0  0  0  0  0
    1.4922   -1.6138   44.4127 O   0  0  0  0  0  0  0  0  0  0  0  0
    3.0027    0.3029   44.9108 C   0  0  2  0  0  0  0  0  0  0  0  0
    4.1608   -0.6091   44.7233 N   0  3  0  0  0  0  0  0  0  0  0  0
    2.8326    0.4767   46.4318 C   0  0  1  0  0  0  0  0  0  0  0  0
    3.9498    1.1644   46.9906 O   0  0  0  0  0  0  0  0  0  0  0  0
    1.5438    1.2460   46.7587 C   0  0  2  0  0  0  0  0  0  0  0  0
    1.4259    1.4349   48.1653 O   0  0  0  0  0  0  0  0  0  0  0  0
    0.3135    0.5356   46.1518 C   0  0  2  0  0  0  0  0  0  0  0  0
    0.4996    0.5252   44.7205 O   0  0  0  0  0  0  0  0  0  0  0  0
   -1.0177    1.2246   46.4473 C   0  0  0  0  0  0  0  0  0  0  0  0
   -1.4215    1.0093   47.7931 O   0  0  0  0  0  0  0  0  0  0  0  0
    0.2636   -4.9511   42.0546 C   0  0  1  0  0  0  0  0  0  0  0  0
   -0.3870   -5.8834   41.1157 N   0  3  0  0  0  0  0  0  0  0  0  0
    1.0657   -3.8357   41.3184 C   0  0  2  0  0  0  0  0  0  0  0  0
    2.0728   -4.4114   40.4896 O   0  0  0  0  0  0  0  0  0  0  0  0
    1.7532   -2.8725   42.3300 C   0  0  1  0  0  0  0  0  0  0  0  0
    2.3409   -1.7616   41.5900 O   0  0  0  0  0  0  0  0  0  0  0  0
    0.7466   -2.3166   43.3895 C   0  0  1  0  0  0  0  0  0  0  0  0
   -0.0894   -3.4410   44.0806 C   0  0  1  0  0  0  0  0  0  0  0  0
   -1.1003   -2.8787   45.0033 N   0  3  0  0  0  0  0  0  0  0  0  0
   -0.7880   -4.3322   43.0213 C   0  0  0  0  0  0  0  0  0  0  0  0
    3.7710   -1.7650   41.2792 C   0  0  1  0  0  0  0  0  0  0  0  0
    3.9468   -1.5573   39.7633 C   0  0  2  0  0  0  0  0  0  0  0  0
    5.1807   -2.1076   39.3108 O   0  0  0  0  0  0  0  0  0  0  0  0
    3.9472   -0.0215   39.7290 C   0  0  1  0  0  0  0  0  0  0  0  0
    4.8216    0.3300   40.9212 C   0  0  2  0  0  0  0  0  0  0  0  0
    4.4168   -0.6309   41.8843 O   0  0  0  0  0  0  0  0  0  0  0  0
    4.6346    1.7493   41.4728 C   0  0  0  0  0  0  0  0  0  0  0  0
    5.7147    2.0847   42.3314 O   0  0  0  0  0  0  0  0  0  0  0  0
    1.7249    3.4243   36.7607 C   0  0  1  0  0  0  0  0  0  0  0  0
    2.2361    4.5533   37.4669 O   0  0  0  0  0  0  0  0  0  0  0  0
    2.8306    2.8561   35.8278 C   0  0  2  0  0  0  0  0  0  0  0  0
    2.2187    1.9915   34.8736 O   0  0  0  0  0  0  0  0  0  0  0  0
    3.9798    2.0773   36.5481 C   0  0  1  0  0  0  0  0  0  0  0  0
    5.0180    3.0173   37.0249 N   0  3  0  0  0  0  0  0  0  0  0  0
    3.4377    1.1594   37.6753 C   0  0  1  0  0  0  0  0  0  0  0  0
    4.4689    0.5810   38.5126 O   0  0  0  0  0  0  0  0  0  0  0  0
    1.2671    2.3296   37.7571 C   0  0  1  0  0  0  0  0  0  0  0  0
    2.4418    1.8737   38.4823 O   0  0  0  0  0  0  0  0  0  0  0  0
    0.1651    2.7927   38.7283 C   0  0  0  0  0  0  0  0  0  0  0  0
   -0.5408    1.6657   39.3686 N   0  3  0  0  0  0  0  0  0  0  0  0
  1  2  1  1  0  0  0
  1  3  1  0  0  0  0
  1 10  1  0  0  0  0
  3  4  1  1  0  0  0
  3  5  1  0  0  0  0
  5  6  1  6  0  0  0
  5  7  1  0  0  0  0
  7  8  1  1  0  0  0
  7  9  1  0  0  0  0
  9 10  1  0  0  0  0
  9 11  1  6  0  0  0
 11 12  1  0  0  0  0
 13 14  1  6  0  0  0
 13 15  1  0  0  0  0
 13 22  1  0  0  0  0
 15 16  1  1  0  0  0
 15 17  1  0  0  0  0
 17 18  1  6  0  0  0
 17 19  1  0  0  0  0
 19  2  1  1  0  0  0
 19 20  1  0  0  0  0
 20 21  1  1  0  0  0
 20 22  1  0  0  0  0
 23 18  1  6  0  0  0
 23 24  1  0  0  0  0
 23 28  1  0  0  0  0
 24 25  1  1  0  0  0
 24 26  1  0  0  0  0
 26 27  1  0  0  0  0
 26 38  1  6  0  0  0
 27 28  1  0  0  0  0
 27 29  1  1  0  0  0
 29 30  1  0  0  0  0
 31 32  1  1  0  0  0
 31 33  1  0  0  0  0
 31 39  1  0  0  0  0
 33 34  1  6  0  0  0
 33 35  1  0  0  0  0
 35 36  1  1  0  0  0
 35 37  1  0  0  0  0
 37 38  1  1  0  0  0
 37 40  1  0  0  0  0
 39 40  1  0  0  0  0
 39 41  1  1  0  0  0
 41 42  1  0  0  0  0
M  CHG  5   4   1  14   1  21   1  36   1  42   1
M  END
>  <CHROM.1>
-151.31234688,92.81328542,167.51673114,-164.84374208,-54.72160445,-74.65823526
-154.79939546,-173.23978499,67.65096011,-99.28747549,126.49885816,111.13231268
64.47203060,106.94075646,-164.90409242,-62.85099130,-172.39274782,-57.97596842
178.68686360,166.95031884,162.27836952,-57.91906386,2.14713068,-0.10331426
41.73298754,-2.43826469,-1.22480864,-2.06897640

>  <Name>
1pbr

>  <RI>
0

>  <Rbt.Current_Directory>
/home/itssahil/PROJECTS/Mol_Feturizer/New_Systems/rnas/1pbr

>  <Rbt.Executable>
rbdock ($Id: //depot/dev/client3/rdock/2013.1/src/exe/rbdock.cxx#4 $)

>  <Rbt.Library>
libRbt.so (2013.1, Build901 2013/11/27)

>  <Rbt.Parameter_File>
/export/apps/rDock/src/rDock_2013.1_src/data/scripts/dock_solv.prm

>  <Rbt.Receptor>
prm/pocket_docking_2.prm

>  <SCORE>
-54.484

>  <SCORE.INTER>
-57.297

>  <SCORE.INTER.CONST>
1

>  <SCORE.INTER.POLAR>
-6.60491

>  <SCORE.INTER.ROT>
9

>  <SCORE.INTER.SOLV>
37.164

>  <SCORE.INTER.VDW>
-38.1696

>  <SCORE.INTER.norm>
-1.36421

>  <SCORE.INTRA>
2.19038

>  <SCORE.INTRA.DIHEDRAL>
8.93146

>  <SCORE.INTRA.DIHEDRAL.0>
29.7866

>  <SCORE.INTRA.POLAR>
-0.187153

>  <SCORE.INTRA.POLAR.0>
-0.984091

>  <SCORE.INTRA.REPUL>
-0.274115

>  <SCORE.INTRA.REPUL.0>
0.274115

>  <SCORE.INTRA.SOLV>
-0.535991

>  <SCORE.INTRA.SOLV.lig_0>
-152.978

>  <SCORE.INTRA.VDW>
-0.00045579

>  <SCORE.INTRA.VDW.0>
-6.10719

>  <SCORE.INTRA.norm>
0.052152

>  <SCORE.RESTR>
0.622628

>  <SCORE.RESTR.CAVITY>
0.622628

>  <SCORE.RESTR.norm>
0.0148245

>  <SCORE.SYSTEM>
0

>  <SCORE.SYSTEM.CONST>
0

>  <SCORE.SYSTEM.DIHEDRAL>
0

>  <SCORE.SYSTEM.SOLV>
0

>  <SCORE.SYSTEM.norm>
0

>  <SCORE.heavy>
42

>  <SCORE.norm>
-1.29724

>  <RMSD>
0.873

$$$$
1pbr
 OpenBabel11021811403D
libRbt.so/2013.1/901 2013/11/27
 42 45  0  0  0  0  0  0  0  0999 V2000
    1.5781   -0.3694   44.2965 C   0  0  2  0  0  0  0  0  0  0  0  0
    1.6758   -1.8140   44.2154 O   0  0  0  0  0  0  0  0  0  0  0  0
    2.9239    0.2533   44.8251 C   0  0  2  0  0  0  0  0  0  0  0  0
    4.1522   -0.3675   44.2646 N   0  3  0  0  0  0  0  0  0  0  0  0
    3.0410    0.1343   46.3564 C   0  0  1  0  0  0  0  0  0  0  0  0
    4.1215    0.9266   46.8444 O   0  0  0  0  0  0  0  0  0  0  0  0
    1.7381    0.5682   47.0448 C   0  0  2  0  0  0  0  0  0  0  0  0
    1.8798    0.4932   48.4599 O   0  0  0  0  0  0  0  0  0  0  0  0
    0.5423   -0.2602   46.5251 C   0  0  2  0  0  0  0  0  0  0  0  0
    0.4324    0.0047   45.1105 O   0  0  0  0  0  0  0  0  0  0  0  0
   -0.7948    0.0929   47.1743 C   0  0  0  0  0  0  0  0  0  0  0  0
   -1.2963    1.3283   46.6816 O   0  0  0  0  0  0  0  0  0  0  0  0
    0.1754   -5.0755   41.9089 C   0  0  1  0  0  0  0  0  0  0  0  0
   -0.5463   -5.9644   40.9800 N   0  3  0  0  0  0  0  0  0  0  0  0
    1.0858   -4.0545   41.1616 C   0  0  2  0  0  0  0  0  0  0  0  0
    2.0461   -4.7380   40.3595 O   0  0  0  0  0  0  0  0  0  0  0  0
    1.8462   -3.1365   42.1630 C   0  0  1  0  0  0  0  0  0  0  0  0
    2.5427   -2.1005   41.4089 O   0  0  0  0  0  0  0  0  0  0  0  0
    0.8817   -2.4677   43.1962 C   0  0  1  0  0  0  0  0  0  0  0  0
   -0.0628   -3.4954   43.8980 C   0  0  1  0  0  0  0  0  0  0  0  0
   -1.0292   -2.8228   44.7942 N   0  3  0  0  0  0  0  0  0  0  0  0
   -0.8269   -4.3418   42.8472 C   0  0  0  0  0  0  0  0  0  0  0  0
    3.9301   -2.3075   40.9918 C   0  0  1  0  0  0  0  0  0  0  0  0
    4.0042   -2.2044   39.4569 C   0  0  2  0  0  0  0  0  0  0  0  0
    5.1169   -2.9345   38.9478 O   0  0  0  0  0  0  0  0  0  0  0  0
    4.1958   -0.6858   39.3262 C   0  0  1  0  0  0  0  0  0  0  0  0
    5.2035   -0.3897   40.4245 C   0  0  2  0  0  0  0  0  0  0  0  0
    4.7620   -1.2374   41.4739 O   0  0  0  0  0  0  0  0  0  0  0  0
    5.2438    1.0688   40.8985 C   0  0  0  0  0  0  0  0  0  0  0  0
    6.2401    1.2293   41.8974 O   0  0  0  0  0  0  0  0  0  0  0  0
    1.9827    1.9785   35.4827 C   0  0  1  0  0  0  0  0  0  0  0  0
    2.6195    3.2408   35.6724 O   0  0  0  0  0  0  0  0  0  0  0  0
    2.9690    1.0041   34.7803 C   0  0  2  0  0  0  0  0  0  0  0  0
    2.2271   -0.0994   34.2660 O   0  0  0  0  0  0  0  0  0  0  0  0
    4.1253    0.4572   35.6802 C   0  0  1  0  0  0  0  0  0  0  0  0
    5.2555    1.4118   35.7020 N   0  3  0  0  0  0  0  0  0  0  0  0
    3.6255    0.0860   37.1012 C   0  0  1  0  0  0  0  0  0  0  0  0
    4.6865   -0.2215   38.0385 O   0  0  0  0  0  0  0  0  0  0  0  0
    1.5449    1.3875   36.8464 C   0  0  1  0  0  0  0  0  0  0  0  0
    2.7467    1.1377   37.6255 O   0  0  0  0  0  0  0  0  0  0  0  0
    0.5592    2.2792   37.6243 C   0  0  0  0  0  0  0  0  0  0  0  0
    0.3120    3.5725   36.9572 N   0  3  0  0  0  0  0  0  0  0  0  0
  1  2  1  1  0  0  0
  1  3  1  0  0  0  0
  1 10  1  0  0  0  0
  3  4  1  6  0  0  0
  3  5  1  0  0  0  0
  5  6  1  1  0  0  0
  5  7  1  0  0  0  0
  7  8  1  1  0  0  0
  7  9  1  0  0  0  0
  9 10  1  0  0  0  0
  9 11  1  1  0  0  0
 11 12  1  0  0  0  0
 13 14  1  6  0  0  0
 13 15  1  0  0  0  0
 13 22  1  0  0  0  0
 15 16  1  1  0  0  0
 15 17  1  0  0  0  0
 17 18  1  6  0  0  0
 17 19  1  0  0  0  0
 19  2  1  1  0  0  0
 19 20  1  0  0  0  0
 20 21  1  6  0  0  0
 20 22  1  0  0  0  0
 23 18  1  1  0  0  0
 23 24  1  0  0  0  0
 23 28  1  0  0  0  0
 24 25  1  1  0  0  0
 24 26  1  0  0  0  0
 26 27  1  0  0  0  0
 26 38  1  6  0  0  0
 27 28  1  0  0  0  0
 27 29  1  1  0  0  0
 29 30  1  0  0  0  0
 31 32  1  1  0  0  0
 31 33  1  0  0  0  0
 31 39  1  0  0  0  0
 33 34  1  1  0  0  0
 33 35  1  0  0  0  0
 35 36  1  1  0  0  0
 35 37  1  0  0  0  0
 37 38  1  1  0  0  0
 37 40  1  0  0  0  0
 39 40  1  0  0  0  0
 39 41  1  1  0  0  0
 41 42  1  0  0  0  0
M  CHG  5   4   1  14   1  21   1  36   1  42   1
M  END
>  <CHROM.1>
-150.14714097,115.21216223,45.70719359,56.68488376,170.47333011,74.63702721
161.98388270,-45.90286487,169.20596961,-92.55879575,121.25546512,-2.36813621
-67.18056989,90.21342267,-178.58678810,147.86618443,50.01608021,155.07044136
-61.02389986,-174.64268620,-4.52801192,-170.88851075,2.33336721,-0.64188583
41.27601233,-2.12266775,-1.13170837,-1.88360017

>  <Name>
1pbr

>  <RI>
0

>  <Rbt.Current_Directory>
/home/itssahil/PROJECTS/Mol_Feturizer/New_Systems/rnas/1pbr

>  <Rbt.Executable>
rbdock ($Id: //depot/dev/client3/rdock/2013.1/src/exe/rbdock.cxx#4 $)

>  <Rbt.Library>
libRbt.so (2013.1, Build901 2013/11/27)

>  <Rbt.Parameter_File>
/export/apps/rDock/src/rDock_2013.1_src/data/scripts/dock_solv.prm

>  <Rbt.Receptor>
prm/pocket_docking_2.prm

>  <SCORE>
-49.6689

>  <SCORE.INTER>
-56.3934

>  <SCORE.INTER.CONST>
1

>  <SCORE.INTER.POLAR>
-6.86813

>  <SCORE.INTER.ROT>
9

>  <SCORE.INTER.SOLV>
27.9055

>  <SCORE.INTER.VDW>
-33.6037

>  <SCORE.INTER.norm>
-1.3427

>  <SCORE.INTRA>
6.36391

>  <SCORE.INTRA.DIHEDRAL>
17.1514

>  <SCORE.INTRA.DIHEDRAL.0>
29.7866

>  <SCORE.INTRA.POLAR>
-1.31155

>  <SCORE.INTRA.POLAR.0>
-0.984091

>  <SCORE.INTRA.REPUL>
-0.274115

>  <SCORE.INTRA.REPUL.0>
0.274115

>  <SCORE.INTRA.SOLV>
4.53648

>  <SCORE.INTRA.SOLV.lig_0>
-152.978

>  <SCORE.INTRA.VDW>
1.34985

>  <SCORE.INTRA.VDW.0>
-6.10719

>  <SCORE.INTRA.norm>
0.151522

>  <SCORE.RESTR>
0.360534

>  <SCORE.RESTR.CAVITY>
0.360534

>  <SCORE.RESTR.norm>
0.00858414

>  <SCORE.SYSTEM>
0

>  <SCORE.SYSTEM.CONST>
0

>  <SCORE.SYSTEM.DIHEDRAL>
0

>  <SCORE.SYSTEM.SOLV>
0

>  <SCORE.SYSTEM.norm>
0

>  <SCORE.heavy>
42

>  <SCORE.norm>
-1.18259

>  <RMSD>
0.876

$$$$
1pbr
 OpenBabel11021811403D
libRbt.so/2013.1/901 2013/11/27
 42 45  0  0  0  0  0  0  0  0999 V2000
    1.8961   -0.5749   44.2823 C   0  0  2  0  0  0  0  0  0  0  0  0
    1.4329   -1.9355   44.4759 O   0  0  0  0  0  0  0  0  0  0  0  0
    3.2768   -0.3463   45.0033 C   0  0  2  0  0  0  0  0  0  0  0  0
    4.2363   -1.4730   44.8686 N   0  3  0  0  0  0  0  0  0  0  0  0
    3.0954   -0.1129   46.5150 C   0  0  1  0  0  0  0  0  0  0  0  0
    4.3082    0.3508   47.1045 O   0  0  0  0  0  0  0  0  0  0  0  0
    1.9751    0.9025   46.7861 C   0  0  2  0  0  0  0  0  0  0  0  0
    1.8515    1.1382   48.1852 O   0  0  0  0  0  0  0  0  0  0  0  0
    0.6486    0.4380   46.1449 C   0  0  2  0  0  0  0  0  0  0  0  0
    0.8751    0.3632   44.7213 O   0  0  0  0  0  0  0  0  0  0  0  0
   -0.5282    1.3824   46.3841 C   0  0  0  0  0  0  0  0  0  0  0  0
   -1.5994    1.1071   45.4912 O   0  0  0  0  0  0  0  0  0  0  0  0
    0.0933   -5.1088   41.9573 C   0  0  1  0  0  0  0  0  0  0  0  0
   -0.5568   -5.9604   40.9444 N   0  3  0  0  0  0  0  0  0  0  0  0
    1.0816   -4.0848   41.3215 C   0  0  2  0  0  0  0  0  0  0  0  0
    2.0986   -4.7638   40.5886 O   0  0  0  0  0  0  0  0  0  0  0  0
    1.7642   -3.2067   42.4109 C   0  0  1  0  0  0  0  0  0  0  0  0
    2.5403   -2.1638   41.7499 O   0  0  0  0  0  0  0  0  0  0  0  0
    0.7223   -2.5483   43.3732 C   0  0  1  0  0  0  0  0  0  0  0  0
   -0.2960   -3.5772   43.9605 C   0  0  1  0  0  0  0  0  0  0  0  0
   -1.3277   -2.9115   44.7863 N   0  3  0  0  0  0  0  0  0  0  0  0
   -0.9769   -4.3824   42.8236 C   0  0  0  0  0  0  0  0  0  0  0  0
    3.8480   -2.4795   41.1737 C   0  0  1  0  0  0  0  0  0  0  0  0
    3.8590   -2.0310   39.7003 C   0  0  2  0  0  0  0  0  0  0  0  0
    4.8017   -2.7844   38.9428 O   0  0  0  0  0  0  0  0  0  0  0  0
    4.3016   -0.5730   39.8955 C   0  0  1  0  0  0  0  0  0  0  0  0
    5.4009   -0.7037   40.9367 C   0  0  2  0  0  0  0  0  0  0  0  0
    4.8753   -1.6954   41.8056 O   0  0  0  0  0  0  0  0  0  0  0  0
    5.7158    0.5779   41.7190 C   0  0  0  0  0  0  0  0  0  0  0  0
    4.6900    0.8349   42.6666 O   0  0  0  0  0  0  0  0  0  0  0  0
    2.3844    2.1159   35.7398 C   0  0  1  0  0  0  0  0  0  0  0  0
    3.2313    3.2589   35.6356 O   0  0  0  0  0  0  0  0  0  0  0  0
    3.1605    0.8547   35.2676 C   0  0  2  0  0  0  0  0  0  0  0  0
    2.2217   -0.1894   35.0205 O   0  0  0  0  0  0  0  0  0  0  0  0
    4.2493    0.3280   36.2589 C   0  0  1  0  0  0  0  0  0  0  0  0
    5.5230    1.0533   36.0568 N   0  3  0  0  0  0  0  0  0  0  0  0
    3.7606    0.3716   37.7306 C   0  0  1  0  0  0  0  0  0  0  0  0
    4.7974    0.0994   38.7053 O   0  0  0  0  0  0  0  0  0  0  0  0
    1.9173    1.9251   37.2047 C   0  0  1  0  0  0  0  0  0  0  0  0
    3.0951    1.6490   38.0112 O   0  0  0  0  0  0  0  0  0  0  0  0
    1.1314    3.1234   37.7691 C   0  0  0  0  0  0  0  0  0  0  0  0
   -0.0447    3.4715   36.9481 N   0  3  0  0  0  0  0  0  0  0  0  0
  1  2  1  1  0  0  0
  1  3  1  0  0  0  0
  1 10  1  0  0  0  0
  3  4  1  1  0  0  0
  3  5  1  0  0  0  0
  5  6  1  6  0  0  0
  5  7  1  0  0  0  0
  7  8  1  1  0  0  0
  7  9  1  0  0  0  0
  9 10  1  0  0  0  0
  9 11  1  6  0  0  0
 11 12  1  0  0  0  0
 13 14  1  6  0  0  0
 13 15  1  0  0  0  0
 13 22  1  0  0  0  0
 15 16  1  1  0  0  0
 15 17  1  0  0  0  0
 17 18  1  6  0  0  0
 17 19  1  0  0  0  0
 19  2  1  1  0  0  0
 19 20  1  0  0  0  0
 20 21  1  6  0  0  0
 20 22  1  0  0  0  0
 23 18  1  1  0  0  0
 23 24  1  0  0  0  0
 23 28  1  0  0  0  0
 24 25  1  6  0  0  0
 24 26  1  0  0  0  0
 26 27  1  0  0  0  0
 26 38  1  6  0  0  0
 27 28  1  0  0  0  0
 27 29  1  1  0  0  0
 29 30  1  0  0  0  0
 31 32  1  1  0  0  0
 31 33  1  0  0  0  0
 31 39  1  0  0  0  0
 33 34  1  1  0  0  0
 33 35  1  0  0  0  0
 35 36  1  1  0  0  0
 35 37  1  0  0  0  0
 37 38  1  1  0  0  0
 37 40  1  0  0  0  0
 39 40  1  0  0  0  0
 39 41  1  1  0  0  0
 41 42  1  0  0  0  0
M  CHG  5   4   1  14   1  21   1  36   1  42   1
M  END
>  <CHROM.1>
-144.65059818,86.97661366,179.51248408,-175.19796374,-175.54402324,164.08674283
94.20709312,-51.08584102,67.20754221,-78.39424975,126.28152810,143.71227531
-71.64912423,69.97241962,74.50144677,149.85706736,109.06701666,58.41453693
177.77821638,-147.82035178,56.05814917,53.29027930,2.36716359,-0.65198583
41.45040455,-2.23874190,-1.20068215,-1.96854113

>  <Name>
1pbr

>  <RI>
0

>  <Rbt.Current_Directory>
/home/itssahil/PROJECTS/Mol_Feturizer/New_Systems/rnas/1pbr

>  <Rbt.Executable>
rbdock ($Id: //depot/dev/client3/rdock/2013.1/src/exe/rbdock.cxx#4 $)

>  <Rbt.Library>
libRbt.so (2013.1, Build901 2013/11/27)

>  <Rbt.Parameter_File>
/export/apps/rDock/src/rDock_2013.1_src/data/scripts/dock_solv.prm

>  <Rbt.Receptor>
prm/pocket_docking_2.prm

>  <SCORE>
-45.5551

>  <SCORE.INTER>
-49.9921

>  <SCORE.INTER.CONST>
1

>  <SCORE.INTER.POLAR>
-6.41016

>  <SCORE.INTER.ROT>
9

>  <SCORE.INTER.SOLV>
24.3685

>  <SCORE.INTER.VDW>
-29.6837

>  <SCORE.INTER.norm>
-1.19029

>  <SCORE.INTRA>
4.33592

>  <SCORE.INTRA.DIHEDRAL>
11.6432

>  <SCORE.INTRA.DIHEDRAL.0>
29.7866

>  <SCORE.INTRA.POLAR>
-0.21347

>  <SCORE.INTRA.POLAR.0>
-0.984091

>  <SCORE.INTRA.REPUL>
-0.267979

>  <SCORE.INTRA.REPUL.0>
0.274115

>  <SCORE.INTRA.SOLV>
1.5389

>  <SCORE.INTRA.SOLV.lig_0>
-152.978

>  <SCORE.INTRA.VDW>
-0.18943

>  <SCORE.INTRA.VDW.0>
-6.10719

>  <SCORE.INTRA.norm>
0.103236

>  <SCORE.RESTR>
0.101082

>  <SCORE.RESTR.CAVITY>
0.101082

>  <SCORE.RESTR.norm>
0.00240671

>  <SCORE.SYSTEM>
0

>  <SCORE.SYSTEM.CONST>
0

>  <SCORE.SYSTEM.DIHEDRAL>
0

>  <SCORE.SYSTEM.SOLV>
0

>  <SCORE.SYSTEM.norm>
0

>  <SCORE.heavy>
42

>  <SCORE.norm>
-1.08465

>  <RMSD>
0.877

$$$$
1pbr
 OpenBabel11021811403D
libRbt.so/2013.1/901 2013/11/27
 42 45  0  0  0  0  0  0  0  0999 V2000
    1.7553   -0.3946   44.5109 C   0  0  2  0  0  0  0  0  0  0  0  0
    1.3317   -1.7652   44.7236 O   0  0  0  0  0  0  0  0  0  0  0  0
    3.0997   -0.0997   45.2750 C   0  0  2  0  0  0  0  0  0  0  0  0
    4.1013   -1.1952   45.2050 N   0  3  0  0  0  0  0  0  0  0  0  0
    2.8546    0.1654   46.7725 C   0  0  1  0  0  0  0  0  0  0  0  0
    4.0282    0.6859   47.3929 O   0  0  0  0  0  0  0  0  0  0  0  0
    1.6910    1.1474   46.9758 C   0  0  2  0  0  0  0  0  0  0  0  0
    1.5078    1.4139   48.3628 O   0  0  0  0  0  0  0  0  0  0  0  0
    0.4058    0.6208   46.2996 C   0  0  2  0  0  0  0  0  0  0  0  0
    0.6873    0.5180   44.8877 O   0  0  0  0  0  0  0  0  0  0  0  0
   -0.8106    1.5292   46.4710 C   0  0  0  0  0  0  0  0  0  0  0  0
   -1.8056    1.2470   45.4959 O   0  0  0  0  0  0  0  0  0  0  0  0
    0.2010   -5.0095   42.1930 C   0  0  1  0  0  0  0  0  0  0  0  0
   -0.3956   -5.8989   41.1796 N   0  3  0  0  0  0  0  0  0  0  0  0
    1.1062   -3.9119   41.5560 C   0  0  2  0  0  0  0  0  0  0  0  0
    2.1624   -4.5102   40.8084 O   0  0  0  0  0  0  0  0  0  0  0  0
    1.7340   -2.9944   42.6458 C   0  0  1  0  0  0  0  0  0  0  0  0
    2.4259   -1.8932   41.9857 O   0  0  0  0  0  0  0  0  0  0  0  0
    0.6566   -2.4201   43.6228 C   0  0  1  0  0  0  0  0  0  0  0  0
   -0.2786   -3.5244   44.2116 C   0  0  1  0  0  0  0  0  0  0  0  0
   -1.3477   -2.9412   45.0521 N   0  3  0  0  0  0  0  0  0  0  0  0
   -0.9105   -4.3689   43.0749 C   0  0  0  0  0  0  0  0  0  0  0  0
    3.8580   -1.9947   41.7018 C   0  0  1  0  0  0  0  0  0  0  0  0
    4.0599   -1.9856   40.1749 C   0  0  2  0  0  0  0  0  0  0  0  0
    5.2740   -2.6388   39.8152 O   0  0  0  0  0  0  0  0  0  0  0  0
    4.1270   -0.4675   39.9498 C   0  0  1  0  0  0  0  0  0  0  0  0
    5.0021   -0.0062   41.1035 C   0  0  2  0  0  0  0  0  0  0  0  0
    4.5452   -0.8216   42.1717 O   0  0  0  0  0  0  0  0  0  0  0  0
    4.8703    1.4774   41.4710 C   0  0  0  0  0  0  0  0  0  0  0  0
    3.5177    1.7864   41.7729 O   0  0  0  0  0  0  0  0  0  0  0  0
    2.4099    2.1794   35.7529 C   0  0  1  0  0  0  0  0  0  0  0  0
    3.3054    3.2886   35.7035 O   0  0  0  0  0  0  0  0  0  0  0  0
    3.1401    0.9045   35.2458 C   0  0  2  0  0  0  0  0  0  0  0  0
    2.1626   -0.0892   34.9465 O   0  0  0  0  0  0  0  0  0  0  0  0
    4.1898    0.2965   36.2328 C   0  0  1  0  0  0  0  0  0  0  0  0
    5.4957    0.9740   36.0764 N   0  3  0  0  0  0  0  0  0  0  0  0
    3.6795    0.3072   37.6978 C   0  0  1  0  0  0  0  0  0  0  0  0
    4.6881   -0.0439   38.6768 O   0  0  0  0  0  0  0  0  0  0  0  0
    1.9115    1.9555   37.2027 C   0  0  1  0  0  0  0  0  0  0  0  0
    3.0635    1.6006   38.0156 O   0  0  0  0  0  0  0  0  0  0  0  0
    1.1673    3.1647   37.7995 C   0  0  0  0  0  0  0  0  0  0  0  0
   -0.0639    3.4993   37.0574 N   0  3  0  0  0  0  0  0  0  0  0  0
  1  2  1  1  0  0  0
  1  3  1  0  0  0  0
  1 10  1  0  0  0  0
  3  4  1  1  0  0  0
  3  5  1  0  0  0  0
  5  6  1  6  0  0  0
  5  7  1  0  0  0  0
  7  8  1  1  0  0  0
  7  9  1  0  0  0  0
  9 10  1  0  0  0  0
  9 11  1  6  0  0  0
 11 12  1  0  0  0  0
 13 14  1  6  0  0  0
 13 15  1  0  0  0  0
 13 22  1  0  0  0  0
 15 16  1  1  0  0  0
 15 17  1  0  0  0  0
 17 18  1  6  0  0  0
 17 19  1  0  0  0  0
 19  2  1  1  0  0  0
 19 20  1  0  0  0  0
 20 21  1  6  0  0  0
 20 22  1  0  0  0  0
 23 18  1  6  0  0  0
 23 24  1  0  0  0  0
 23 28  1  0  0  0  0
 24 25  1  1  0  0  0
 24 26  1  0  0  0  0
 26 27  1  0  0  0  0
 26 38  1  6  0  0  0
 27 28  1  0  0  0  0
 27 29  1  1  0  0  0
 29 30  1  0  0  0  0
 31 32  1  1  0  0  0
 31 33  1  0  0  0  0
 31 39  1  0  0  0  0
 33 34  1  1  0  0  0
 33 35  1  0  0  0  0
 35 36  1  1  0  0  0
 35 37  1  0  0  0  0
 37 38  1  1  0  0  0
 37 40  1  0  0  0  0
 39 40  1  0  0  0  0
 39 41  1  1  0  0  0
 41 42  1  0  0  0  0
M  CHG  5   4   1  14   1  21   1  36   1  42   1
M  END
>  <CHROM.1>
-146.01291080,83.85845263,-178.74967649,-74.14171558,-61.46688265,160.59627721
84.88627334,-62.95408748,176.18885124,-94.07006738,115.65712107,98.12640890
176.05137120,99.56720280,56.64502332,160.85672606,-176.17456762,60.41373375
-177.67939678,-160.45976572,62.37203484,-166.19519792,2.24987388,-0.46110818
41.59511497,-2.45520931,-1.25930436,-2.20540697

>  <Name>
1pbr

>  <RI>
0

>  <Rbt.Current_Directory>
/home/itssahil/PROJECTS/Mol_Feturizer/New_Systems/rnas/1pbr

>  <Rbt.Executable>
rbdock ($Id: //depot/dev/client3/rdock/2013.1/src/exe/rbdock.cxx#4 $)

>  <Rbt.Library>
libRbt.so (2013.1, Build901 2013/11/27)

>  <Rbt.Parameter_File>
/export/apps/rDock/src/rDock_2013.1_src/data/scripts/dock_solv.prm

>  <Rbt.Receptor>
prm/pocket_docking_2.prm

>  <SCORE>
-48.0498

>  <SCORE.INTER>
-49.6437

>  <SCORE.INTER.CONST>
1

>  <SCORE.INTER.POLAR>
-5.84204

>  <SCORE.INTER.ROT>
9

>  <SCORE.INTER.SOLV>
25.7083

>  <SCORE.INTER.VDW>
-31.7918

>  <SCORE.INTER.norm>
-1.18199

>  <SCORE.INTRA>
1.59387

>  <SCORE.INTRA.DIHEDRAL>
6.01628

>  <SCORE.INTRA.DIHEDRAL.0>
29.7866

>  <SCORE.INTRA.POLAR>
-0.18385

>  <SCORE.INTRA.POLAR.0>
-0.984091

>  <SCORE.INTRA.REPUL>
-0.226799

>  <SCORE.INTRA.REPUL.0>
0.274115

>  <SCORE.INTRA.SOLV>
-0.363639

>  <SCORE.INTRA.SOLV.lig_0>
-152.978

>  <SCORE.INTRA.VDW>
0.526638

>  <SCORE.INTRA.VDW.0>
-6.10719

>  <SCORE.INTRA.norm>
0.0379494

>  <SCORE.RESTR>
0

>  <SCORE.RESTR.CAVITY>
0

>  <SCORE.RESTR.norm>
0

>  <SCORE.SYSTEM>
0

>  <SCORE.SYSTEM.CONST>
0

>  <SCORE.SYSTEM.DIHEDRAL>
0

>  <SCORE.SYSTEM.SOLV>
0

>  <SCORE.SYSTEM.norm>
0

>  <SCORE.heavy>
42

>  <SCORE.norm>
-1.14404

>  <RMSD>
0.887

$$$$
1pbr
 OpenBabel11021811403D
libRbt.so/2013.1/901 2013/11/27
 42 45  0  0  0  0  0  0  0  0999 V2000
    2.2486   -0.5189   44.3245 C   0  0  2  0  0  0  0  0  0  0  0  0
    1.9007   -1.9130   44.5211 O   0  0  0  0  0  0  0  0  0  0  0  0
    3.5902   -0.1669   45.0693 C   0  0  2  0  0  0  0  0  0  0  0  0
    4.6457   -1.2074   44.9623 N   0  3  0  0  0  0  0  0  0  0  0  0
    3.3600    0.0604   46.5753 C   0  0  1  0  0  0  0  0  0  0  0  0
    4.5166    0.6311   47.1834 O   0  0  0  0  0  0  0  0  0  0  0  0
    2.1512    0.9770   46.8166 C   0  0  2  0  0  0  0  0  0  0  0  0
    1.9807    1.2108   48.2111 O   0  0  0  0  0  0  0  0  0  0  0  0
    0.8825    0.3953   46.1546 C   0  0  2  0  0  0  0  0  0  0  0  0
    1.1422    0.3305   44.7363 O   0  0  0  0  0  0  0  0  0  0  0  0
   -0.3758    1.2362   46.3637 C   0  0  0  0  0  0  0  0  0  0  0  0
   -1.3589    0.9458   45.3789 O   0  0  0  0  0  0  0  0  0  0  0  0
    0.3477   -5.0159   42.0375 C   0  0  1  0  0  0  0  0  0  0  0  0
   -0.4240   -5.8553   41.1027 N   0  3  0  0  0  0  0  0  0  0  0  0
    1.0782   -3.8444   41.3138 C   0  0  2  0  0  0  0  0  0  0  0  0
    1.9717   -4.3504   40.3248 O   0  0  0  0  0  0  0  0  0  0  0  0
    1.8955   -2.9811   42.3189 C   0  0  1  0  0  0  0  0  0  0  0  0
    2.4125   -1.8122   41.6163 O   0  0  0  0  0  0  0  0  0  0  0  0
    1.0289   -2.5156   43.5344 C   0  0  1  0  0  0  0  0  0  0  0  0
    0.2594   -3.6917   44.2166 C   0  0  1  0  0  0  0  0  0  0  0  0
   -0.6273   -3.2075   45.2978 N   0  3  0  0  0  0  0  0  0  0  0  0
   -0.5732   -4.4791   43.1720 C   0  0  0  0  0  0  0  0  0  0  0  0
    3.8560   -1.6385   41.4495 C   0  0  1  0  0  0  0  0  0  0  0  0
    4.1509   -1.3610   39.9635 C   0  0  2  0  0  0  0  0  0  0  0  0
    5.4795   -1.7482   39.6242 O   0  0  0  0  0  0  0  0  0  0  0  0
    3.9714    0.1646   39.9631 C   0  0  1  0  0  0  0  0  0  0  0  0
    4.6787    0.5755   41.2439 C   0  0  2  0  0  0  0  0  0  0  0  0
    4.3006   -0.4577   42.1406 O   0  0  0  0  0  0  0  0  0  0  0  0
    4.2715    1.9440   41.8051 C   0  0  0  0  0  0  0  0  0  0  0  0
    4.5726    2.0116   43.1911 O   0  0  0  0  0  0  0  0  0  0  0  0
    2.3915    1.5550   35.1272 C   0  0  1  0  0  0  0  0  0  0  0  0
    2.6278    2.9615   35.0989 O   0  0  0  0  0  0  0  0  0  0  0  0
    3.7469    0.8024   35.0172 C   0  0  2  0  0  0  0  0  0  0  0  0
    3.4848   -0.5560   34.6732 O   0  0  0  0  0  0  0  0  0  0  0  0
    4.6365    0.8331   36.3031 C   0  0  1  0  0  0  0  0  0  0  0  0
    5.4499    2.0684   36.3366 N   0  3  0  0  0  0  0  0  0  0  0  0
    3.7964    0.6323   37.5919 C   0  0  1  0  0  0  0  0  0  0  0  0
    4.5321    0.8643   38.8182 O   0  0  0  0  0  0  0  0  0  0  0  0
    1.6768    1.1568   36.4430 C   0  0  1  0  0  0  0  0  0  0  0  0
    2.5804    1.4523   37.5430 O   0  0  0  0  0  0  0  0  0  0  0  0
    0.3159    1.8485   36.6468 C   0  0  0  0  0  0  0  0  0  0  0  0
   -0.0396    1.9987   38.0714 N   0  3  0  0  0  0  0  0  0  0  0  0
  1  2  1  1  0  0  0
  1  3  1  0  0  0  0
  1 10  1  0  0  0  0
  3  4  1  1  0  0  0
  3  5  1  0  0  0  0
  5  6  1  6  0  0  0
  5  7  1  0  0  0  0
  7  8  1  1  0  0  0
  7  9  1  0  0  0  0
  9 10  1  0  0  0  0
  9 11  1  6  0  0  0
 11 12  1  0  0  0  0
 13 14  1  6  0  0  0
 13 15  1  0  0  0  0
 13 22  1  0  0  0  0
 15 16  1  6  0  0  0
 15 17  1  0  0  0  0
 17 18  1  6  0  0  0
 17 19  1  0  0  0  0
 19  2  1  1  0  0  0
 19 20  1  0  0  0  0
 20 21  1  1  0  0  0
 20 22  1  0  0  0  0
 23 18  1  6  0  0  0
 23 24  1  0  0  0  0
 23 28  1  0  0  0  0
 24 25  1  1  0  0  0
 24 26  1  0  0  0  0
 26 27  1  0  0  0  0
 26 38  1  6  0  0  0
 27 28  1  0  0  0  0
 27 29  1  1  0  0  0
 29 30  1  0  0  0  0
 31 32  1  1  0  0  0
 31 33  1  0  0  0  0
 31 39  1  0  0  0  0
 33 34  1  1  0  0  0
 33 35  1  0  0  0  0
 35 36  1  1  0  0  0
 35 37  1  0  0  0  0
 37 38  1  1  0  0  0
 37 40  1  0  0  0  0
 39 40  1  0  0  0  0
 39 41  1  1  0  0  0
 41 42  1  0  0  0  0
M  CHG  5   4   1  14   1  21   1  36   1  42   1
M  END
>  <CHROM.1>
-157.06751447,83.42616686,59.93338216,62.59857130,-55.72598485,158.93696138
-46.17017754,77.44486642,176.74168143,-115.27384135,129.05761227,60.98070513
-173.20243760,70.99513232,158.01591151,53.47743915,143.20284299,70.38646347
62.83370728,-155.62390781,-152.51905439,-179.42189563,2.44684150,-0.47106200
41.48596635,-1.93305116,-1.02882897,-1.67549237

>  <Name>
1pbr

>  <RI>
0

>  <Rbt.Current_Directory>
/home/itssahil/PROJECTS/Mol_Feturizer/New_Systems/rnas/1pbr

>  <Rbt.Executable>
rbdock ($Id: //depot/dev/client3/rdock/2013.1/src/exe/rbdock.cxx#4 $)

>  <Rbt.Library>
libRbt.so (2013.1, Build901 2013/11/27)

>  <Rbt.Parameter_File>
/export/apps/rDock/src/rDock_2013.1_src/data/scripts/dock_solv.prm

>  <Rbt.Receptor>
prm/pocket_docking_2.prm

>  <SCORE>
-51.7942

>  <SCORE.INTER>
-51.226

>  <SCORE.INTER.CONST>
1

>  <SCORE.INTER.POLAR>
-6.17847

>  <SCORE.INTER.ROT>
9

>  <SCORE.INTER.SOLV>
31.0265

>  <SCORE.INTER.VDW>
-33.4979

>  <SCORE.INTER.norm>
-1.21967

>  <SCORE.INTRA>
-0.713997

>  <SCORE.INTRA.DIHEDRAL>
5.46631

>  <SCORE.INTRA.DIHEDRAL.0>
29.7866

>  <SCORE.INTRA.POLAR>
-0.0582902

>  <SCORE.INTRA.POLAR.0>
-0.984091

>  <SCORE.INTRA.REPUL>
-0.274115

>  <SCORE.INTRA.REPUL.0>
0.274115

>  <SCORE.INTRA.SOLV>
-1.67417

>  <SCORE.INTRA.SOLV.lig_0>
-152.978

>  <SCORE.INTRA.VDW>
-1.04131

>  <SCORE.INTRA.VDW.0>
-6.10719

>  <SCORE.INTRA.norm>
-0.0169999

>  <SCORE.RESTR>
0.145769

>  <SCORE.RESTR.CAVITY>
0.145769

>  <SCORE.RESTR.norm>
0.00347069

>  <SCORE.SYSTEM>
0

>  <SCORE.SYSTEM.CONST>
0

>  <SCORE.SYSTEM.DIHEDRAL>
0

>  <SCORE.SYSTEM.SOLV>
0

>  <SCORE.SYSTEM.norm>
0

>  <SCORE.heavy>
42

>  <SCORE.norm>
-1.2332

>  <RMSD>
0.899

$$$$
1pbr
 OpenBabel11021811403D
libRbt.so/2013.1/901 2013/11/27
 42 45  0  0  0  0  0  0  0  0999 V2000
    2.1068   -0.2705   44.4012 C   0  0  2  0  0  0  0  0  0  0  0  0
    1.8430   -1.6818   44.6059 O   0  0  0  0  0  0  0  0  0  0  0  0
    3.4161    0.1691   45.1567 C   0  0  2  0  0  0  0  0  0  0  0  0
    4.5346   -0.8054   45.0695 N   0  3  0  0  0  0  0  0  0  0  0  0
    3.1561    0.3937   46.6583 C   0  0  1  0  0  0  0  0  0  0  0  0
    4.2688    1.0392   47.2735 O   0  0  0  0  0  0  0  0  0  0  0  0
    1.8908    1.2362   46.8793 C   0  0  2  0  0  0  0  0  0  0  0  0
    1.6911    1.4700   48.2699 O   0  0  0  0  0  0  0  0  0  0  0  0
    0.6673    0.5724   46.2092 C   0  0  2  0  0  0  0  0  0  0  0  0
    0.9460    0.5125   44.7942 O   0  0  0  0  0  0  0  0  0  0  0  0
   -0.6424    1.3360   46.3980 C   0  0  0  0  0  0  0  0  0  0  0  0
   -1.6144    0.9358   45.4412 O   0  0  0  0  0  0  0  0  0  0  0  0
    0.2743   -4.9208   42.3133 C   0  0  1  0  0  0  0  0  0  0  0  0
   -0.4939   -5.8075   41.4204 N   0  3  0  0  0  0  0  0  0  0  0  0
    1.0574   -3.8260   41.5272 C   0  0  2  0  0  0  0  0  0  0  0  0
    1.9640   -4.4275   40.6058 O   0  0  0  0  0  0  0  0  0  0  0  0
    1.8700   -2.9112   42.4898 C   0  0  1  0  0  0  0  0  0  0  0  0
    2.4391   -1.8120   41.7185 O   0  0  0  0  0  0  0  0  0  0  0  0
    0.9828   -2.3338   43.6408 C   0  0  1  0  0  0  0  0  0  0  0  0
    0.1617   -3.4352   44.3846 C   0  0  1  0  0  0  0  0  0  0  0  0
   -0.7411   -2.8488   45.3997 N   0  3  0  0  0  0  0  0  0  0  0  0
   -0.6628   -4.2769   43.3766 C   0  0  0  0  0  0  0  0  0  0  0  0
    3.8565   -1.8310   41.3545 C   0  0  1  0  0  0  0  0  0  0  0  0
    3.9833   -2.2893   39.8896 C   0  0  2  0  0  0  0  0  0  0  0  0
    5.2584   -2.8767   39.6455 O   0  0  0  0  0  0  0  0  0  0  0  0
    3.8278   -0.9272   39.1966 C   0  0  1  0  0  0  0  0  0  0  0  0
    4.6833   -0.0207   40.0660 C   0  0  2  0  0  0  0  0  0  0  0  0
    4.3949   -0.4971   41.3716 O   0  0  0  0  0  0  0  0  0  0  0  0
    4.3636    1.4762   39.9620 C   0  0  0  0  0  0  0  0  0  0  0  0
    3.0518    1.7289   40.4433 O   0  0  0  0  0  0  0  0  0  0  0  0
    2.3732    2.3669   35.6624 C   0  0  1  0  0  0  0  0  0  0  0  0
    3.3540    3.3437   36.0066 O   0  0  0  0  0  0  0  0  0  0  0  0
    3.0346    1.2528   34.8039 C   0  0  2  0  0  0  0  0  0  0  0  0
    2.0053    0.5027   34.1633 O   0  0  0  0  0  0  0  0  0  0  0  0
    3.9632    0.2669   35.5859 C   0  0  1  0  0  0  0  0  0  0  0  0
    5.3258    0.8305   35.7072 N   0  3  0  0  0  0  0  0  0  0  0  0
    3.3558   -0.1356   36.9555 C   0  0  1  0  0  0  0  0  0  0  0  0
    4.2642   -0.8724   37.8105 O   0  0  0  0  0  0  0  0  0  0  0  0
    1.7604    1.7465   36.9431 C   0  0  1  0  0  0  0  0  0  0  0  0
    2.8225    1.0447   37.6454 O   0  0  0  0  0  0  0  0  0  0  0  0
    1.0738    2.7716   37.8649 C   0  0  0  0  0  0  0  0  0  0  0  0
   -0.0695    3.4443   37.2178 N   0  3  0  0  0  0  0  0  0  0  0  0
  1  2  1  1  0  0  0
  1  3  1  0  0  0  0
  1 10  1  0  0  0  0
  3  4  1  1  0  0  0
  3  5  1  0  0  0  0
  5  6  1  6  0  0  0
  5  7  1  0  0  0  0
  7  8  1  1  0  0  0
  7  9  1  0  0  0  0
  9 10  1  0  0  0  0
  9 11  1  6  0  0  0
 11 12  1  0  0  0  0
 13 14  1  6  0  0  0
 13 15  1  0  0  0  0
 13 22  1  0  0  0  0
 15 16  1  6  0  0  0
 15 17  1  0  0  0  0
 17 18  1  6  0  0  0
 17 19  1  0  0  0  0
 19  2  1  1  0  0  0
 19 20  1  0  0  0  0
 20 21  1  1  0  0  0
 20 22  1  0  0  0  0
 23 18  1  6  0  0  0
 23 24  1  0  0  0  0
 23 28  1  0  0  0  0
 24 25  1  1  0  0  0
 24 26  1  0  0  0  0
 26 27  1  0  0  0  0
 26 38  1  6  0  0  0
 27 28  1  0  0  0  0
 27 29  1  1  0  0  0
 29 30  1  0  0  0  0
 31 32  1  1  0  0  0
 31 33  1  0  0  0  0
 31 39  1  0  0  0  0
 33 34  1  1  0  0  0
 33 35  1  0  0  0  0
 35 36  1  1  0  0  0
 35 37  1  0  0  0  0
 37 38  1  1  0  0  0
 37 40  1  0  0  0  0
 39 40  1  0  0  0  0
 39 41  1  1  0  0  0
 41 42  1  0  0  0  0
M  CHG  5   4   1  14   1  21   1  36   1  42   1
M  END
>  <CHROM.1>
-159.13919977,90.51414064,157.65444825,-52.53760422,173.94198101,161.46214918
154.62132312,76.27048022,62.73033966,-102.98423348,100.59518884,50.35309097
59.25945418,137.42893769,64.48320023,63.14558586,65.97643575,167.04382912
-71.94105415,164.35174453,62.09924419,173.25870028,2.27848022,-0.46584164
41.33830056,-2.46678589,-1.31457573,-2.25235836

>  <Name>
1pbr

>  <RI>
0

>  <Rbt.Current_Directory>
/home/itssahil/PROJECTS/Mol_Feturizer/New_Systems/rnas/1pbr

>  <Rbt.Executable>
rbdock ($Id: //depot/dev/client3/rdock/2013.1/src/exe/rbdock.cxx#4 $)

>  <Rbt.Library>
libRbt.so (2013.1, Build901 2013/11/27)

>  <Rbt.Parameter_File>
/export/apps/rDock/src/rDock_2013.1_src/data/scripts/dock_solv.prm

>  <Rbt.Receptor>
prm/pocket_docking_2.prm

>  <SCORE>
-49.52

>  <SCORE.INTER>
-52.3737

>  <SCORE.INTER.CONST>
1

>  <SCORE.INTER.POLAR>
-6.65488

>  <SCORE.INTER.ROT>
9

>  <SCORE.INTER.SOLV>
28.9773

>  <SCORE.INTER.VDW>
-31.9919

>  <SCORE.INTER.norm>
-1.24699

>  <SCORE.INTRA>
2.85368

>  <SCORE.INTRA.DIHEDRAL>
2.87067

>  <SCORE.INTRA.DIHEDRAL.0>
29.7866

>  <SCORE.INTRA.POLAR>
0.898013

>  <SCORE.INTRA.POLAR.0>
-0.984091

>  <SCORE.INTRA.REPUL>
-0.274115

>  <SCORE.INTRA.REPUL.0>
0.274115

>  <SCORE.INTRA.SOLV>
0.157333

>  <SCORE.INTRA.SOLV.lig_0>
-152.978

>  <SCORE.INTRA.VDW>
-0.342987

>  <SCORE.INTRA.VDW.0>
-6.10719

>  <SCORE.INTRA.norm>
0.0679448

>  <SCORE.RESTR>
0

>  <SCORE.RESTR.CAVITY>
0

>  <SCORE.RESTR.norm>
0

>  <SCORE.SYSTEM>
0

>  <SCORE.SYSTEM.CONST>
0

>  <SCORE.SYSTEM.DIHEDRAL>
0

>  <SCORE.SYSTEM.SOLV>
0

>  <SCORE.SYSTEM.norm>
0

>  <SCORE.heavy>
42

>  <SCORE.norm>
-1.17905

>  <RMSD>
0.957

$$$$
1pbr
 OpenBabel11021811403D
libRbt.so/2013.1/901 2013/11/27
 42 45  0  0  0  0  0  0  0  0999 V2000
    1.7589   -0.2764   44.1463 C   0  0  2  0  0  0  0  0  0  0  0  0
    1.3641   -1.6716   44.1166 O   0  0  0  0  0  0  0  0  0  0  0  0
    3.0884   -0.0889   44.9683 C   0  0  2  0  0  0  0  0  0  0  0  0
    4.1150   -1.1357   44.7268 N   0  3  0  0  0  0  0  0  0  0  0  0
    2.8219   -0.0882   46.4854 C   0  0  1  0  0  0  0  0  0  0  0  0
    3.9771    0.3427   47.2019 O   0  0  0  0  0  0  0  0  0  0  0  0
    1.6346    0.8209   46.8368 C   0  0  2  0  0  0  0  0  0  0  0  0
    1.4311    0.8431   48.2461 O   0  0  0  0  0  0  0  0  0  0  0  0
    0.3686    0.3913   46.0627 C   0  0  2  0  0  0  0  0  0  0  0  0
    0.6669    0.5366   44.6580 O   0  0  0  0  0  0  0  0  0  0  0  0
   -0.8696    1.2322   46.3693 C   0  0  0  0  0  0  0  0  0  0  0  0
   -1.3844    0.9390   47.6614 O   0  0  0  0  0  0  0  0  0  0  0  0
    0.8610   -4.6107   41.0643 C   0  0  1  0  0  0  0  0  0  0  0  0
    0.5011   -5.3837   39.8615 N   0  3  0  0  0  0  0  0  0  0  0  0
    1.8217   -3.4269   40.7398 C   0  0  2  0  0  0  0  0  0  0  0  0
    3.0228   -3.9101   40.1427 O   0  0  0  0  0  0  0  0  0  0  0  0
    2.1969   -2.6344   42.0262 C   0  0  1  0  0  0  0  0  0  0  0  0
    2.9524   -1.4485   41.6393 O   0  0  0  0  0  0  0  0  0  0  0  0
    0.9334   -2.2030   42.8404 C   0  0  1  0  0  0  0  0  0  0  0  0
   -0.0475   -3.3883   43.1114 C   0  0  1  0  0  0  0  0  0  0  0  0
   -1.2777   -2.9314   43.7950 N   0  3  0  0  0  0  0  0  0  0  0  0
   -0.4210   -4.1027   41.7867 C   0  0  0  0  0  0  0  0  0  0  0  0
    4.3595   -1.5707   41.2561 C   0  0  1  0  0  0  0  0  0  0  0  0
    4.4853   -1.2945   39.7461 C   0  0  2  0  0  0  0  0  0  0  0  0
    5.6373   -1.9333   39.2030 O   0  0  0  0  0  0  0  0  0  0  0  0
    4.6348    0.2337   39.7923 C   0  0  1  0  0  0  0  0  0  0  0  0
    5.5931    0.4315   40.9551 C   0  0  2  0  0  0  0  0  0  0  0  0
    5.1405   -0.5397   41.8859 O   0  0  0  0  0  0  0  0  0  0  0  0
    5.5717    1.8284   41.5890 C   0  0  0  0  0  0  0  0  0  0  0  0
    4.3903    1.9962   42.3587 O   0  0  0  0  0  0  0  0  0  0  0  0
    2.4932    2.2697   35.4893 C   0  0  1  0  0  0  0  0  0  0  0  0
    2.8595    3.6423   35.6183 O   0  0  0  0  0  0  0  0  0  0  0  0
    3.7280    1.4482   35.0245 C   0  0  2  0  0  0  0  0  0  0  0  0
    3.2770    0.1836   34.5450 O   0  0  0  0  0  0  0  0  0  0  0  0
    4.8238    1.2111   36.1148 C   0  0  1  0  0  0  0  0  0  0  0  0
    5.7496    2.3638   36.1728 N   0  3  0  0  0  0  0  0  0  0  0  0
    4.2020    0.8704   37.4946 C   0  0  1  0  0  0  0  0  0  0  0  0
    5.1569    0.8521   38.5841 O   0  0  0  0  0  0  0  0  0  0  0  0
    1.9793    1.7212   36.8441 C   0  0  1  0  0  0  0  0  0  0  0  0
    3.0832    1.7733   37.7888 O   0  0  0  0  0  0  0  0  0  0  0  0
    0.7491    2.4683   37.3924 C   0  0  0  0  0  0  0  0  0  0  0  0
    0.8528    2.7542   38.8367 N   0  3  0  0  0  0  0  0  0  0  0  0
  1  2  1  1  0  0  0
  1  3  1  0  0  0  0
  1 10  1  0  0  0  0
  3  4  1  1  0  0  0
  3  5  1  0  0  0  0
  5  6  1  1  0  0  0
  5  7  1  0  0  0  0
  7  8  1  1  0  0  0
  7  9  1  0  0  0  0
  9 10  1  0  0  0  0
  9 11  1  1  0  0  0
 11 12  1  0  0  0  0
 13 14  1  6  0  0  0
 13 15  1  0  0  0  0
 13 22  1  0  0  0  0
 15 16  1  1  0  0  0
 15 17  1  0  0  0  0
 17 18  1  6  0  0  0
 17 19  1  0  0  0  0
 19  2  1  1  0  0  0
 19 20  1  0  0  0  0
 20 21  1  6  0  0  0
 20 22  1  0  0  0  0
 23 18  1  1  0  0  0
 23 24  1  0  0  0  0
 23 28  1  0  0  0  0
 24 25  1  1  0  0  0
 24 26  1  0  0  0  0
 26 27  1  0  0  0  0
 26 38  1  6  0  0  0
 27 28  1  0  0  0  0
 27 29  1  1  0  0  0
 29 30  1  0  0  0  0
 31 32  1  1  0  0  0
 31 33  1  0  0  0  0
 31 39  1  0  0  0  0
 33 34  1  1  0  0  0
 33 35  1  0  0  0  0
 35 36  1  1  0  0  0
 35 37  1  0  0  0  0
 37 38  1  1  0  0  0
 37 40  1  0  0  0  0
 39 40  1  0  0  0  0
 39 41  1  1  0  0  0
 41 42  1  0  0  0  0
M  CHG  5   4   1  14   1  21   1  36   1  42   1
M  END
>  <CHROM.1>
-135.47747075,83.98885135,-57.87142080,-65.71274484,-53.74857866,-72.88907223
-149.55987637,17.30309188,66.37873599,-76.84486356,110.56323814,176.66992344
-173.13402950,72.83209424,73.54163281,-55.11430119,56.31054518,91.11034206
-70.31300158,-166.37619110,-136.07194906,-129.42511890,2.57985662,-0.25731143
41.32310986,-2.25112789,-1.11477041,-1.99689682

>  <Name>
1pbr

>  <RI>
0

>  <Rbt.Current_Directory>
/home/itssahil/PROJECTS/Mol_Feturizer/New_Systems/rnas/1pbr

>  <Rbt.Executable>
rbdock ($Id: //depot/dev/client3/rdock/2013.1/src/exe/rbdock.cxx#4 $)

>  <Rbt.Library>
libRbt.so (2013.1, Build901 2013/11/27)

>  <Rbt.Parameter_File>
/export/apps/rDock/src/rDock_2013.1_src/data/scripts/dock_solv.prm

>  <Rbt.Receptor>
prm/pocket_docking_2.prm

>  <SCORE>
-47.5797

>  <SCORE.INTER>
-50.9564

>  <SCORE.INTER.CONST>
1

>  <SCORE.INTER.POLAR>
-6.24931

>  <SCORE.INTER.ROT>
9

>  <SCORE.INTER.SOLV>
35.0583

>  <SCORE.INTER.VDW>
-34.426

>  <SCORE.INTER.norm>
-1.21325

>  <SCORE.INTRA>
3.29947

>  <SCORE.INTRA.DIHEDRAL>
9.90953

>  <SCORE.INTRA.DIHEDRAL.0>
29.7866

>  <SCORE.INTRA.POLAR>
-0.557643

>  <SCORE.INTRA.POLAR.0>
-0.984091

>  <SCORE.INTRA.REPUL>
-0.271528

>  <SCORE.INTRA.REPUL.0>
0.274115

>  <SCORE.INTRA.SOLV>
1.74333

>  <SCORE.INTRA.SOLV.lig_0>
-152.978

>  <SCORE.INTRA.VDW>
0.726666

>  <SCORE.INTRA.VDW.0>
-6.10719

>  <SCORE.INTRA.norm>
0.0785588

>  <SCORE.RESTR>
0.0772446

>  <SCORE.RESTR.CAVITY>
0.0772446

>  <SCORE.RESTR.norm>
0.00183916

>  <SCORE.SYSTEM>
0

>  <SCORE.SYSTEM.CONST>
0

>  <SCORE.SYSTEM.DIHEDRAL>
0

>  <SCORE.SYSTEM.SOLV>
0

>  <SCORE.SYSTEM.norm>
0

>  <SCORE.heavy>
42

>  <SCORE.norm>
-1.13285

>  <RMSD>
0.970

$$$$
1pbr
 OpenBabel11021811403D
libRbt.so/2013.1/901 2013/11/27
 42 45  0  0  0  0  0  0  0  0999 V2000
    1.7760   -0.0467   44.2079 C   0  0  2  0  0  0  0  0  0  0  0  0
    1.5530   -1.4741   44.3348 O   0  0  0  0  0  0  0  0  0  0  0  0
    3.1383    0.3684   44.8788 C   0  0  2  0  0  0  0  0  0  0  0  0
    4.2603   -0.5733   44.6290 N   0  3  0  0  0  0  0  0  0  0  0  0
    3.0049    0.4840   46.4090 C   0  0  1  0  0  0  0  0  0  0  0  0
    4.1561    1.1098   46.9714 O   0  0  0  0  0  0  0  0  0  0  0  0
    1.7502    1.2818   46.7948 C   0  0  2  0  0  0  0  0  0  0  0  0
    1.6672    1.4154   48.2103 O   0  0  0  0  0  0  0  0  0  0  0  0
    0.4842    0.6391   46.1859 C   0  0  2  0  0  0  0  0  0  0  0  0
    0.6410    0.6823   44.7517 O   0  0  0  0  0  0  0  0  0  0  0  0
   -0.8163    1.3594   46.5380 C   0  0  0  0  0  0  0  0  0  0  0  0
   -1.8264    1.1004   45.5720 O   0  0  0  0  0  0  0  0  0  0  0  0
    0.5790   -4.7394   41.7665 C   0  0  1  0  0  0  0  0  0  0  0  0
    0.0370   -5.6403   40.7327 N   0  3  0  0  0  0  0  0  0  0  0  0
    1.4839   -3.6236   41.1618 C   0  0  2  0  0  0  0  0  0  0  0  0
    2.5780   -4.2000   40.4525 O   0  0  0  0  0  0  0  0  0  0  0  0
    2.0538   -2.6940   42.2730 C   0  0  1  0  0  0  0  0  0  0  0  0
    2.7463   -1.5787   41.6377 O   0  0  0  0  0  0  0  0  0  0  0  0
    0.9309   -2.1420   43.2109 C   0  0  1  0  0  0  0  0  0  0  0  0
   -0.0022   -3.2653   43.7663 C   0  0  1  0  0  0  0  0  0  0  0  0
   -1.1120   -2.7041   44.5680 N   0  3  0  0  0  0  0  0  0  0  0  0
   -0.5760   -4.1218   42.6080 C   0  0  0  0  0  0  0  0  0  0  0  0
    4.0804   -1.7749   41.0689 C   0  0  1  0  0  0  0  0  0  0  0  0
    4.0247   -1.4629   39.5617 C   0  0  2  0  0  0  0  0  0  0  0  0
    5.0523   -2.1544   38.8574 O   0  0  0  0  0  0  0  0  0  0  0  0
    4.2766    0.0514   39.6196 C   0  0  1  0  0  0  0  0  0  0  0  0
    5.3897    0.1566   40.6490 C   0  0  2  0  0  0  0  0  0  0  0  0
    5.0016   -0.8122   41.6111 O   0  0  0  0  0  0  0  0  0  0  0  0
    5.5410    1.5330   41.3093 C   0  0  0  0  0  0  0  0  0  0  0  0
    4.3955    1.8248   42.0960 O   0  0  0  0  0  0  0  0  0  0  0  0
    1.9671    2.1088   35.3184 C   0  0  1  0  0  0  0  0  0  0  0  0
    2.6236    3.3625   35.1391 O   0  0  0  0  0  0  0  0  0  0  0  0
    2.9304    0.9595   34.9101 C   0  0  2  0  0  0  0  0  0  0  0  0
    2.1667   -0.2314   34.7342 O   0  0  0  0  0  0  0  0  0  0  0  0
    4.0910    0.6687   35.9172 C   0  0  1  0  0  0  0  0  0  0  0  0
    5.2344    1.5715   35.6591 N   0  3  0  0  0  0  0  0  0  0  0  0
    3.6052    0.7210   37.3896 C   0  0  1  0  0  0  0  0  0  0  0  0
    4.6744    0.6720   38.3661 O   0  0  0  0  0  0  0  0  0  0  0  0
    1.5394    1.9331   36.7972 C   0  0  1  0  0  0  0  0  0  0  0  0
    2.7480    1.8925   37.6044 O   0  0  0  0  0  0  0  0  0  0  0  0
    0.5765    3.0243   37.3012 C   0  0  0  0  0  0  0  0  0  0  0  0
   -0.6071    2.4683   37.9857 N   0  3  0  0  0  0  0  0  0  0  0  0
  1  2  1  1  0  0  0
  1  3  1  0  0  0  0
  1 10  1  0  0  0  0
  3  4  1  1  0  0  0
  3  5  1  0  0  0  0
  5  6  1  6  0  0  0
  5  7  1  0  0  0  0
  7  8  1  1  0  0  0
  7  9  1  0  0  0  0
  9 10  1  0  0  0  0
  9 11  1  6  0  0  0
 11 12  1  0  0  0  0
 13 14  1  6  0  0  0
 13 15  1  0  0  0  0
 13 22  1  0  0  0  0
 15 16  1  1  0  0  0
 15 17  1  0  0  0  0
 17 18  1  6  0  0  0
 17 19  1  0  0  0  0
 19  2  1  1  0  0  0
 19 20  1  0  0  0  0
 20 21  1  6  0  0  0
 20 22  1  0  0  0  0
 23 18  1  1  0  0  0
 23 24  1  0  0  0  0
 23 28  1  0  0  0  0
 24 25  1  6  0  0  0
 24 26  1  0  0  0  0
 26 27  1  0  0  0  0
 26 38  1  6  0  0  0
 27 28  1  0  0  0  0
 27 29  1  1  0  0  0
 29 30  1  0  0  0  0
 31 32  1  1  0  0  0
 31 33  1  0  0  0  0
 31 39  1  0  0  0  0
 33 34  1  1  0  0  0
 33 35  1  0  0  0  0
 35 36  1  1  0  0  0
 35 37  1  0  0  0  0
 37 38  1  1  0  0  0
 37 40  1  0  0  0  0
 39 40  1  0  0  0  0
 39 41  1  1  0  0  0
 41 42  1  0  0  0  0
M  CHG  5   4   1  14   1  21   1  36   1  42   1
M  END
>  <CHROM.1>
-142.74671222,92.70361935,170.39184955,59.46353349,-52.61322660,156.14099628
154.26499919,-74.13407727,60.71963623,-77.08864220,119.49485779,27.97307873
-176.05596802,69.99794147,65.85629639,-52.80401404,61.73807117,-49.97270229
-61.65987679,-150.27274315,130.72951017,67.77794364,2.32265942,-0.26756623
41.27305023,-2.14267673,-1.17609260,-1.93532063

>  <Name>
1pbr

>  <RI>
0

>  <Rbt.Current_Directory>
/home/itssahil/PROJECTS/Mol_Feturizer/New_Systems/rnas/1pbr

>  <Rbt.Executable>
rbdock ($Id: //depot/dev/client3/rdock/2013.1/src/exe/rbdock.cxx#4 $)

>  <Rbt.Library>
libRbt.so (2013.1, Build901 2013/11/27)

>  <Rbt.Parameter_File>
/export/apps/rDock/src/rDock_2013.1_src/data/scripts/dock_solv.prm

>  <Rbt.Receptor>
prm/pocket_docking_2.prm

>  <SCORE>
-51.7515

>  <SCORE.INTER>
-53.3231

>  <SCORE.INTER.CONST>
1

>  <SCORE.INTER.POLAR>
-6.09809

>  <SCORE.INTER.ROT>
9

>  <SCORE.INTER.SOLV>
31.7095

>  <SCORE.INTER.VDW>
-35.3916

>  <SCORE.INTER.norm>
-1.2696

>  <SCORE.INTRA>
1.5716

>  <SCORE.INTRA.DIHEDRAL>
6.36032

>  <SCORE.INTRA.DIHEDRAL.0>
29.7866

>  <SCORE.INTRA.POLAR>
-0.186357

>  <SCORE.INTRA.POLAR.0>
-0.984091

>  <SCORE.INTRA.REPUL>
-0.274115

>  <SCORE.INTRA.REPUL.0>
0.274115

>  <SCORE.INTRA.SOLV>
0.130908

>  <SCORE.INTRA.SOLV.lig_0>
-152.978

>  <SCORE.INTRA.VDW>
0.330173

>  <SCORE.INTRA.VDW.0>
-6.10719

>  <SCORE.INTRA.norm>
0.037419

>  <SCORE.RESTR>
0

>  <SCORE.RESTR.CAVITY>
0

>  <SCORE.RESTR.norm>
0

>  <SCORE.SYSTEM>
0

>  <SCORE.SYSTEM.CONST>
0

>  <SCORE.SYSTEM.DIHEDRAL>
0

>  <SCORE.SYSTEM.SOLV>
0

>  <SCORE.SYSTEM.norm>
0

>  <SCORE.heavy>
42

>  <SCORE.norm>
-1.23218

>  <RMSD>
0.972

$$$$
1pbr
 OpenBabel11021811403D
libRbt.so/2013.1/901 2013/11/27
 42 45  0  0  0  0  0  0  0  0999 V2000
    2.1536   -0.1584   44.2282 C   0  0  2  0  0  0  0  0  0  0  0  0
    2.0079   -1.6013   44.2376 O   0  0  0  0  0  0  0  0  0  0  0  0
    3.4119    0.2821   45.0653 C   0  0  2  0  0  0  0  0  0  0  0  0
    4.6099   -0.5764   44.8751 N   0  3  0  0  0  0  0  0  0  0  0  0
    3.1163    0.2809   46.5770 C   0  0  1  0  0  0  0  0  0  0  0  0
    4.1630    0.9273   47.2979 O   0  0  0  0  0  0  0  0  0  0  0  0
    1.7817    0.9789   46.8788 C   0  0  2  0  0  0  0  0  0  0  0  0
    1.5466    1.0067   48.2832 O   0  0  0  0  0  0  0  0  0  0  0  0
    0.6268    0.3127   46.0985 C   0  0  2  0  0  0  0  0  0  0  0  0
    0.9260    0.4665   44.6950 O   0  0  0  0  0  0  0  0  0  0  0  0
   -0.7450    0.9335   46.3570 C   0  0  0  0  0  0  0  0  0  0  0  0
   -1.7195    0.4225   45.4571 O   0  0  0  0  0  0  0  0  0  0  0  0
   -0.2292   -4.6599   42.2759 C   0  0  1  0  0  0  0  0  0  0  0  0
   -1.2104   -5.4600   41.5202 N   0  3  0  0  0  0  0  0  0  0  0  0
    0.5672   -3.6827   41.3591 C   0  0  2  0  0  0  0  0  0  0  0  0
    1.2640   -4.4060   40.3473 O   0  0  0  0  0  0  0  0  0  0  0  0
    1.6046   -2.8591   42.1771 C   0  0  1  0  0  0  0  0  0  0  0  0
    2.1930   -1.8510   41.3028 O   0  0  0  0  0  0  0  0  0  0  0  0
    0.9547   -2.1583   43.4147 C   0  0  1  0  0  0  0  0  0  0  0  0
    0.1145   -3.1381   44.2948 C   0  0  1  0  0  0  0  0  0  0  0  0
   -0.5680   -2.4286   45.3995 N   0  3  0  0  0  0  0  0  0  0  0  0
   -0.9321   -3.8884   43.4309 C   0  0  0  0  0  0  0  0  0  0  0  0
    3.5556   -2.0259   40.7983 C   0  0  1  0  0  0  0  0  0  0  0  0
    3.6847   -1.2792   39.4574 C   0  0  2  0  0  0  0  0  0  0  0  0
    4.7130   -1.8479   38.6516 O   0  0  0  0  0  0  0  0  0  0  0  0
    4.0650    0.1103   39.9910 C   0  0  1  0  0  0  0  0  0  0  0  0
    5.0704   -0.2239   41.0805 C   0  0  2  0  0  0  0  0  0  0  0  0
    4.4989   -1.3807   41.6721 O   0  0  0  0  0  0  0  0  0  0  0  0
    5.2763    0.8690   42.1372 C   0  0  0  0  0  0  0  0  0  0  0  0
    5.4386    2.1313   41.5074 O   0  0  0  0  0  0  0  0  0  0  0  0
    2.2280    2.7449   35.8755 C   0  0  1  0  0  0  0  0  0  0  0  0
    2.3794    4.0929   36.3168 O   0  0  0  0  0  0  0  0  0  0  0  0
    3.6148    2.1803   35.4587 C   0  0  2  0  0  0  0  0  0  0  0  0
    3.4101    1.0004   34.6849 O   0  0  0  0  0  0  0  0  0  0  0  0
    4.5842    1.8456   36.6394 C   0  0  1  0  0  0  0  0  0  0  0  0
    5.3246    3.0568   37.0561 N   0  3  0  0  0  0  0  0  0  0  0  0
    3.8444    1.1591   37.8176 C   0  0  1  0  0  0  0  0  0  0  0  0
    4.6449    1.0216   39.0174 O   0  0  0  0  0  0  0  0  0  0  0  0
    1.6265    1.8736   37.0067 C   0  0  1  0  0  0  0  0  0  0  0  0
    2.5821    1.8512   38.1022 O   0  0  0  0  0  0  0  0  0  0  0  0
    0.2439    2.3491   37.4911 C   0  0  0  0  0  0  0  0  0  0  0  0
    0.2148    3.7910   37.8051 N   0  3  0  0  0  0  0  0  0  0  0  0
  1  2  1  1  0  0  0
  1  3  1  0  0  0  0
  1 10  1  0  0  0  0
  3  4  1  1  0  0  0
  3  5  1  0  0  0  0
  5  6  1  1  0  0  0
  5  7  1  0  0  0  0
  7  8  1  1  0  0  0
  7  9  1  0  0  0  0
  9 10  1  0  0  0  0
  9 11  1  6  0  0  0
 11 12  1  0  0  0  0
 13 14  1  6  0  0  0
 13 15  1  0  0  0  0
 13 22  1  0  0  0  0
 15 16  1  6  0  0  0
 15 17  1  0  0  0  0
 17 18  1  6  0  0  0
 17 19  1  0  0  0  0
 19  2  1  1  0  0  0
 19 20  1  0  0  0  0
 20 21  1  1  0  0  0
 20 22  1  0  0  0  0
 23 18  1  1  0  0  0
 23 24  1  0  0  0  0
 23 28  1  0  0  0  0
 24 25  1  6  0  0  0
 24 26  1  0  0  0  0
 26 27  1  0  0  0  0
 26 38  1  6  0  0  0
 27 28  1  0  0  0  0
 27 29  1  1  0  0  0
 29 30  1  0  0  0  0
 31 32  1  1  0  0  0
 31 33  1  0  0  0  0
 31 39  1  0  0  0  0
 33 34  1  1  0  0  0
 33 35  1  0  0  0  0
 35 36  1  1  0  0  0
 35 37  1  0  0  0  0
 37 38  1  1  0  0  0
 37 40  1  0  0  0  0
 39 40  1  0  0  0  0
 39 41  1  1  0  0  0
 41 42  1  0  0  0  0
M  CHG  5   4   1  14   1  21   1  36   1  42   1
M  END
>  <CHROM.1>
-175.01961817,107.51762165,-84.49441682,-148.68370446,70.04059408,170.63234271
165.65861468,-114.78796006,-66.45062347,-105.28841031,152.95350802,-78.51538686
163.33106035,52.10637311,-46.58972240,-84.21911174,-74.63792886,178.59699541
-176.66102422,-166.28405445,-49.97066965,-66.83947199,2.30879979,-0.16029974
41.53076559,-2.05753062,-1.01142942,-1.65430790

>  <Name>
1pbr

>  <RI>
0

>  <Rbt.Current_Directory>
/home/itssahil/PROJECTS/Mol_Feturizer/New_Systems/rnas/1pbr

>  <Rbt.Executable>
rbdock ($Id: //depot/dev/client3/rdock/2013.1/src/exe/rbdock.cxx#4 $)

>  <Rbt.Library>
libRbt.so (2013.1, Build901 2013/11/27)

>  <Rbt.Parameter_File>
/export/apps/rDock/src/rDock_2013.1_src/data/scripts/dock_solv.prm

>  <Rbt.Receptor>
prm/pocket_docking_2.prm

>  <SCORE>
-66.8416

>  <SCORE.INTER>
-68.2893

>  <SCORE.INTER.CONST>
1

>  <SCORE.INTER.POLAR>
-9.49134

>  <SCORE.INTER.ROT>
9

>  <SCORE.INTER.SOLV>
37.1684

>  <SCORE.INTER.VDW>
-35.8779

>  <SCORE.INTER.norm>
-1.62594

>  <SCORE.INTRA>
0.741165

>  <SCORE.INTRA.DIHEDRAL>
5.46442

>  <SCORE.INTRA.DIHEDRAL.0>
29.7866

>  <SCORE.INTRA.POLAR>
-1.11886

>  <SCORE.INTRA.POLAR.0>
-0.984091

>  <SCORE.INTRA.REPUL>
-0.274115

>  <SCORE.INTRA.REPUL.0>
0.274115

>  <SCORE.INTRA.SOLV>
6.19761

>  <SCORE.INTRA.SOLV.lig_0>
-152.978

>  <SCORE.INTRA.VDW>
0.0848557

>  <SCORE.INTRA.VDW.0>
-6.10719

>  <SCORE.INTRA.norm>
0.0176468

>  <SCORE.RESTR>
0.706485

>  <SCORE.RESTR.CAVITY>
0.706485

>  <SCORE.RESTR.norm>
0.0168211

>  <SCORE.SYSTEM>
0

>  <SCORE.SYSTEM.CONST>
0

>  <SCORE.SYSTEM.DIHEDRAL>
0

>  <SCORE.SYSTEM.SOLV>
0

>  <SCORE.SYSTEM.norm>
0

>  <SCORE.heavy>
42

>  <SCORE.norm>
-1.59147

>  <RMSD>
1.010

$$$$
1pbr
 OpenBabel11021811403D
libRbt.so/2013.1/901 2013/11/27
 42 45  0  0  0  0  0  0  0  0999 V2000
    2.5863   -0.7080   44.3174 C   0  0  2  0  0  0  0  0  0  0  0  0
    2.1742   -2.0837   44.5191 O   0  0  0  0  0  0  0  0  0  0  0  0
    3.8308   -0.3595   45.2164 C   0  0  2  0  0  0  0  0  0  0  0  0
    4.8595   -1.4296   45.2863 N   0  3  0  0  0  0  0  0  0  0  0  0
    3.4156   -0.0649   46.6702 C   0  0  1  0  0  0  0  0  0  0  0  0
    4.5009    0.5011   47.4017 O   0  0  0  0  0  0  0  0  0  0  0  0
    2.2140    0.8908   46.7181 C   0  0  2  0  0  0  0  0  0  0  0  0
    1.8725    1.1858   48.0689 O   0  0  0  0  0  0  0  0  0  0  0  0
    1.0241    0.3145   45.9191 C   0  0  2  0  0  0  0  0  0  0  0  0
    1.4622    0.1851   44.5500 O   0  0  0  0  0  0  0  0  0  0  0  0
   -0.2247    1.1944   45.9314 C   0  0  0  0  0  0  0  0  0  0  0  0
   -1.1675    0.7644   44.9584 O   0  0  0  0  0  0  0  0  0  0  0  0
    0.0886   -5.0604   42.2837 C   0  0  1  0  0  0  0  0  0  0  0  0
   -0.8383   -5.8304   41.4340 N   0  3  0  0  0  0  0  0  0  0  0  0
    0.9258   -4.0327   41.4636 C   0  0  2  0  0  0  0  0  0  0  0  0
    1.6881   -4.6996   40.4602 O   0  0  0  0  0  0  0  0  0  0  0  0
    1.9049   -3.2419   42.3799 C   0  0  1  0  0  0  0  0  0  0  0  0
    2.5317   -2.1871   41.5915 O   0  0  0  0  0  0  0  0  0  0  0  0
    1.1766   -2.6082   43.6100 C   0  0  1  0  0  0  0  0  0  0  0  0
    0.2978   -3.6371   44.3909 C   0  0  1  0  0  0  0  0  0  0  0  0
   -0.4553   -2.9885   45.4870 N   0  3  0  0  0  0  0  0  0  0  0  0
   -0.6886   -4.3525   43.4318 C   0  0  0  0  0  0  0  0  0  0  0  0
    3.8478   -2.4073   40.9904 C   0  0  1  0  0  0  0  0  0  0  0  0
    3.7443   -2.1628   39.4733 C   0  0  2  0  0  0  0  0  0  0  0  0
    4.7509   -2.8842   38.7686 O   0  0  0  0  0  0  0  0  0  0  0  0
    3.9944   -0.6473   39.4558 C   0  0  1  0  0  0  0  0  0  0  0  0
    5.1389   -0.4953   40.4440 C   0  0  2  0  0  0  0  0  0  0  0  0
    4.7833   -1.4205   41.4600 O   0  0  0  0  0  0  0  0  0  0  0  0
    5.3078    0.9093   41.0374 C   0  0  0  0  0  0  0  0  0  0  0  0
    5.0860    1.8913   40.0359 O   0  0  0  0  0  0  0  0  0  0  0  0
    1.3957    2.0082   35.8031 C   0  0  1  0  0  0  0  0  0  0  0  0
    2.0347    3.2807   35.8885 O   0  0  0  0  0  0  0  0  0  0  0  0
    2.3209    1.0167   35.0438 C   0  0  2  0  0  0  0  0  0  0  0  0
    1.5450   -0.1091   34.6401 O   0  0  0  0  0  0  0  0  0  0  0  0
    3.5626    0.5095   35.8479 C   0  0  1  0  0  0  0  0  0  0  0  0
    4.6801    1.4720   35.7299 N   0  3  0  0  0  0  0  0  0  0  0  0
    3.2033    0.1845   37.3217 C   0  0  1  0  0  0  0  0  0  0  0  0
    4.3514   -0.0828   38.1640 O   0  0  0  0  0  0  0  0  0  0  0  0
    1.0949    1.4620   37.2215 C   0  0  1  0  0  0  0  0  0  0  0  0
    2.3675    1.2478   37.8911 O   0  0  0  0  0  0  0  0  0  0  0  0
    0.1782    2.3734   38.0587 C   0  0  0  0  0  0  0  0  0  0  0  0
    0.4255    3.8082   37.8162 N   0  3  0  0  0  0  0  0  0  0  0  0
  1  2  1  1  0  0  0
  1  3  1  0  0  0  0
  1 10  1  0  0  0  0
  3  4  1  1  0  0  0
  3  5  1  0  0  0  0
  5  6  1  1  0  0  0
  5  7  1  0  0  0  0
  7  8  1  1  0  0  0
  7  9  1  0  0  0  0
  9 10  1  0  0  0  0
  9 11  1  6  0  0  0
 11 12  1  0  0  0  0
 13 14  1  6  0  0  0
 13 15  1  0  0  0  0
 13 22  1  0  0  0  0
 15 16  1  6  0  0  0
 15 17  1  0  0  0  0
 17 18  1  6  0  0  0
 17 19  1  0  0  0  0
 19  2  1  1  0  0  0
 19 20  1  0  0  0  0
 20 21  1  1  0  0  0
 20 22  1  0  0  0  0
 23 18  1  1  0  0  0
 23 24  1  0  0  0  0
 23 28  1  0  0  0  0
 24 25  1  6  0  0  0
 24 26  1  0  0  0  0
 26 27  1  0  0  0  0
 26 38  1  6  0  0  0
 27 28  1  0  0  0  0
 27 29  1  1  0  0  0
 29 30  1  0  0  0  0
 31 32  1  1  0  0  0
 31 33  1  0  0  0  0
 31 39  1  0  0  0  0
 33 34  1  1  0  0  0
 33 35  1  0  0  0  0
 35 36  1  1  0  0  0
 35 37  1  0  0  0  0
 37 38  1  1  0  0  0
 37 40  1  0  0  0  0
 39 40  1  0  0  0  0
 39 41  1  1  0  0  0
 41 42  1  0  0  0  0
M  CHG  5   4   1  14   1  21   1  36   1  42   1
M  END
>  <CHROM.1>
-170.64466768,89.86662482,-155.59075211,60.27212210,-53.68329223,167.27950797
-47.39910317,-147.59449017,66.29483098,-96.13678645,123.95944644,68.79322191
-54.19571880,82.31889838,-39.75944995,-64.77563791,65.33357677,177.72127256
164.84235656,-168.16666912,-36.06319344,111.94906528,2.31770592,-0.64641692
41.35000941,-1.92544569,-1.22476934,-1.65147240

>  <Name>
1pbr

>  <RI>
0

>  <Rbt.Current_Directory>
/home/itssahil/PROJECTS/Mol_Feturizer/New_Systems/rnas/1pbr

>  <Rbt.Executable>
rbdock ($Id: //depot/dev/client3/rdock/2013.1/src/exe/rbdock.cxx#4 $)

>  <Rbt.Library>
libRbt.so (2013.1, Build901 2013/11/27)

>  <Rbt.Parameter_File>
/export/apps/rDock/src/rDock_2013.1_src/data/scripts/dock_solv.prm

>  <Rbt.Receptor>
prm/pocket_docking_2.prm

>  <SCORE>
-46.2192

>  <SCORE.INTER>
-47.6468

>  <SCORE.INTER.CONST>
1

>  <SCORE.INTER.POLAR>
-6.11222

>  <SCORE.INTER.ROT>
9

>  <SCORE.INTER.SOLV>
28.8795

>  <SCORE.INTER.VDW>
-30.617

>  <SCORE.INTER.norm>
-1.13445

>  <SCORE.INTRA>
0.959895

>  <SCORE.INTRA.DIHEDRAL>
2.24692

>  <SCORE.INTRA.DIHEDRAL.0>
29.7866

>  <SCORE.INTRA.POLAR>
-0.347996

>  <SCORE.INTRA.POLAR.0>
-0.984091

>  <SCORE.INTRA.REPUL>
-0.274115

>  <SCORE.INTRA.REPUL.0>
0.274115

>  <SCORE.INTRA.SOLV>
1.30733

>  <SCORE.INTRA.SOLV.lig_0>
-152.978

>  <SCORE.INTRA.VDW>
1.73653

>  <SCORE.INTRA.VDW.0>
-6.10719

>  <SCORE.INTRA.norm>
0.0228546

>  <SCORE.RESTR>
0.467675

>  <SCORE.RESTR.CAVITY>
0.467675

>  <SCORE.RESTR.norm>
0.0111351

>  <SCORE.SYSTEM>
0

>  <SCORE.SYSTEM.CONST>
0

>  <SCORE.SYSTEM.DIHEDRAL>
0

>  <SCORE.SYSTEM.SOLV>
0

>  <SCORE.SYSTEM.norm>
0

>  <SCORE.heavy>
42

>  <SCORE.norm>
-1.10046

>  <RMSD>
1.019

$$$$
1pbr
 OpenBabel11021811403D
libRbt.so/2013.1/901 2013/11/27
 42 45  0  0  0  0  0  0  0  0999 V2000
    2.2907   -0.3923   44.0969 C   0  0  2  0  0  0  0  0  0  0  0  0
    2.1883   -1.8388   44.1131 O   0  0  0  0  0  0  0  0  0  0  0  0
    3.6245    0.0816   44.7860 C   0  0  2  0  0  0  0  0  0  0  0  0
    4.8164   -0.7409   44.4525 N   0  3  0  0  0  0  0  0  0  0  0  0
    3.5061    0.0663   46.3217 C   0  0  1  0  0  0  0  0  0  0  0  0
    4.6104    0.7404   46.9211 O   0  0  0  0  0  0  0  0  0  0  0  0
    2.1960    0.7242   46.7807 C   0  0  2  0  0  0  0  0  0  0  0  0
    2.1245    0.7400   48.2030 O   0  0  0  0  0  0  0  0  0  0  0  0
    0.9780    0.0274   46.1346 C   0  0  2  0  0  0  0  0  0  0  0  0
    1.1082    0.1949   44.7069 O   0  0  0  0  0  0  0  0  0  0  0  0
   -0.3718    0.6071   46.5543 C   0  0  0  0  0  0  0  0  0  0  0  0
   -0.6911    0.2517   47.8931 O   0  0  0  0  0  0  0  0  0  0  0  0
    0.3393   -4.9679   41.8775 C   0  0  1  0  0  0  0  0  0  0  0  0
   -0.5236   -5.8066   41.0255 N   0  3  0  0  0  0  0  0  0  0  0  0
    1.1044   -3.8848   41.0582 C   0  0  2  0  0  0  0  0  0  0  0  0
    1.9195   -4.4979   40.0621 O   0  0  0  0  0  0  0  0  0  0  0  0
    2.0175   -3.0213   41.9771 C   0  0  1  0  0  0  0  0  0  0  0  0
    2.5706   -1.9265   41.1881 O   0  0  0  0  0  0  0  0  0  0  0  0
    1.2373   -2.4380   43.2003 C   0  0  1  0  0  0  0  0  0  0  0  0
    0.4310   -3.5255   43.9801 C   0  0  1  0  0  0  0  0  0  0  0  0
   -0.3742   -2.9296   45.0691 N   0  3  0  0  0  0  0  0  0  0  0  0
   -0.4945   -4.3145   43.0182 C   0  0  0  0  0  0  0  0  0  0  0  0
    3.8785   -2.0741   40.5482 C   0  0  1  0  0  0  0  0  0  0  0  0
    3.8795   -1.2677   39.2361 C   0  0  2  0  0  0  0  0  0  0  0  0
    4.8254   -1.7963   38.3109 O   0  0  0  0  0  0  0  0  0  0  0  0
    4.3105    0.0977   39.7928 C   0  0  1  0  0  0  0  0  0  0  0  0
    5.4152   -0.2818   40.7650 C   0  0  2  0  0  0  0  0  0  0  0  0
    4.9017   -1.4658   41.3559 O   0  0  0  0  0  0  0  0  0  0  0  0
    5.7224    0.7634   41.8452 C   0  0  0  0  0  0  0  0  0  0  0  0
    5.5452    2.0715   41.3221 O   0  0  0  0  0  0  0  0  0  0  0  0
    1.9254    3.7138   36.9748 C   0  0  1  0  0  0  0  0  0  0  0  0
    2.3523    4.8767   37.6820 O   0  0  0  0  0  0  0  0  0  0  0  0
    3.0835    3.2062   36.0710 C   0  0  2  0  0  0  0  0  0  0  0  0
    2.5457    2.2994   35.1113 O   0  0  0  0  0  0  0  0  0  0  0  0
    4.2611    2.5033   36.8226 C   0  0  1  0  0  0  0  0  0  0  0  0
    5.2304    3.5075   37.3134 N   0  3  0  0  0  0  0  0  0  0  0  0
    3.7503    1.5628   37.9458 C   0  0  1  0  0  0  0  0  0  0  0  0
    4.7956    1.0537   38.8102 O   0  0  0  0  0  0  0  0  0  0  0  0
    1.5122    2.6010   37.9706 C   0  0  1  0  0  0  0  0  0  0  0  0
    2.6958    2.2219   38.7249 O   0  0  0  0  0  0  0  0  0  0  0  0
    0.3633    3.0042   38.9137 C   0  0  0  0  0  0  0  0  0  0  0  0
    0.0390    1.9538   39.8986 N   0  3  0  0  0  0  0  0  0  0  0  0
  1  2  1  1  0  0  0
  1  3  1  0  0  0  0
  1 10  1  0  0  0  0
  3  4  1  1  0  0  0
  3  5  1  0  0  0  0
  5  6  1  1  0  0  0
  5  7  1  0  0  0  0
  7  8  1  1  0  0  0
  7  9  1  0  0  0  0
  9 10  1  0  0  0  0
  9 11  1  1  0  0  0
 11 12  1  0  0  0  0
 13 14  1  6  0  0  0
 13 15  1  0  0  0  0
 13 22  1  0  0  0  0
 15 16  1  6  0  0  0
 15 17  1  0  0  0  0
 17 18  1  6  0  0  0
 17 19  1  0  0  0  0
 19  2  1  1  0  0  0
 19 20  1  0  0  0  0
 20 21  1  1  0  0  0
 20 22  1  0  0  0  0
 23 18  1  1  0  0  0
 23 24  1  0  0  0  0
 23 28  1  0  0  0  0
 24 25  1  6  0  0  0
 24 26  1  0  0  0  0
 26 27  1  0  0  0  0
 26 38  1  6  0  0  0
 27 28  1  0  0  0  0
 27 29  1  1  0  0  0
 29 30  1  0  0  0  0
 31 32  1  1  0  0  0
 31 33  1  0  0  0  0
 31 39  1  0  0  0  0
 33 34  1  6  0  0  0
 33 35  1  0  0  0  0
 35 36  1  1  0  0  0
 35 37  1  0  0  0  0
 37 38  1  1  0  0  0
 37 40  1  0  0  0  0
 39 40  1  0  0  0  0
 39 41  1  1  0  0  0
 41 42  1  0  0  0  0
M  CHG  5   4   1  14   1  21   1  36   1  42   1
M  END
>  <CHROM.1>
-162.75736693,102.53842357,41.49159992,-158.39438615,54.67492044,-72.69568415
53.33711691,-163.67754153,-57.51340849,-93.52658872,147.77603858,-70.64108067
-57.90118192,70.49398747,-34.22734761,-36.53859816,59.51497689,63.80451049
-63.23127598,-175.69301925,-176.90438026,-41.37422612,2.52558130,-0.17783292
41.65565517,-2.27608486,-1.20609418,-1.80724064

>  <Name>
1pbr

>  <RI>
0

>  <Rbt.Current_Directory>
/home/itssahil/PROJECTS/Mol_Feturizer/New_Systems/rnas/1pbr

>  <Rbt.Executable>
rbdock ($Id: //depot/dev/client3/rdock/2013.1/src/exe/rbdock.cxx#4 $)

>  <Rbt.Library>
libRbt.so (2013.1, Build901 2013/11/27)

>  <Rbt.Parameter_File>
/export/apps/rDock/src/rDock_2013.1_src/data/scripts/dock_solv.prm

>  <Rbt.Receptor>
prm/pocket_docking_5.prm

>  <SCORE>
-63.2616

>  <SCORE.INTER>
-56.8764

>  <SCORE.INTER.CONST>
1

>  <SCORE.INTER.POLAR>
-7.38452

>  <SCORE.INTER.ROT>
9

>  <SCORE.INTER.SOLV>
38.0564

>  <SCORE.INTER.VDW>
-35.588

>  <SCORE.INTER.norm>
-1.3542

>  <SCORE.INTRA>
-6.38518

>  <SCORE.INTRA.DIHEDRAL>
-2.58558

>  <SCORE.INTRA.DIHEDRAL.0>
29.7866

>  <SCORE.INTRA.POLAR>
-1.43967

>  <SCORE.INTRA.POLAR.0>
-0.984091

>  <SCORE.INTRA.REPUL>
-0.274115

>  <SCORE.INTRA.REPUL.0>
0.274115

>  <SCORE.INTRA.SOLV>
1.20806

>  <SCORE.INTRA.SOLV.lig_0>
-152.978

>  <SCORE.INTRA.VDW>
0.569034

>  <SCORE.INTRA.VDW.0>
-6.10719

>  <SCORE.INTRA.norm>
-0.152028

>  <SCORE.RESTR>
0

>  <SCORE.RESTR.CAVITY>
0

>  <SCORE.RESTR.norm>
0

>  <SCORE.SYSTEM>
0

>  <SCORE.SYSTEM.CONST>
0

>  <SCORE.SYSTEM.DIHEDRAL>
0

>  <SCORE.SYSTEM.SOLV>
0

>  <SCORE.SYSTEM.norm>
0

>  <SCORE.heavy>
42

>  <SCORE.norm>
-1.50623

>  <RMSD>
1.049

$$$$
1pbr
 OpenBabel11021811403D
libRbt.so/2013.1/901 2013/11/27
 42 45  0  0  0  0  0  0  0  0999 V2000
    1.9689   -0.7799   44.4989 C   0  0  2  0  0  0  0  0  0  0  0  0
    1.5215   -2.1523   44.6387 O   0  0  0  0  0  0  0  0  0  0  0  0
    3.2511   -0.5179   45.3738 C   0  0  2  0  0  0  0  0  0  0  0  0
    4.2484   -1.6193   45.3510 N   0  3  0  0  0  0  0  0  0  0  0  0
    2.8912   -0.2927   46.8545 C   0  0  1  0  0  0  0  0  0  0  0  0
    4.0158    0.2004   47.5793 O   0  0  0  0  0  0  0  0  0  0  0  0
    1.7214    0.6930   46.9943 C   0  0  2  0  0  0  0  0  0  0  0  0
    1.4318    0.9221   48.3697 O   0  0  0  0  0  0  0  0  0  0  0  0
    0.4898    0.1964   46.2049 C   0  0  2  0  0  0  0  0  0  0  0  0
    0.8804    0.1308   44.8170 O   0  0  0  0  0  0  0  0  0  0  0  0
   -0.7305    1.1098   46.3067 C   0  0  0  0  0  0  0  0  0  0  0  0
   -1.7580    0.6979   45.4150 O   0  0  0  0  0  0  0  0  0  0  0  0
    0.1974   -5.1803   41.9394 C   0  0  1  0  0  0  0  0  0  0  0  0
   -0.4698   -5.9826   40.8978 N   0  3  0  0  0  0  0  0  0  0  0  0
    1.0823   -4.0478   41.3360 C   0  0  2  0  0  0  0  0  0  0  0  0
    2.0847   -4.5993   40.4854 O   0  0  0  0  0  0  0  0  0  0  0  0
    1.7855   -3.2236   42.4540 C   0  0  1  0  0  0  0  0  0  0  0  0
    2.4562   -2.0832   41.8403 O   0  0  0  0  0  0  0  0  0  0  0  0
    0.7746   -2.7133   43.5323 C   0  0  1  0  0  0  0  0  0  0  0  0
   -0.1431   -3.8486   44.0889 C   0  0  1  0  0  0  0  0  0  0  0  0
   -1.1533   -3.3190   45.0316 N   0  3  0  0  0  0  0  0  0  0  0  0
   -0.8519   -4.5962   42.9300 C   0  0  0  0  0  0  0  0  0  0  0  0
    3.7496   -2.2642   41.1798 C   0  0  1  0  0  0  0  0  0  0  0  0
    3.5860   -1.9507   39.6807 C   0  0  2  0  0  0  0  0  0  0  0  0
    4.5695   -2.6300   38.9053 O   0  0  0  0  0  0  0  0  0  0  0  0
    3.8250   -0.4338   39.7242 C   0  0  1  0  0  0  0  0  0  0  0  0
    5.0057   -0.3180   40.6740 C   0  0  2  0  0  0  0  0  0  0  0  0
    4.6958   -1.2922   41.6587 O   0  0  0  0  0  0  0  0  0  0  0  0
    5.1879    1.0591   41.3252 C   0  0  0  0  0  0  0  0  0  0  0  0
    5.0667    2.0808   40.3465 O   0  0  0  0  0  0  0  0  0  0  0  0
    1.1087    1.7199   35.7580 C   0  0  1  0  0  0  0  0  0  0  0  0
    1.6710    3.0270   35.6568 O   0  0  0  0  0  0  0  0  0  0  0  0
    2.1062    0.6829   35.1704 C   0  0  2  0  0  0  0  0  0  0  0  0
    1.4057   -0.5359   34.9328 O   0  0  0  0  0  0  0  0  0  0  0  0
    3.3573    0.3792   36.0582 C   0  0  1  0  0  0  0  0  0  0  0  0
    4.4194    1.3787   35.8094 N   0  3  0  0  0  0  0  0  0  0  0  0
    2.9852    0.2596   37.5596 C   0  0  1  0  0  0  0  0  0  0  0  0
    4.1282    0.1928   38.4475 O   0  0  0  0  0  0  0  0  0  0  0  0
    0.8090    1.3772   37.2390 C   0  0  1  0  0  0  0  0  0  0  0  0
    2.0769    1.3442   37.9497 O   0  0  0  0  0  0  0  0  0  0  0  0
   -0.1770    2.3476   37.9158 C   0  0  0  0  0  0  0  0  0  0  0  0
    0.2984    3.7448   37.9023 N   0  3  0  0  0  0  0  0  0  0  0  0
  1  2  1  1  0  0  0
  1  3  1  0  0  0  0
  1 10  1  0  0  0  0
  3  4  1  1  0  0  0
  3  5  1  0  0  0  0
  5  6  1  1  0  0  0
  5  7  1  0  0  0  0
  7  8  1  1  0  0  0
  7  9  1  0  0  0  0
  9 10  1  0  0  0  0
  9 11  1  6  0  0  0
 11 12  1  0  0  0  0
 13 14  1  6  0  0  0
 13 15  1  0  0  0  0
 13 22  1  0  0  0  0
 15 16  1  6  0  0  0
 15 17  1  0  0  0  0
 17 18  1  6  0  0  0
 17 19  1  0  0  0  0
 19  2  1  1  0  0  0
 19 20  1  0  0  0  0
 20 21  1  1  0  0  0
 20 22  1  0  0  0  0
 23 18  1  1  0  0  0
 23 24  1  0  0  0  0
 23 28  1  0  0  0  0
 24 25  1  6  0  0  0
 24 26  1  0  0  0  0
 26 27  1  0  0  0  0
 26 38  1  6  0  0  0
 27 28  1  0  0  0  0
 27 29  1  1  0  0  0
 29 30  1  0  0  0  0
 31 32  1  1  0  0  0
 31 33  1  0  0  0  0
 31 39  1  0  0  0  0
 33 34  1  1  0  0  0
 33 35  1  0  0  0  0
 35 36  1  1  0  0  0
 35 37  1  0  0  0  0
 37 38  1  1  0  0  0
 37 40  1  0  0  0  0
 39 40  1  0  0  0  0
 39 41  1  1  0  0  0
 41 42  1  0  0  0  0
M  CHG  5   4   1  14   1  21   1  36   1  42   1
M  END
>  <CHROM.1>
-153.88761234,83.08551700,-69.75571444,-59.24524020,41.34523638,171.81170441
51.19923959,68.23399048,56.35106572,-79.46961930,116.00994457,89.69390119
171.14568931,71.35487535,-46.18140999,57.90556016,69.57141765,57.65782593
161.99078796,-156.95588308,-58.82545300,-94.44158143,2.04178936,-0.70976351
41.43665695,-2.02390613,-1.25949513,-1.76862413

>  <Name>
1pbr

>  <RI>
0

>  <Rbt.Current_Directory>
/home/itssahil/PROJECTS/Mol_Feturizer/New_Systems/rnas/1pbr

>  <Rbt.Executable>
rbdock ($Id: //depot/dev/client3/rdock/2013.1/src/exe/rbdock.cxx#4 $)

>  <Rbt.Library>
libRbt.so (2013.1, Build901 2013/11/27)

>  <Rbt.Parameter_File>
/export/apps/rDock/src/rDock_2013.1_src/data/scripts/dock_solv.prm

>  <Rbt.Receptor>
prm/pocket_docking_2.prm

>  <SCORE>
-50.8963

>  <SCORE.INTER>
-48.5999

>  <SCORE.INTER.CONST>
1

>  <SCORE.INTER.POLAR>
-6.34548

>  <SCORE.INTER.ROT>
9

>  <SCORE.INTER.SOLV>
27.4843

>  <SCORE.INTER.VDW>
-30.0098

>  <SCORE.INTER.norm>
-1.15714

>  <SCORE.INTRA>
-2.50855

>  <SCORE.INTRA.DIHEDRAL>
-3.36346

>  <SCORE.INTRA.DIHEDRAL.0>
29.7866

>  <SCORE.INTRA.POLAR>
-0.287988

>  <SCORE.INTRA.POLAR.0>
-0.984091

>  <SCORE.INTRA.REPUL>
-0.267604

>  <SCORE.INTRA.REPUL.0>
0.274115

>  <SCORE.INTRA.SOLV>
0.923618

>  <SCORE.INTRA.SOLV.lig_0>
-152.978

>  <SCORE.INTRA.VDW>
1.02855

>  <SCORE.INTRA.VDW.0>
-6.10719

>  <SCORE.INTRA.norm>
-0.0597273

>  <SCORE.RESTR>
0.212211

>  <SCORE.RESTR.CAVITY>
0.212211

>  <SCORE.RESTR.norm>
0.00505264

>  <SCORE.SYSTEM>
0

>  <SCORE.SYSTEM.CONST>
0

>  <SCORE.SYSTEM.DIHEDRAL>
0

>  <SCORE.SYSTEM.SOLV>
0

>  <SCORE.SYSTEM.norm>
0

>  <SCORE.heavy>
42

>  <SCORE.norm>
-1.21182

>  <RMSD>
1.051

$$$$
1pbr
 OpenBabel11021811403D
libRbt.so/2013.1/901 2013/11/27
 42 45  0  0  0  0  0  0  0  0999 V2000
    1.7843   -0.5122   44.0490 C   0  0  2  0  0  0  0  0  0  0  0  0
    1.5097   -1.9242   44.2340 O   0  0  0  0  0  0  0  0  0  0  0  0
    3.1649   -0.1214   44.6966 C   0  0  2  0  0  0  0  0  0  0  0  0
    4.2500   -1.1133   44.4797 N   0  3  0  0  0  0  0  0  0  0  0  0
    3.0450    0.0598   46.2215 C   0  0  1  0  0  0  0  0  0  0  0  0
    4.2218    0.6645   46.7533 O   0  0  0  0  0  0  0  0  0  0  0  0
    1.8228    0.9182   46.5808 C   0  0  2  0  0  0  0  0  0  0  0  0
    1.7533    1.1112   47.9901 O   0  0  0  0  0  0  0  0  0  0  0  0
    0.5305    0.2991   46.0037 C   0  0  2  0  0  0  0  0  0  0  0  0
    0.6802    0.2794   44.5683 O   0  0  0  0  0  0  0  0  0  0  0  0
   -0.7405    1.0805   46.3326 C   0  0  0  0  0  0  0  0  0  0  0  0
   -0.9952    1.0847   47.7311 O   0  0  0  0  0  0  0  0  0  0  0  0
    0.3819   -5.1738   41.7089 C   0  0  1  0  0  0  0  0  0  0  0  0
   -0.2387   -6.0759   40.7215 N   0  3  0  0  0  0  0  0  0  0  0  0
    1.1593   -4.0039   41.0332 C   0  0  2  0  0  0  0  0  0  0  0  0
    2.1859   -4.5130   40.1849 O   0  0  0  0  0  0  0  0  0  0  0  0
    1.8156   -3.0736   42.0949 C   0  0  1  0  0  0  0  0  0  0  0  0
    2.3787   -1.9135   41.4136 O   0  0  0  0  0  0  0  0  0  0  0  0
    0.7886   -2.5954   43.1728 C   0  0  1  0  0  0  0  0  0  0  0  0
   -0.0221   -3.7729   43.8028 C   0  0  1  0  0  0  0  0  0  0  0  0
   -1.0527   -3.2819   44.7442 N   0  3  0  0  0  0  0  0  0  0  0  0
   -0.6911   -4.6294   42.6967 C   0  0  0  0  0  0  0  0  0  0  0  0
    3.6445   -2.0341   40.6891 C   0  0  1  0  0  0  0  0  0  0  0  0
    3.5370   -1.2414   39.3730 C   0  0  2  0  0  0  0  0  0  0  0  0
    4.4327   -1.7550   38.3912 O   0  0  0  0  0  0  0  0  0  0  0  0
    3.9681    0.1402   39.8880 C   0  0  1  0  0  0  0  0  0  0  0  0
    5.1447   -0.2008   40.7874 C   0  0  2  0  0  0  0  0  0  0  0  0
    4.7030   -1.3914   41.4213 O   0  0  0  0  0  0  0  0  0  0  0  0
    5.4956    0.8629   41.8357 C   0  0  0  0  0  0  0  0  0  0  0  0
    6.7677    0.5868   42.4032 O   0  0  0  0  0  0  0  0  0  0  0  0
    1.3287    3.0759   36.5060 C   0  0  1  0  0  0  0  0  0  0  0  0
    1.5612    4.3729   37.0523 O   0  0  0  0  0  0  0  0  0  0  0  0
    2.6005    2.5994   35.7504 C   0  0  2  0  0  0  0  0  0  0  0  0
    2.2451    1.5033   34.9107 O   0  0  0  0  0  0  0  0  0  0  0  0
    3.7980    2.1690   36.6594 C   0  0  1  0  0  0  0  0  0  0  0  0
    4.6021    3.3498   37.0442 N   0  3  0  0  0  0  0  0  0  0  0  0
    3.3261    1.3396   37.8826 C   0  0  1  0  0  0  0  0  0  0  0  0
    4.3614    1.0982   38.8671 O   0  0  0  0  0  0  0  0  0  0  0  0
    0.9831    2.0719   37.6344 C   0  0  1  0  0  0  0  0  0  0  0  0
    2.1475    1.9604   38.4979 O   0  0  0  0  0  0  0  0  0  0  0  0
   -0.2698    2.4527   38.4451 C   0  0  0  0  0  0  0  0  0  0  0  0
   -1.4856    2.5317   37.6120 N   0  3  0  0  0  0  0  0  0  0  0  0
  1  2  1  1  0  0  0
  1  3  1  0  0  0  0
  1 10  1  0  0  0  0
  3  4  1  1  0  0  0
  3  5  1  0  0  0  0
  5  6  1  6  0  0  0
  5  7  1  0  0  0  0
  7  8  1  1  0  0  0
  7  9  1  0  0  0  0
  9 10  1  0  0  0  0
  9 11  1  6  0  0  0
 11 12  1  0  0  0  0
 13 14  1  6  0  0  0
 13 15  1  0  0  0  0
 13 22  1  0  0  0  0
 15 16  1  6  0  0  0
 15 17  1  0  0  0  0
 17 18  1  6  0  0  0
 17 19  1  0  0  0  0
 19  2  1  1  0  0  0
 19 20  1  0  0  0  0
 20 21  1  1  0  0  0
 20 22  1  0  0  0  0
 23 18  1  1  0  0  0
 23 24  1  0  0  0  0
 23 28  1  0  0  0  0
 24 25  1  6  0  0  0
 24 26  1  0  0  0  0
 26 27  1  0  0  0  0
 26 38  1  6  0  0  0
 27 28  1  0  0  0  0
 27 29  1  1  0  0  0
 29 30  1  0  0  0  0
 31 32  1  1  0  0  0
 31 33  1  0  0  0  0
 31 39  1  0  0  0  0
 33 34  1  1  0  0  0
 33 35  1  0  0  0  0
 35 36  1  1  0  0  0
 35 37  1  0  0  0  0
 37 38  1  1  0  0  0
 37 40  1  0  0  0  0
 39 40  1  0  0  0  0
 39 41  1  1  0  0  0
 41 42  1  0  0  0  0
M  CHG  5   4   1  14   1  21   1  36   1  42   1
M  END
>  <CHROM.1>
-146.17994179,85.98348714,-169.70133187,62.88013570,57.93505503,-64.37208589
53.49315414,68.64965934,164.59855100,-77.19388216,139.24664629,-31.03012778
-51.10404894,57.19815994,-166.84398657,-169.37271255,69.68770831,-178.00286737
-72.95370943,-170.34443243,60.27099111,161.64912246,2.16926620,-0.30228284
41.50445231,-2.09234895,-1.23435324,-1.70626220

>  <Name>
1pbr

>  <RI>
0

>  <Rbt.Current_Directory>
/home/itssahil/PROJECTS/Mol_Feturizer/New_Systems/rnas/1pbr

>  <Rbt.Executable>
rbdock ($Id: //depot/dev/client3/rdock/2013.1/src/exe/rbdock.cxx#4 $)

>  <Rbt.Library>
libRbt.so (2013.1, Build901 2013/11/27)

>  <Rbt.Parameter_File>
/export/apps/rDock/src/rDock_2013.1_src/data/scripts/dock_solv.prm

>  <Rbt.Receptor>
prm/pocket_docking_2.prm

>  <SCORE>
-46.7113

>  <SCORE.INTER>
-40.9766

>  <SCORE.INTER.CONST>
1

>  <SCORE.INTER.POLAR>
-4.23646

>  <SCORE.INTER.ROT>
9

>  <SCORE.INTER.SOLV>
30.3256

>  <SCORE.INTER.VDW>
-32.9047

>  <SCORE.INTER.norm>
-0.975634

>  <SCORE.INTRA>
-7.83281

>  <SCORE.INTRA.DIHEDRAL>
-7.97996

>  <SCORE.INTRA.DIHEDRAL.0>
29.7866

>  <SCORE.INTRA.POLAR>
-1.03765

>  <SCORE.INTRA.POLAR.0>
-0.984091

>  <SCORE.INTRA.REPUL>
-0.274115

>  <SCORE.INTRA.REPUL.0>
0.274115

>  <SCORE.INTRA.SOLV>
0.218036

>  <SCORE.INTRA.SOLV.lig_0>
-152.978

>  <SCORE.INTRA.VDW>
0.946726

>  <SCORE.INTRA.VDW.0>
-6.10719

>  <SCORE.INTRA.norm>
-0.186495

>  <SCORE.RESTR>
2.09811

>  <SCORE.RESTR.CAVITY>
2.09811

>  <SCORE.RESTR.norm>
0.0499551

>  <SCORE.SYSTEM>
0

>  <SCORE.SYSTEM.CONST>
0

>  <SCORE.SYSTEM.DIHEDRAL>
0

>  <SCORE.SYSTEM.SOLV>
0

>  <SCORE.SYSTEM.norm>
0

>  <SCORE.heavy>
42

>  <SCORE.norm>
-1.11217

>  <RMSD>
1.061

$$$$
1pbr
 OpenBabel11021811403D
libRbt.so/2013.1/901 2013/11/27
 42 45  0  0  0  0  0  0  0  0999 V2000
    1.7644   -0.5673   44.3853 C   0  0  2  0  0  0  0  0  0  0  0  0
    1.3563   -1.9300   44.6677 O   0  0  0  0  0  0  0  0  0  0  0  0
    3.1208   -0.2283   45.1089 C   0  0  2  0  0  0  0  0  0  0  0  0
    4.1298   -1.3185   45.0686 N   0  3  0  0  0  0  0  0  0  0  0  0
    2.9024    0.1022   46.5974 C   0  0  1  0  0  0  0  0  0  0  0  0
    4.0834    0.6588   47.1707 O   0  0  0  0  0  0  0  0  0  0  0  0
    1.7349    1.0839   46.7792 C   0  0  2  0  0  0  0  0  0  0  0  0
    1.5762    1.4114   48.1560 O   0  0  0  0  0  0  0  0  0  0  0  0
    0.4413    0.5179   46.1526 C   0  0  2  0  0  0  0  0  0  0  0  0
    0.6965    0.3536   44.7415 O   0  0  0  0  0  0  0  0  0  0  0  0
   -0.7789    1.4242   46.3067 C   0  0  0  0  0  0  0  0  0  0  0  0
   -1.1306    1.5863   47.6744 O   0  0  0  0  0  0  0  0  0  0  0  0
    0.0339   -5.2182   42.2914 C   0  0  1  0  0  0  0  0  0  0  0  0
   -0.6461   -6.1277   41.3511 N   0  3  0  0  0  0  0  0  0  0  0  0
    0.8495   -4.1114   41.5568 C   0  0  2  0  0  0  0  0  0  0  0  0
    1.8351   -4.6986   40.7105 O   0  0  0  0  0  0  0  0  0  0  0  0
    1.5678   -3.1724   42.5697 C   0  0  1  0  0  0  0  0  0  0  0  0
    2.1689   -2.0659   41.8339 O   0  0  0  0  0  0  0  0  0  0  0  0
    0.5849   -2.6073   43.6466 C   0  0  1  0  0  0  0  0  0  0  0  0
   -0.2653   -3.7219   44.3363 C   0  0  1  0  0  0  0  0  0  0  0  0
   -1.2540   -3.1490   45.2764 N   0  3  0  0  0  0  0  0  0  0  0  0
   -0.9938   -4.5883   43.2765 C   0  0  0  0  0  0  0  0  0  0  0  0
    3.3642   -2.2923   41.0204 C   0  0  1  0  0  0  0  0  0  0  0  0
    3.1416   -1.6653   39.6314 C   0  0  2  0  0  0  0  0  0  0  0  0
    3.9441   -2.3081   38.6449 O   0  0  0  0  0  0  0  0  0  0  0  0
    3.6215   -0.2373   39.9318 C   0  0  1  0  0  0  0  0  0  0  0  0
    4.8729   -0.4822   40.7586 C   0  0  2  0  0  0  0  0  0  0  0  0
    4.4861   -1.5798   41.5712 O   0  0  0  0  0  0  0  0  0  0  0  0
    5.3198    0.6968   41.6326 C   0  0  0  0  0  0  0  0  0  0  0  0
    5.1581    1.9170   40.9246 O   0  0  0  0  0  0  0  0  0  0  0  0
    1.1152    1.9379   35.7776 C   0  0  1  0  0  0  0  0  0  0  0  0
    1.6498    3.2569   35.6824 O   0  0  0  0  0  0  0  0  0  0  0  0
    2.1874    0.9125   35.3142 C   0  0  2  0  0  0  0  0  0  0  0  0
    1.5427   -0.3328   35.0572 O   0  0  0  0  0  0  0  0  0  0  0  0
    3.3628    0.6728   36.3175 C   0  0  1  0  0  0  0  0  0  0  0  0
    4.4163    1.6945   36.1292 N   0  3  0  0  0  0  0  0  0  0  0  0
    2.8631    0.5890   37.7838 C   0  0  1  0  0  0  0  0  0  0  0  0
    3.9246    0.5827   38.7698 O   0  0  0  0  0  0  0  0  0  0  0  0
    0.6952    1.6326   37.2374 C   0  0  1  0  0  0  0  0  0  0  0  0
    1.8959    1.6583   38.0568 O   0  0  0  0  0  0  0  0  0  0  0  0
   -0.3717    2.5945   37.7929 C   0  0  0  0  0  0  0  0  0  0  0  0
   -1.6769    2.4487   37.1191 N   0  3  0  0  0  0  0  0  0  0  0  0
  1  2  1  1  0  0  0
  1  3  1  0  0  0  0
  1 10  1  0  0  0  0
  3  4  1  1  0  0  0
  3  5  1  0  0  0  0
  5  6  1  6  0  0  0
  5  7  1  0  0  0  0
  7  8  1  1  0  0  0
  7  9  1  0  0  0  0
  9 10  1  0  0  0  0
  9 11  1  6  0  0  0
 11 12  1  0  0  0  0
 13 14  1  6  0  0  0
 13 15  1  0  0  0  0
 13 22  1  0  0  0  0
 15 16  1  6  0  0  0
 15 17  1  0  0  0  0
 17 18  1  6  0  0  0
 17 19  1  0  0  0  0
 19  2  1  1  0  0  0
 19 20  1  0  0  0  0
 20 21  1  1  0  0  0
 20 22  1  0  0  0  0
 23 18  1  1  0  0  0
 23 24  1  0  0  0  0
 23 28  1  0  0  0  0
 24 25  1  6  0  0  0
 24 26  1  0  0  0  0
 26 27  1  0  0  0  0
 26 38  1  6  0  0  0
 27 28  1  0  0  0  0
 27 29  1  1  0  0  0
 29 30  1  0  0  0  0
 31 32  1  1  0  0  0
 31 33  1  0  0  0  0
 31 39  1  0  0  0  0
 33 34  1  1  0  0  0
 33 35  1  0  0  0  0
 35 36  1  1  0  0  0
 35 37  1  0  0  0  0
 37 38  1  1  0  0  0
 37 40  1  0  0  0  0
 39 40  1  0  0  0  0
 39 41  1  1  0  0  0
 41 42  1  0  0  0  0
M  CHG  5   4   1  14   1  21   1  36   1  42   1
M  END
>  <CHROM.1>
-150.16413295,82.10378718,-161.55664025,63.76362828,-164.11209901,-63.91872967
-178.98816388,-30.43301520,-56.76364469,-73.16607821,131.55075543,-114.47265679
65.00232441,50.38298153,-40.14014835,178.33964239,74.49739088,-61.70938253
-152.92716320,-145.57963889,67.17941636,-157.94055544,1.88669364,-0.56289586
41.54230102,-1.97917489,-1.24950116,-1.74671935

>  <Name>
1pbr

>  <RI>
0

>  <Rbt.Current_Directory>
/home/itssahil/PROJECTS/Mol_Feturizer/New_Systems/rnas/1pbr

>  <Rbt.Executable>
rbdock ($Id: //depot/dev/client3/rdock/2013.1/src/exe/rbdock.cxx#4 $)

>  <Rbt.Library>
libRbt.so (2013.1, Build901 2013/11/27)

>  <Rbt.Parameter_File>
/export/apps/rDock/src/rDock_2013.1_src/data/scripts/dock_solv.prm

>  <Rbt.Receptor>
prm/pocket_docking_2.prm

>  <SCORE>
-35.8879

>  <SCORE.INTER>
-38.3342

>  <SCORE.INTER.CONST>
1

>  <SCORE.INTER.POLAR>
-3.20947

>  <SCORE.INTER.ROT>
9

>  <SCORE.INTER.SOLV>
28.4782

>  <SCORE.INTER.VDW>
-33.9507

>  <SCORE.INTER.norm>
-0.91272

>  <SCORE.INTRA>
1.37587

>  <SCORE.INTRA.DIHEDRAL>
1.16518

>  <SCORE.INTRA.DIHEDRAL.0>
29.7866

>  <SCORE.INTRA.POLAR>
0.0911846

>  <SCORE.INTRA.POLAR.0>
-0.984091

>  <SCORE.INTRA.REPUL>
-0.241661

>  <SCORE.INTRA.REPUL.0>
0.274115

>  <SCORE.INTRA.SOLV>
-1.73963

>  <SCORE.INTRA.SOLV.lig_0>
-152.978

>  <SCORE.INTRA.VDW>
2.56138

>  <SCORE.INTRA.VDW.0>
-6.10719

>  <SCORE.INTRA.norm>
0.0327589

>  <SCORE.RESTR>
1.07044

>  <SCORE.RESTR.CAVITY>
1.07044

>  <SCORE.RESTR.norm>
0.0254867

>  <SCORE.SYSTEM>
0

>  <SCORE.SYSTEM.CONST>
0

>  <SCORE.SYSTEM.DIHEDRAL>
0

>  <SCORE.SYSTEM.SOLV>
0

>  <SCORE.SYSTEM.norm>
0

>  <SCORE.heavy>
42

>  <SCORE.norm>
-0.854474

>  <RMSD>
1.079

$$$$
1pbr
 OpenBabel11021811403D
libRbt.so/2013.1/901 2013/11/27
 42 45  0  0  0  0  0  0  0  0999 V2000
    1.6338   -0.3524   44.3225 C   0  0  2  0  0  0  0  0  0  0  0  0
    1.5873   -1.8005   44.2594 O   0  0  0  0  0  0  0  0  0  0  0  0
    3.0046    0.1376   44.9218 C   0  0  2  0  0  0  0  0  0  0  0  0
    4.1922   -0.6130   44.4377 N   0  3  0  0  0  0  0  0  0  0  0  0
    3.0230    0.0293   46.4582 C   0  0  1  0  0  0  0  0  0  0  0  0
    4.1500    0.7143   47.0003 O   0  0  0  0  0  0  0  0  0  0  0  0
    1.7350    0.6034   47.0674 C   0  0  2  0  0  0  0  0  0  0  0  0
    1.7889    0.5346   48.4888 O   0  0  0  0  0  0  0  0  0  0  0  0
    0.4915   -0.1064   46.4873 C   0  0  2  0  0  0  0  0  0  0  0  0
    0.4887    0.1481   45.0665 O   0  0  0  0  0  0  0  0  0  0  0  0
   -0.8366    0.3903   47.0560 C   0  0  0  0  0  0  0  0  0  0  0  0
   -1.4754    1.2912   46.1611 O   0  0  0  0  0  0  0  0  0  0  0  0
    0.8101   -4.9316   41.4666 C   0  0  1  0  0  0  0  0  0  0  0  0
    0.4225   -5.7597   40.3099 N   0  3  0  0  0  0  0  0  0  0  0  0
    2.0130   -3.9940   41.1449 C   0  0  2  0  0  0  0  0  0  0  0  0
    3.1467   -4.7592   40.7425 O   0  0  0  0  0  0  0  0  0  0  0  0
    2.4113   -3.1400   42.3841 C   0  0  1  0  0  0  0  0  0  0  0  0
    3.4205   -2.1694   41.9763 O   0  0  0  0  0  0  0  0  0  0  0  0
    1.1856   -2.3883   42.9986 C   0  0  1  0  0  0  0  0  0  0  0  0
   -0.0322   -3.3299   43.2653 C   0  0  1  0  0  0  0  0  0  0  0  0
   -1.2079   -2.5748   43.7522 N   0  3  0  0  0  0  0  0  0  0  0  0
   -0.4097   -4.1125   41.9809 C   0  0  0  0  0  0  0  0  0  0  0  0
    4.6227   -2.6166   41.2717 C   0  0  1  0  0  0  0  0  0  0  0  0
    4.4291   -2.3743   39.7631 C   0  0  2  0  0  0  0  0  0  0  0  0
    5.2339   -3.2638   38.9942 O   0  0  0  0  0  0  0  0  0  0  0  0
    4.9285   -0.9236   39.6859 C   0  0  1  0  0  0  0  0  0  0  0  0
    6.1645   -0.9580   40.5695 C   0  0  2  0  0  0  0  0  0  0  0  0
    5.7487   -1.7984   41.6351 O   0  0  0  0  0  0  0  0  0  0  0  0
    6.6192    0.4037   41.1105 C   0  0  0  0  0  0  0  0  0  0  0  0
    5.5717    1.0061   41.8564 O   0  0  0  0  0  0  0  0  0  0  0  0
    2.5134    2.1773   36.2871 C   0  0  1  0  0  0  0  0  0  0  0  0
    3.3606    3.3238   36.3379 O   0  0  0  0  0  0  0  0  0  0  0  0
    3.1955    1.0698   35.4362 C   0  0  2  0  0  0  0  0  0  0  0  0
    2.2124    0.0999   35.0821 O   0  0  0  0  0  0  0  0  0  0  0  0
    4.3963    0.3410   36.1237 C   0  0  1  0  0  0  0  0  0  0  0  0
    5.6453    1.1092   35.9263 N   0  3  0  0  0  0  0  0  0  0  0  0
    4.1088    0.0360   37.6174 C   0  0  1  0  0  0  0  0  0  0  0  0
    5.2607   -0.4420   38.3547 O   0  0  0  0  0  0  0  0  0  0  0  0
    2.2419    1.6461   37.7171 C   0  0  1  0  0  0  0  0  0  0  0  0
    3.5110    1.2051   38.2725 O   0  0  0  0  0  0  0  0  0  0  0  0
    1.5612    2.6710   38.6436 C   0  0  0  0  0  0  0  0  0  0  0  0
    1.4748    2.2063   40.0418 N   0  3  0  0  0  0  0  0  0  0  0  0
  1  2  1  1  0  0  0
  1  3  1  0  0  0  0
  1 10  1  0  0  0  0
  3  4  1  6  0  0  0
  3  5  1  0  0  0  0
  5  6  1  1  0  0  0
  5  7  1  0  0  0  0
  7  8  1  1  0  0  0
  7  9  1  0  0  0  0
  9 10  1  0  0  0  0
  9 11  1  1  0  0  0
 11 12  1  0  0  0  0
 13 14  1  6  0  0  0
 13 15  1  0  0  0  0
 13 22  1  0  0  0  0
 15 16  1  1  0  0  0
 15 17  1  0  0  0  0
 17 18  1  6  0  0  0
 17 19  1  0  0  0  0
 19  2  1  1  0  0  0
 19 20  1  0  0  0  0
 20 21  1  6  0  0  0
 20 22  1  0  0  0  0
 23 18  1  1  0  0  0
 23 24  1  0  0  0  0
 23 28  1  0  0  0  0
 24 25  1  6  0  0  0
 24 26  1  0  0  0  0
 26 27  1  0  0  0  0
 26 38  1  6  0  0  0
 27 28  1  0  0  0  0
 27 29  1  1  0  0  0
 29 30  1  0  0  0  0
 31 32  1  1  0  0  0
 31 33  1  0  0  0  0
 31 39  1  0  0  0  0
 33 34  1  1  0  0  0
 33 35  1  0  0  0  0
 35 36  1  1  0  0  0
 35 37  1  0  0  0  0
 37 38  1  1  0  0  0
 37 40  1  0  0  0  0
 39 40  1  0  0  0  0
 39 41  1  1  0  0  0
 41 42  1  0  0  0  0
M  CHG  5   4   1  14   1  21   1  36   1  42   1
M  END
>  <CHROM.1>
-130.25599869,112.79240167,41.57827762,-165.35659751,63.70369965,100.72661163
155.80450247,152.24595868,57.69628888,-52.43783750,99.22933876,62.09571132
-55.71253845,83.63840736,58.00155094,-60.94013454,60.65611010,71.14227531
52.47279580,-170.71687729,-172.45671387,-179.14462066,2.72789779,-0.72291016
41.49187089,-2.57616764,-1.19609558,-2.41224546

>  <Name>
1pbr

>  <RI>
0

>  <Rbt.Current_Directory>
/home/itssahil/PROJECTS/Mol_Feturizer/New_Systems/rnas/1pbr

>  <Rbt.Executable>
rbdock ($Id: //depot/dev/client3/rdock/2013.1/src/exe/rbdock.cxx#4 $)

>  <Rbt.Library>
libRbt.so (2013.1, Build901 2013/11/27)

>  <Rbt.Parameter_File>
/export/apps/rDock/src/rDock_2013.1_src/data/scripts/dock_solv.prm

>  <Rbt.Receptor>
prm/pocket_docking_3.prm

>  <SCORE>
-49.9827

>  <SCORE.INTER>
-54.9694

>  <SCORE.INTER.CONST>
1

>  <SCORE.INTER.POLAR>
-7.72516

>  <SCORE.INTER.ROT>
9

>  <SCORE.INTER.SOLV>
29.3436

>  <SCORE.INTER.VDW>
-30.2769

>  <SCORE.INTER.norm>
-1.3088

>  <SCORE.INTRA>
4.51713

>  <SCORE.INTRA.DIHEDRAL>
4.29065

>  <SCORE.INTRA.DIHEDRAL.0>
29.7866

>  <SCORE.INTRA.POLAR>
-0.0694138

>  <SCORE.INTRA.POLAR.0>
-0.984091

>  <SCORE.INTRA.REPUL>
-0.232811

>  <SCORE.INTRA.REPUL.0>
0.274115

>  <SCORE.INTRA.SOLV>
2.85321

>  <SCORE.INTRA.SOLV.lig_0>
-152.978

>  <SCORE.INTRA.VDW>
2.34525

>  <SCORE.INTRA.VDW.0>
-6.10719

>  <SCORE.INTRA.norm>
0.107551

>  <SCORE.RESTR>
0.469555

>  <SCORE.RESTR.CAVITY>
0.469555

>  <SCORE.RESTR.norm>
0.0111799

>  <SCORE.SYSTEM>
0

>  <SCORE.SYSTEM.CONST>
0

>  <SCORE.SYSTEM.DIHEDRAL>
0

>  <SCORE.SYSTEM.SOLV>
0

>  <SCORE.SYSTEM.norm>
0

>  <SCORE.heavy>
42

>  <SCORE.norm>
-1.19007

>  <RMSD>
1.081

$$$$
1pbr
 OpenBabel11021811403D
libRbt.so/2013.1/901 2013/11/27
 42 45  0  0  0  0  0  0  0  0999 V2000
    2.1155   -0.3170   44.1965 C   0  0  2  0  0  0  0  0  0  0  0  0
    1.9078   -1.7464   44.3264 O   0  0  0  0  0  0  0  0  0  0  0  0
    3.4709    0.1147   44.8709 C   0  0  2  0  0  0  0  0  0  0  0  0
    4.6040   -0.8153   44.6274 N   0  3  0  0  0  0  0  0  0  0  0  0
    3.3311    0.2328   46.4003 C   0  0  1  0  0  0  0  0  0  0  0  0
    4.4734    0.8726   46.9650 O   0  0  0  0  0  0  0  0  0  0  0  0
    2.0664    1.0177   46.7799 C   0  0  2  0  0  0  0  0  0  0  0  0
    1.9771    1.1541   48.1947 O   0  0  0  0  0  0  0  0  0  0  0  0
    0.8096    0.3596   46.1684 C   0  0  2  0  0  0  0  0  0  0  0  0
    0.9708    0.4009   44.7346 O   0  0  0  0  0  0  0  0  0  0  0  0
   -0.4998    1.0665   46.5143 C   0  0  0  0  0  0  0  0  0  0  0  0
   -1.4624    0.9022   45.4813 O   0  0  0  0  0  0  0  0  0  0  0  0
    0.2546   -4.8781   41.9458 C   0  0  1  0  0  0  0  0  0  0  0  0
   -0.5574   -5.7298   41.0574 N   0  3  0  0  0  0  0  0  0  0  0  0
    0.9364   -3.7053   41.1780 C   0  0  2  0  0  0  0  0  0  0  0  0
    1.7817   -4.2102   40.1470 O   0  0  0  0  0  0  0  0  0  0  0  0
    1.7974   -2.8287   42.1340 C   0  0  1  0  0  0  0  0  0  0  0  0
    2.2671   -1.6603   41.3985 O   0  0  0  0  0  0  0  0  0  0  0  0
    0.9911   -2.3625   43.3901 C   0  0  1  0  0  0  0  0  0  0  0  0
    0.2681   -3.5404   44.1184 C   0  0  1  0  0  0  0  0  0  0  0  0
   -0.5653   -3.0566   45.2413 N   0  3  0  0  0  0  0  0  0  0  0  0
   -0.6108   -4.3414   43.1233 C   0  0  0  0  0  0  0  0  0  0  0  0
    3.5237   -1.7233   40.6508 C   0  0  1  0  0  0  0  0  0  0  0  0
    3.4237   -0.7796   39.4378 C   0  0  2  0  0  0  0  0  0  0  0  0
    4.2989   -1.1945   38.3928 O   0  0  0  0  0  0  0  0  0  0  0  0
    3.8914    0.5222   40.1060 C   0  0  1  0  0  0  0  0  0  0  0  0
    5.0671    0.0519   40.9462 C   0  0  2  0  0  0  0  0  0  0  0  0
    4.6029   -1.1947   41.4415 O   0  0  0  0  0  0  0  0  0  0  0  0
    5.4517    0.9773   42.1079 C   0  0  0  0  0  0  0  0  0  0  0  0
    5.4417    2.3303   41.6770 O   0  0  0  0  0  0  0  0  0  0  0  0
    2.1259    2.8990   35.7021 C   0  0  1  0  0  0  0  0  0  0  0  0
    2.2833    4.2922   35.9650 O   0  0  0  0  0  0  0  0  0  0  0  0
    3.5212    2.2598   35.4572 C   0  0  2  0  0  0  0  0  0  0  0  0
    3.3355    0.9884   34.8394 O   0  0  0  0  0  0  0  0  0  0  0  0
    4.4065    2.0746   36.7330 C   0  0  1  0  0  0  0  0  0  0  0  0
    5.1498    3.3193   37.0284 N   0  3  0  0  0  0  0  0  0  0  0  0
    3.5779    1.5687   37.9430 C   0  0  1  0  0  0  0  0  0  0  0  0
    4.2984    1.5842   39.1998 O   0  0  0  0  0  0  0  0  0  0  0  0
    1.4334    2.2013   36.8998 C   0  0  1  0  0  0  0  0  0  0  0  0
    2.3181    2.3139   38.0480 O   0  0  0  0  0  0  0  0  0  0  0  0
    0.0358    2.7614   37.2240 C   0  0  0  0  0  0  0  0  0  0  0  0
    0.0762    4.1629   37.6853 N   0  3  0  0  0  0  0  0  0  0  0  0
  1  2  1  1  0  0  0
  1  3  1  0  0  0  0
  1 10  1  0  0  0  0
  3  4  1  1  0  0  0
  3  5  1  0  0  0  0
  5  6  1  6  0  0  0
  5  7  1  0  0  0  0
  7  8  1  1  0  0  0
  7  9  1  0  0  0  0
  9 10  1  0  0  0  0
  9 11  1  6  0  0  0
 11 12  1  0  0  0  0
 13 14  1  6  0  0  0
 13 15  1  0  0  0  0
 13 22  1  0  0  0  0
 15 16  1  6  0  0  0
 15 17  1  0  0  0  0
 17 18  1  6  0  0  0
 17 19  1  0  0  0  0
 19  2  1  1  0  0  0
 19 20  1  0  0  0  0
 20 21  1  1  0  0  0
 20 22  1  0  0  0  0
 23 18  1  1  0  0  0
 23 24  1  0  0  0  0
 23 28  1  0  0  0  0
 24 25  1  6  0  0  0
 24 26  1  0  0  0  0
 26 27  1  0  0  0  0
 26 38  1  6  0  0  0
 27 28  1  0  0  0  0
 27 29  1  1  0  0  0
 29 30  1  0  0  0  0
 31 32  1  1  0  0  0
 31 33  1  0  0  0  0
 31 39  1  0  0  0  0
 33 34  1  1  0  0  0
 33 35  1  0  0  0  0
 35 36  1  1  0  0  0
 35 37  1  0  0  0  0
 37 38  1  1  0  0  0
 37 40  1  0  0  0  0
 39 40  1  0  0  0  0
 39 41  1  1  0  0  0
 41 42  1  0  0  0  0
M  CHG  5   4   1  14   1  21   1  36   1  42   1
M  END
>  <CHROM.1>
-158.95422772,90.23002264,-78.29693237,54.30799050,174.46404337,150.40922031
-53.74956459,-47.42531207,68.89255095,-88.40809586,149.52572136,57.10269578
-60.73906900,31.27356808,-43.71462747,-69.03376036,55.38196030,58.91033670
67.27046965,-148.18010031,-65.15666639,-69.58979830,2.35386108,-0.05349135
41.43343704,-2.04483036,-1.13321955,-1.61627504

>  <Name>
1pbr

>  <RI>
0

>  <Rbt.Current_Directory>
/home/itssahil/PROJECTS/Mol_Feturizer/New_Systems/rnas/1pbr

>  <Rbt.Executable>
rbdock ($Id: //depot/dev/client3/rdock/2013.1/src/exe/rbdock.cxx#4 $)

>  <Rbt.Library>
libRbt.so (2013.1, Build901 2013/11/27)

>  <Rbt.Parameter_File>
/export/apps/rDock/src/rDock_2013.1_src/data/scripts/dock_solv.prm

>  <Rbt.Receptor>
prm/pocket_docking_4.prm

>  <SCORE>
-68.8588

>  <SCORE.INTER>
-65.5326

>  <SCORE.INTER.CONST>
1

>  <SCORE.INTER.POLAR>
-8.57921

>  <SCORE.INTER.ROT>
9

>  <SCORE.INTER.SOLV>
35.7139

>  <SCORE.INTER.VDW>
-36.5957

>  <SCORE.INTER.norm>
-1.5603

>  <SCORE.INTRA>
-3.32623

>  <SCORE.INTRA.DIHEDRAL>
-2.67638

>  <SCORE.INTRA.DIHEDRAL.0>
29.7866

>  <SCORE.INTRA.POLAR>
-0.751599

>  <SCORE.INTRA.POLAR.0>
-0.984091

>  <SCORE.INTRA.REPUL>
-0.258138

>  <SCORE.INTRA.REPUL.0>
0.274115

>  <SCORE.INTRA.SOLV>
2.3306

>  <SCORE.INTRA.SOLV.lig_0>
-152.978

>  <SCORE.INTRA.VDW>
0.692781

>  <SCORE.INTRA.VDW.0>
-6.10719

>  <SCORE.INTRA.norm>
-0.0791961

>  <SCORE.RESTR>
0

>  <SCORE.RESTR.CAVITY>
0

>  <SCORE.RESTR.norm>
0

>  <SCORE.SYSTEM>
0

>  <SCORE.SYSTEM.CONST>
0

>  <SCORE.SYSTEM.DIHEDRAL>
0

>  <SCORE.SYSTEM.SOLV>
0

>  <SCORE.SYSTEM.norm>
0

>  <SCORE.heavy>
42

>  <SCORE.norm>
-1.6395

>  <RMSD>
1.105

$$$$
1pbr
 OpenBabel11021811403D
libRbt.so/2013.1/901 2013/11/27
 42 45  0  0  0  0  0  0  0  0999 V2000
    2.2077   -0.5436   44.2342 C   0  0  2  0  0  0  0  0  0  0  0  0
    1.8746   -1.9379   44.4536 O   0  0  0  0  0  0  0  0  0  0  0  0
    3.4949   -0.1416   45.0465 C   0  0  2  0  0  0  0  0  0  0  0  0
    4.5741   -1.1631   45.0361 N   0  3  0  0  0  0  0  0  0  0  0  0
    3.1697    0.1268   46.5280 C   0  0  1  0  0  0  0  0  0  0  0  0
    4.2765    0.7395   47.1861 O   0  0  0  0  0  0  0  0  0  0  0  0
    1.9317    1.0255   46.6672 C   0  0  2  0  0  0  0  0  0  0  0  0
    1.6726    1.2982   48.0408 O   0  0  0  0  0  0  0  0  0  0  0  0
    0.7164    0.3979   45.9491 C   0  0  2  0  0  0  0  0  0  0  0  0
    1.0628    0.2952   44.5516 O   0  0  0  0  0  0  0  0  0  0  0  0
   -0.5677    1.2188   46.0555 C   0  0  0  0  0  0  0  0  0  0  0  0
   -1.0051    1.3185   47.4043 O   0  0  0  0  0  0  0  0  0  0  0  0
    0.3684   -5.0619   41.9676 C   0  0  1  0  0  0  0  0  0  0  0  0
   -0.3996   -5.9177   41.0447 N   0  3  0  0  0  0  0  0  0  0  0  0
    1.0211   -3.8470   41.2411 C   0  0  2  0  0  0  0  0  0  0  0  0
    1.8994   -4.2959   40.2117 O   0  0  0  0  0  0  0  0  0  0  0  0
    1.8361   -2.9664   42.2330 C   0  0  1  0  0  0  0  0  0  0  0  0
    2.2765   -1.7639   41.5351 O   0  0  0  0  0  0  0  0  0  0  0  0
    0.9946   -2.5607   43.4870 C   0  0  1  0  0  0  0  0  0  0  0  0
    0.3016   -3.7811   44.1733 C   0  0  1  0  0  0  0  0  0  0  0  0
   -0.5656   -3.3553   45.2941 N   0  3  0  0  0  0  0  0  0  0  0  0
   -0.5334   -4.5858   43.1438 C   0  0  0  0  0  0  0  0  0  0  0  0
    3.4151   -1.8264   40.6177 C   0  0  1  0  0  0  0  0  0  0  0  0
    3.2064   -0.7864   39.5010 C   0  0  2  0  0  0  0  0  0  0  0  0
    3.9077   -1.1581   38.3177 O   0  0  0  0  0  0  0  0  0  0  0  0
    3.8333    0.4354   40.1894 C   0  0  1  0  0  0  0  0  0  0  0  0
    5.0829   -0.1539   40.8226 C   0  0  2  0  0  0  0  0  0  0  0  0
    4.6194   -1.4126   41.2868 O   0  0  0  0  0  0  0  0  0  0  0  0
    5.6727    0.6582   41.9829 C   0  0  0  0  0  0  0  0  0  0  0  0
    6.4548   -0.1826   42.8182 O   0  0  0  0  0  0  0  0  0  0  0  0
    2.0839    2.8280   35.7549 C   0  0  1  0  0  0  0  0  0  0  0  0
    2.3001    4.2215   35.9698 O   0  0  0  0  0  0  0  0  0  0  0  0
    3.4517    2.1207   35.5438 C   0  0  2  0  0  0  0  0  0  0  0  0
    3.2148    0.8374   34.9697 O   0  0  0  0  0  0  0  0  0  0  0  0
    4.3198    1.9428   36.8324 C   0  0  1  0  0  0  0  0  0  0  0  0
    5.1146    3.1639   37.0898 N   0  3  0  0  0  0  0  0  0  0  0  0
    3.4620    1.5164   38.0528 C   0  0  1  0  0  0  0  0  0  0  0  0
    4.1744    1.5454   39.3140 O   0  0  0  0  0  0  0  0  0  0  0  0
    1.3539    2.2039   36.9707 C   0  0  1  0  0  0  0  0  0  0  0  0
    2.2352    2.3187   38.1213 O   0  0  0  0  0  0  0  0  0  0  0  0
   -0.0201    2.8351   37.2638 C   0  0  0  0  0  0  0  0  0  0  0  0
    0.0812    4.2362   37.7168 N   0  3  0  0  0  0  0  0  0  0  0  0
  1  2  1  1  0  0  0
  1  3  1  0  0  0  0
  1 10  1  0  0  0  0
  3  4  1  1  0  0  0
  3  5  1  0  0  0  0
  5  6  1  6  0  0  0
  5  7  1  0  0  0  0
  7  8  1  1  0  0  0
  7  9  1  0  0  0  0
  9 10  1  0  0  0  0
  9 11  1  6  0  0  0
 11 12  1  0  0  0  0
 13 14  1  6  0  0  0
 13 15  1  0  0  0  0
 13 22  1  0  0  0  0
 15 16  1  6  0  0  0
 15 17  1  0  0  0  0
 17 18  1  6  0  0  0
 17 19  1  0  0  0  0
 19  2  1  1  0  0  0
 19 20  1  0  0  0  0
 20 21  1  1  0  0  0
 20 22  1  0  0  0  0
 23 18  1  1  0  0  0
 23 24  1  0  0  0  0
 23 28  1  0  0  0  0
 24 25  1  6  0  0  0
 24 26  1  0  0  0  0
 26 27  1  0  0  0  0
 26 38  1  6  0  0  0
 27 28  1  0  0  0  0
 27 29  1  1  0  0  0
 29 30  1  0  0  0  0
 31 32  1  1  0  0  0
 31 33  1  0  0  0  0
 31 39  1  0  0  0  0
 33 34  1  1  0  0  0
 33 35  1  0  0  0  0
 35 36  1  1  0  0  0
 35 37  1  0  0  0  0
 37 38  1  1  0  0  0
 37 40  1  0  0  0  0
 39 40  1  0  0  0  0
 39 41  1  1  0  0  0
 41 42  1  0  0  0  0
M  CHG  5   4   1  14   1  21   1  36   1  42   1
M  END
>  <CHROM.1>
-161.48172168,80.45386855,-45.89986960,54.88834501,-49.73604763,-63.71772733
-54.52002118,-50.38003150,-61.85802393,-77.62566539,148.92043153,-64.14357796
65.60301955,20.32462418,156.85317758,177.43344053,60.91455109,-69.66614266
-42.95077327,-141.02117495,-66.96598597,163.45518517,2.35766011,-0.22091581
41.55192375,-2.13106312,-1.24503270,-1.73508081

>  <Name>
1pbr

>  <RI>
0

>  <Rbt.Current_Directory>
/home/itssahil/PROJECTS/Mol_Feturizer/New_Systems/rnas/1pbr

>  <Rbt.Executable>
rbdock ($Id: //depot/dev/client3/rdock/2013.1/src/exe/rbdock.cxx#4 $)

>  <Rbt.Library>
libRbt.so (2013.1, Build901 2013/11/27)

>  <Rbt.Parameter_File>
/export/apps/rDock/src/rDock_2013.1_src/data/scripts/dock_solv.prm

>  <Rbt.Receptor>
prm/pocket_docking_2.prm

>  <SCORE>
-55.5336

>  <SCORE.INTER>
-54.7245

>  <SCORE.INTER.CONST>
1

>  <SCORE.INTER.POLAR>
-6.82725

>  <SCORE.INTER.ROT>
9

>  <SCORE.INTER.SOLV>
30.7421

>  <SCORE.INTER.VDW>
-33.5728

>  <SCORE.INTER.norm>
-1.30296

>  <SCORE.INTRA>
-3.03331

>  <SCORE.INTRA.DIHEDRAL>
-4.70531

>  <SCORE.INTRA.DIHEDRAL.0>
29.7866

>  <SCORE.INTRA.POLAR>
-0.593041

>  <SCORE.INTRA.POLAR.0>
-0.984091

>  <SCORE.INTRA.REPUL>
-0.274115

>  <SCORE.INTRA.REPUL.0>
0.274115

>  <SCORE.INTRA.SOLV>
2.18498

>  <SCORE.INTRA.SOLV.lig_0>
-152.978

>  <SCORE.INTRA.VDW>
1.61377

>  <SCORE.INTRA.VDW.0>
-6.10719

>  <SCORE.INTRA.norm>
-0.0722217

>  <SCORE.RESTR>
2.22421

>  <SCORE.RESTR.CAVITY>
2.22421

>  <SCORE.RESTR.norm>
0.0529573

>  <SCORE.SYSTEM>
0

>  <SCORE.SYSTEM.CONST>
0

>  <SCORE.SYSTEM.DIHEDRAL>
0

>  <SCORE.SYSTEM.SOLV>
0

>  <SCORE.SYSTEM.norm>
0

>  <SCORE.heavy>
42

>  <SCORE.norm>
-1.32223

>  <RMSD>
1.134

$$$$
1pbr
 OpenBabel11021811403D
libRbt.so/2013.1/901 2013/11/27
 42 45  0  0  0  0  0  0  0  0999 V2000
    1.5204   -0.8611   44.8875 C   0  0  2  0  0  0  0  0  0  0  0  0
    0.9317   -2.1747   45.0641 O   0  0  0  0  0  0  0  0  0  0  0  0
    2.8251   -0.7118   45.7556 C   0  0  2  0  0  0  0  0  0  0  0  0
    3.7011   -1.9121   45.7629 N   0  3  0  0  0  0  0  0  0  0  0  0
    2.4944   -0.4104   47.2295 C   0  0  1  0  0  0  0  0  0  0  0  0
    3.6663   -0.0188   47.9412 O   0  0  0  0  0  0  0  0  0  0  0  0
    1.4349    0.6962   47.3422 C   0  0  2  0  0  0  0  0  0  0  0  0
    1.1742    0.9914   48.7108 O   0  0  0  0  0  0  0  0  0  0  0  0
    0.1561    0.3106   46.5660 C   0  0  2  0  0  0  0  0  0  0  0  0
    0.5343    0.1671   45.1804 O   0  0  0  0  0  0  0  0  0  0  0  0
   -0.9613    1.3496   46.6425 C   0  0  0  0  0  0  0  0  0  0  0  0
   -1.8146    1.2729   45.5082 O   0  0  0  0  0  0  0  0  0  0  0  0
    0.0836   -5.1401   42.1153 C   0  0  1  0  0  0  0  0  0  0  0  0
   -0.4581   -5.9506   41.0092 N   0  3  0  0  0  0  0  0  0  0  0  0
    0.7602   -3.8296   41.6108 C   0  0  2  0  0  0  0  0  0  0  0  0
    1.8267   -4.1333   40.7147 O   0  0  0  0  0  0  0  0  0  0  0  0
    1.3350   -2.9982   42.7948 C   0  0  1  0  0  0  0  0  0  0  0  0
    1.7990   -1.7146   42.2810 O   0  0  0  0  0  0  0  0  0  0  0  0
    0.2705   -2.7557   43.9143 C   0  0  1  0  0  0  0  0  0  0  0  0
   -0.4387   -4.0703   44.3721 C   0  0  1  0  0  0  0  0  0  0  0  0
   -1.5077   -3.7973   45.3580 N   0  3  0  0  0  0  0  0  0  0  0  0
   -1.0322   -4.8240   43.1538 C   0  0  0  0  0  0  0  0  0  0  0  0
    3.2212   -1.5086   42.0042 C   0  0  1  0  0  0  0  0  0  0  0  0
    3.5043   -1.9178   40.5466 C   0  0  2  0  0  0  0  0  0  0  0  0
    4.8672   -2.2972   40.3768 O   0  0  0  0  0  0  0  0  0  0  0  0
    3.1808   -0.5848   39.8549 C   0  0  1  0  0  0  0  0  0  0  0  0
    3.8323    0.4285   40.7814 C   0  0  2  0  0  0  0  0  0  0  0  0
    3.5444   -0.1081   42.0635 O   0  0  0  0  0  0  0  0  0  0  0  0
    3.2911    1.8596   40.6684 C   0  0  0  0  0  0  0  0  0  0  0  0
    2.0766    1.9800   41.3942 O   0  0  0  0  0  0  0  0  0  0  0  0
    1.7057    2.4522   35.9692 C   0  0  1  0  0  0  0  0  0  0  0  0
    2.7311    3.4388   36.0698 O   0  0  0  0  0  0  0  0  0  0  0  0
    2.2749    1.1869   35.2688 C   0  0  2  0  0  0  0  0  0  0  0  0
    1.1834    0.3752   34.8416 O   0  0  0  0  0  0  0  0  0  0  0  0
    3.2390    0.3159   36.1392 C   0  0  1  0  0  0  0  0  0  0  0  0
    4.6189    0.8445   36.0640 N   0  3  0  0  0  0  0  0  0  0  0  0
    2.7298    0.1720   37.5975 C   0  0  1  0  0  0  0  0  0  0  0  0
    3.6849   -0.4407   38.4985 O   0  0  0  0  0  0  0  0  0  0  0  0
    1.1795    2.0788   37.3779 C   0  0  1  0  0  0  0  0  0  0  0  0
    2.2768    1.4695   38.1118 O   0  0  0  0  0  0  0  0  0  0  0  0
    0.5882    3.2681   38.1575 C   0  0  0  0  0  0  0  0  0  0  0  0
   -0.5282    3.9188   37.4443 N   0  3  0  0  0  0  0  0  0  0  0  0
  1  2  1  1  0  0  0
  1  3  1  0  0  0  0
  1 10  1  0  0  0  0
  3  4  1  1  0  0  0
  3  5  1  0  0  0  0
  5  6  1  1  0  0  0
  5  7  1  0  0  0  0
  7  8  1  1  0  0  0
  7  9  1  0  0  0  0
  9 10  1  0  0  0  0
  9 11  1  6  0  0  0
 11 12  1  0  0  0  0
 13 14  1  6  0  0  0
 13 15  1  0  0  0  0
 13 22  1  0  0  0  0
 15 16  1  6  0  0  0
 15 17  1  0  0  0  0
 17 18  1  6  0  0  0
 17 19  1  0  0  0  0
 19  2  1  1  0  0  0
 19 20  1  0  0  0  0
 20 21  1  1  0  0  0
 20 22  1  0  0  0  0
 23 18  1  6  0  0  0
 23 24  1  0  0  0  0
 23 28  1  0  0  0  0
 24 25  1  1  0  0  0
 24 26  1  0  0  0  0
 26 27  1  0  0  0  0
 26 38  1  6  0  0  0
 27 28  1  0  0  0  0
 27 29  1  1  0  0  0
 29 30  1  0  0  0  0
 31 32  1  1  0  0  0
 31 33  1  0  0  0  0
 31 39  1  0  0  0  0
 33 34  1  1  0  0  0
 33 35  1  0  0  0  0
 35 36  1  1  0  0  0
 35 37  1  0  0  0  0
 37 38  1  1  0  0  0
 37 40  1  0  0  0  0
 39 40  1  0  0  0  0
 39 41  1  1  0  0  0
 41 42  1  0  0  0  0
M  CHG  5   4   1  14   1  21   1  36   1  42   1
M  END
>  <CHROM.1>
-146.30856161,64.20865345,175.06674399,60.99882057,32.34676296,153.80070506
-55.19444529,-172.82499696,64.87977665,-99.14561940,89.86608052,74.71302147
-177.66103621,137.94825379,80.19528863,85.10283366,171.81728352,178.51907163
167.47510203,-179.11498561,58.16465675,-57.67031475,1.70478387,-0.53974936
41.73468656,-2.58675131,-1.38970281,-2.29380464

>  <Name>
1pbr

>  <RI>
0

>  <Rbt.Current_Directory>
/home/itssahil/PROJECTS/Mol_Feturizer/New_Systems/rnas/1pbr

>  <Rbt.Executable>
rbdock ($Id: //depot/dev/client3/rdock/2013.1/src/exe/rbdock.cxx#4 $)

>  <Rbt.Library>
libRbt.so (2013.1, Build901 2013/11/27)

>  <Rbt.Parameter_File>
/export/apps/rDock/src/rDock_2013.1_src/data/scripts/dock_solv.prm

>  <Rbt.Receptor>
prm/pocket_docking_3.prm

>  <SCORE>
-47.4144

>  <SCORE.INTER>
-49.1501

>  <SCORE.INTER.CONST>
1

>  <SCORE.INTER.POLAR>
-6.19162

>  <SCORE.INTER.ROT>
9

>  <SCORE.INTER.SOLV>
29.3201

>  <SCORE.INTER.VDW>
-31.5014

>  <SCORE.INTER.norm>
-1.17024

>  <SCORE.INTRA>
1.73572

>  <SCORE.INTRA.DIHEDRAL>
0.893232

>  <SCORE.INTRA.DIHEDRAL.0>
29.7866

>  <SCORE.INTRA.POLAR>
0.729788

>  <SCORE.INTRA.POLAR.0>
-0.984091

>  <SCORE.INTRA.REPUL>
-0.274115

>  <SCORE.INTRA.REPUL.0>
0.274115

>  <SCORE.INTRA.SOLV>
-2.29109

>  <SCORE.INTRA.SOLV.lig_0>
-152.978

>  <SCORE.INTRA.VDW>
1.32395

>  <SCORE.INTRA.VDW.0>
-6.10719

>  <SCORE.INTRA.norm>
0.0413267

>  <SCORE.RESTR>
0

>  <SCORE.RESTR.CAVITY>
0

>  <SCORE.RESTR.norm>
0

>  <SCORE.SYSTEM>
0

>  <SCORE.SYSTEM.CONST>
0

>  <SCORE.SYSTEM.DIHEDRAL>
0

>  <SCORE.SYSTEM.SOLV>
0

>  <SCORE.SYSTEM.norm>
0

>  <SCORE.heavy>
42

>  <SCORE.norm>
-1.12891

>  <RMSD>
1.216

$$$$
1pbr
 OpenBabel11021811403D
libRbt.so/2013.1/901 2013/11/27
 42 45  0  0  0  0  0  0  0  0999 V2000
    1.7194   -0.5798   44.5723 C   0  0  2  0  0  0  0  0  0  0  0  0
    1.3963   -1.9935   44.5737 O   0  0  0  0  0  0  0  0  0  0  0  0
    3.0092   -0.3000   45.4305 C   0  0  2  0  0  0  0  0  0  0  0  0
    4.0947   -1.2997   45.2553 N   0  3  0  0  0  0  0  0  0  0  0  0
    2.6919   -0.2678   46.9374 C   0  0  1  0  0  0  0  0  0  0  0  0
    3.7990    0.2428   47.6769 O   0  0  0  0  0  0  0  0  0  0  0  0
    1.4492    0.5894   47.2215 C   0  0  2  0  0  0  0  0  0  0  0  0
    1.1973    0.6431   48.6221 O   0  0  0  0  0  0  0  0  0  0  0  0
    0.2333    0.0727   46.4208 C   0  0  2  0  0  0  0  0  0  0  0  0
    0.5713    0.1912   45.0226 O   0  0  0  0  0  0  0  0  0  0  0  0
   -1.0552    0.8579   46.6606 C   0  0  0  0  0  0  0  0  0  0  0  0
   -1.5566    0.6367   47.9722 O   0  0  0  0  0  0  0  0  0  0  0  0
    0.6675   -4.8536   41.4920 C   0  0  1  0  0  0  0  0  0  0  0  0
    0.1758   -5.6208   40.3330 N   0  3  0  0  0  0  0  0  0  0  0  0
    1.3922   -3.5408   41.0667 C   0  0  2  0  0  0  0  0  0  0  0  0
    2.5022   -3.8362   40.2222 O   0  0  0  0  0  0  0  0  0  0  0  0
    1.9129   -2.7555   42.3060 C   0  0  1  0  0  0  0  0  0  0  0  0
    2.4254   -1.4655   41.8586 O   0  0  0  0  0  0  0  0  0  0  0  0
    0.7914   -2.5281   43.3716 C   0  0  1  0  0  0  0  0  0  0  0  0
    0.0368   -3.8431   43.7483 C   0  0  1  0  0  0  0  0  0  0  0  0
   -1.0813   -3.5809   44.6814 N   0  3  0  0  0  0  0  0  0  0  0  0
   -0.4995   -4.5493   42.4763 C   0  0  0  0  0  0  0  0  0  0  0  0
    3.8365   -1.3246   41.4973 C   0  0  1  0  0  0  0  0  0  0  0  0
    3.9260   -0.6977   40.0934 C   0  0  2  0  0  0  0  0  0  0  0  0
    5.1485   -1.0504   39.4521 O   0  0  0  0  0  0  0  0  0  0  0  0
    3.8834    0.7861   40.4888 C   0  0  1  0  0  0  0  0  0  0  0  0
    4.8101    0.8284   41.6926 C   0  0  2  0  0  0  0  0  0  0  0  0
    4.4829   -0.3775   42.3661 O   0  0  0  0  0  0  0  0  0  0  0  0
    4.6146    2.0303   42.6258 C   0  0  0  0  0  0  0  0  0  0  0  0
    4.2504    1.5851   43.9241 O   0  0  0  0  0  0  0  0  0  0  0  0
    2.5708    2.2136   35.5469 C   0  0  1  0  0  0  0  0  0  0  0  0
    2.5859    3.6397   35.5731 O   0  0  0  0  0  0  0  0  0  0  0  0
    4.0303    1.6817   35.5969 C   0  0  2  0  0  0  0  0  0  0  0  0
    4.0280    0.3127   35.1990 O   0  0  0  0  0  0  0  0  0  0  0  0
    4.7394    1.8006   36.9858 C   0  0  1  0  0  0  0  0  0  0  0  0
    5.3393    3.1438   37.1437 N   0  3  0  0  0  0  0  0  0  0  0  0
    3.7892    1.4265   38.1537 C   0  0  1  0  0  0  0  0  0  0  0  0
    4.3234    1.7229   39.4674 O   0  0  0  0  0  0  0  0  0  0  0  0
    1.7710    1.6626   36.7541 C   0  0  1  0  0  0  0  0  0  0  0  0
    2.4753    2.0520   37.9649 O   0  0  0  0  0  0  0  0  0  0  0  0
    0.3041    2.1300   36.7953 C   0  0  0  0  0  0  0  0  0  0  0  0
    0.0718    3.3498   35.9974 N   0  3  0  0  0  0  0  0  0  0  0  0
  1  2  1  1  0  0  0
  1  3  1  0  0  0  0
  1 10  1  0  0  0  0
  3  4  1  1  0  0  0
  3  5  1  0  0  0  0
  5  6  1  1  0  0  0
  5  7  1  0  0  0  0
  7  8  1  1  0  0  0
  7  9  1  0  0  0  0
  9 10  1  0  0  0  0
  9 11  1  6  0  0  0
 11 12  1  0  0  0  0
 13 14  1  6  0  0  0
 13 15  1  0  0  0  0
 13 22  1  0  0  0  0
 15 16  1  6  0  0  0
 15 17  1  0  0  0  0
 17 18  1  6  0  0  0
 17 19  1  0  0  0  0
 19  2  1  1  0  0  0
 19 20  1  0  0  0  0
 20 21  1  1  0  0  0
 20 22  1  0  0  0  0
 23 18  1  1  0  0  0
 23 24  1  0  0  0  0
 23 28  1  0  0  0  0
 24 25  1  1  0  0  0
 24 26  1  0  0  0  0
 26 27  1  0  0  0  0
 26 38  1  6  0  0  0
 27 28  1  0  0  0  0
 27 29  1  1  0  0  0
 29 30  1  0  0  0  0
 31 32  1  1  0  0  0
 31 33  1  0  0  0  0
 31 39  1  0  0  0  0
 33 34  1  1  0  0  0
 33 35  1  0  0  0  0
 35 36  1  1  0  0  0
 35 37  1  0  0  0  0
 37 38  1  1  0  0  0
 37 40  1  0  0  0  0
 39 40  1  0  0  0  0
 39 41  1  1  0  0  0
 41 42  1  0  0  0  0
M  CHG  5   4   1  14   1  21   1  36   1  42   1
M  END
>  <CHROM.1>
-147.06650642,78.86046588,-173.07574149,-69.53810515,50.23562094,-69.52843057
42.16405527,-66.83065099,-59.69257956,-91.04124496,127.54427336,85.46643126
177.57646878,44.47721396,119.07193150,70.22262603,62.48587945,85.51745028
84.97960178,-147.64002760,-20.50066516,-50.36419634,2.31551115,-0.23862423
41.70159870,-2.08218826,-1.10962275,-1.74522840

>  <Name>
1pbr

>  <RI>
0

>  <Rbt.Current_Directory>
/home/itssahil/PROJECTS/Mol_Feturizer/New_Systems/rnas/1pbr

>  <Rbt.Executable>
rbdock ($Id: //depot/dev/client3/rdock/2013.1/src/exe/rbdock.cxx#4 $)

>  <Rbt.Library>
libRbt.so (2013.1, Build901 2013/11/27)

>  <Rbt.Parameter_File>
/export/apps/rDock/src/rDock_2013.1_src/data/scripts/dock_solv.prm

>  <Rbt.Receptor>
prm/pocket_docking_4.prm

>  <SCORE>
-53.9095

>  <SCORE.INTER>
-56.4489

>  <SCORE.INTER.CONST>
1

>  <SCORE.INTER.POLAR>
-7.42063

>  <SCORE.INTER.ROT>
9

>  <SCORE.INTER.SOLV>
31.9106

>  <SCORE.INTER.VDW>
-33.134

>  <SCORE.INTER.norm>
-1.34402

>  <SCORE.INTRA>
2.53935

>  <SCORE.INTRA.DIHEDRAL>
10.4633

>  <SCORE.INTRA.DIHEDRAL.0>
29.7866

>  <SCORE.INTRA.POLAR>
-1.43662

>  <SCORE.INTRA.POLAR.0>
-0.984091

>  <SCORE.INTRA.REPUL>
-0.274115

>  <SCORE.INTRA.REPUL.0>
0.274115

>  <SCORE.INTRA.SOLV>
3.95283

>  <SCORE.INTRA.SOLV.lig_0>
-152.978

>  <SCORE.INTRA.VDW>
1.58635

>  <SCORE.INTRA.VDW.0>
-6.10719

>  <SCORE.INTRA.norm>
0.0604606

>  <SCORE.RESTR>
0

>  <SCORE.RESTR.CAVITY>
0

>  <SCORE.RESTR.norm>
0

>  <SCORE.SYSTEM>
0

>  <SCORE.SYSTEM.CONST>
0

>  <SCORE.SYSTEM.DIHEDRAL>
0

>  <SCORE.SYSTEM.SOLV>
0

>  <SCORE.SYSTEM.norm>
0

>  <SCORE.heavy>
42

>  <SCORE.norm>
-1.28356

>  <RMSD>
1.237

$$$$
1pbr
 OpenBabel11021811403D
libRbt.so/2013.1/901 2013/11/27
 42 45  0  0  0  0  0  0  0  0999 V2000
    1.4967   -0.1511   43.8984 C   0  0  2  0  0  0  0  0  0  0  0  0
    1.3556   -1.5777   44.1181 O   0  0  0  0  0  0  0  0  0  0  0  0
    2.8549    0.3750   44.4956 C   0  0  2  0  0  0  0  0  0  0  0  0
    4.0180   -0.5204   44.2638 N   0  3  0  0  0  0  0  0  0  0  0  0
    2.7638    0.5773   46.0199 C   0  0  1  0  0  0  0  0  0  0  0  0
    3.8965    1.2958   46.5037 O   0  0  0  0  0  0  0  0  0  0  0  0
    1.4804    1.3306   46.4008 C   0  0  2  0  0  0  0  0  0  0  0  0
    1.4349    1.5466   47.8078 O   0  0  0  0  0  0  0  0  0  0  0  0
    0.2326    0.5865   45.8757 C   0  0  2  0  0  0  0  0  0  0  0  0
    0.3416    0.5496   44.4369 O   0  0  0  0  0  0  0  0  0  0  0  0
   -1.0933    1.2582   46.2291 C   0  0  0  0  0  0  0  0  0  0  0  0
   -1.0572    1.8124   47.5376 O   0  0  0  0  0  0  0  0  0  0  0  0
    0.3920   -4.9630   41.7058 C   0  0  1  0  0  0  0  0  0  0  0  0
   -0.1948   -5.9344   40.7646 N   0  3  0  0  0  0  0  0  0  0  0  0
    1.0359   -3.7467   40.9738 C   0  0  2  0  0  0  0  0  0  0  0  0
    2.0618   -4.1859   40.0867 O   0  0  0  0  0  0  0  0  0  0  0  0
    1.6592   -2.7425   41.9871 C   0  0  1  0  0  0  0  0  0  0  0  0
    2.0904   -1.5541   41.2599 O   0  0  0  0  0  0  0  0  0  0  0  0
    0.6460   -2.3292   43.1040 C   0  0  1  0  0  0  0  0  0  0  0  0
   -0.0326   -3.5567   43.7920 C   0  0  1  0  0  0  0  0  0  0  0  0
   -1.0568   -3.1338   44.7726 N   0  3  0  0  0  0  0  0  0  0  0  0
   -0.6768   -4.4894   42.7338 C   0  0  0  0  0  0  0  0  0  0  0  0
    3.2845   -1.6067   40.4153 C   0  0  1  0  0  0  0  0  0  0  0  0
    3.1467   -0.5532   39.3003 C   0  0  2  0  0  0  0  0  0  0  0  0
    3.9209   -0.9113   38.1590 O   0  0  0  0  0  0  0  0  0  0  0  0
    3.7293    0.6597   40.0414 C   0  0  1  0  0  0  0  0  0  0  0  0
    4.9365    0.0617   40.7447 C   0  0  2  0  0  0  0  0  0  0  0  0
    4.4445   -1.2020   41.1638 O   0  0  0  0  0  0  0  0  0  0  0  0
    5.4522    0.8593   41.9495 C   0  0  0  0  0  0  0  0  0  0  0  0
    6.6348    0.2613   42.4598 O   0  0  0  0  0  0  0  0  0  0  0  0
    2.2646    3.1308   35.5424 C   0  0  1  0  0  0  0  0  0  0  0  0
    2.5028    4.5175   35.7774 O   0  0  0  0  0  0  0  0  0  0  0  0
    3.6242    2.3909   35.4020 C   0  0  2  0  0  0  0  0  0  0  0  0
    3.3879    1.1166   34.8080 O   0  0  0  0  0  0  0  0  0  0  0  0
    4.4158    2.1854   36.7351 C   0  0  1  0  0  0  0  0  0  0  0  0
    5.2250    3.3851   37.0430 N   0  3  0  0  0  0  0  0  0  0  0  0
    3.4823    1.7745   37.9041 C   0  0  1  0  0  0  0  0  0  0  0  0
    4.1250    1.7798   39.2025 O   0  0  0  0  0  0  0  0  0  0  0  0
    1.4541    2.5192   36.7127 C   0  0  1  0  0  0  0  0  0  0  0  0
    2.2736    2.6066   37.9104 O   0  0  0  0  0  0  0  0  0  0  0  0
    0.0820    3.1828   36.9341 C   0  0  0  0  0  0  0  0  0  0  0  0
   -0.0858    3.7014   38.3057 N   0  3  0  0  0  0  0  0  0  0  0  0
  1  2  1  1  0  0  0
  1  3  1  0  0  0  0
  1 10  1  0  0  0  0
  3  4  1  1  0  0  0
  3  5  1  0  0  0  0
  5  6  1  6  0  0  0
  5  7  1  0  0  0  0
  7  8  1  1  0  0  0
  7  9  1  0  0  0  0
  9 10  1  0  0  0  0
  9 11  1  6  0  0  0
 11 12  1  0  0  0  0
 13 14  1  6  0  0  0
 13 15  1  0  0  0  0
 13 22  1  0  0  0  0
 15 16  1  6  0  0  0
 15 17  1  0  0  0  0
 17 18  1  6  0  0  0
 17 19  1  0  0  0  0
 19  2  1  1  0  0  0
 19 20  1  0  0  0  0
 20 21  1  1  0  0  0
 20 22  1  0  0  0  0
 23 18  1  1  0  0  0
 23 24  1  0  0  0  0
 23 28  1  0  0  0  0
 24 25  1  6  0  0  0
 24 26  1  0  0  0  0
 26 27  1  0  0  0  0
 26 38  1  6  0  0  0
 27 28  1  0  0  0  0
 27 29  1  1  0  0  0
 29 30  1  0  0  0  0
 31 32  1  1  0  0  0
 31 33  1  0  0  0  0
 31 39  1  0  0  0  0
 33 34  1  1  0  0  0
 33 35  1  0  0  0  0
 35 36  1  1  0  0  0
 35 37  1  0  0  0  0
 37 38  1  1  0  0  0
 37 40  1  0  0  0  0
 39 40  1  0  0  0  0
 39 41  1  1  0  0  0
 41 42  1  0  0  0  0
M  CHG  5   4   1  14   1  21   1  36   1  42   1
M  END
>  <CHROM.1>
-147.26498935,86.21003517,48.44749426,-65.87753665,33.52960580,-37.96581125
83.85235925,177.14043454,69.86312996,-73.59661868,153.10732166,-151.58441822
68.07240397,20.95300542,-175.63866446,-172.05644903,59.85654979,170.33336411
-52.18138357,-139.88124892,-123.56771182,152.86431891,2.20733345,0.02941669
41.32868497,-2.44670579,-1.24151258,-2.05762800

>  <Name>
1pbr

>  <RI>
0

>  <Rbt.Current_Directory>
/home/itssahil/PROJECTS/Mol_Feturizer/New_Systems/rnas/1pbr

>  <Rbt.Executable>
rbdock ($Id: //depot/dev/client3/rdock/2013.1/src/exe/rbdock.cxx#4 $)

>  <Rbt.Library>
libRbt.so (2013.1, Build901 2013/11/27)

>  <Rbt.Parameter_File>
/export/apps/rDock/src/rDock_2013.1_src/data/scripts/dock_solv.prm

>  <Rbt.Receptor>
prm/pocket_docking_8.prm

>  <SCORE>
-56.6597

>  <SCORE.INTER>
-63.5646

>  <SCORE.INTER.CONST>
1

>  <SCORE.INTER.POLAR>
-8.46002

>  <SCORE.INTER.ROT>
9

>  <SCORE.INTER.SOLV>
36.3526

>  <SCORE.INTER.VDW>
-35.8939

>  <SCORE.INTER.norm>
-1.51344

>  <SCORE.INTRA>
6.90483

>  <SCORE.INTRA.DIHEDRAL>
9.80647

>  <SCORE.INTRA.DIHEDRAL.0>
29.7866

>  <SCORE.INTRA.POLAR>
-0.327626

>  <SCORE.INTRA.POLAR.0>
-0.984091

>  <SCORE.INTRA.REPUL>
-0.274115

>  <SCORE.INTRA.REPUL.0>
0.274115

>  <SCORE.INTRA.SOLV>
3.96121

>  <SCORE.INTRA.SOLV.lig_0>
-152.978

>  <SCORE.INTRA.VDW>
2.50549

>  <SCORE.INTRA.VDW.0>
-6.10719

>  <SCORE.INTRA.norm>
0.164401

>  <SCORE.RESTR>
0

>  <SCORE.RESTR.CAVITY>
0

>  <SCORE.RESTR.norm>
0

>  <SCORE.SYSTEM>
0

>  <SCORE.SYSTEM.CONST>
0

>  <SCORE.SYSTEM.DIHEDRAL>
0

>  <SCORE.SYSTEM.SOLV>
0

>  <SCORE.SYSTEM.norm>
0

>  <SCORE.heavy>
42

>  <SCORE.norm>
-1.34904

>  <RMSD>
1.239

$$$$
1pbr
 OpenBabel11021811403D
libRbt.so/2013.1/901 2013/11/27
 42 45  0  0  0  0  0  0  0  0999 V2000
    1.7099   -0.6538   44.6410 C   0  0  2  0  0  0  0  0  0  0  0  0
    1.2624   -2.0225   44.8127 O   0  0  0  0  0  0  0  0  0  0  0  0
    2.8452   -0.3029   45.6735 C   0  0  2  0  0  0  0  0  0  0  0  0
    3.8474   -1.3810   45.8776 N   0  3  0  0  0  0  0  0  0  0  0  0
    2.2673    0.0175   47.0649 C   0  0  1  0  0  0  0  0  0  0  0  0
    3.2664    0.5848   47.9095 O   0  0  0  0  0  0  0  0  0  0  0  0
    1.0785    0.9846   46.9594 C   0  0  2  0  0  0  0  0  0  0  0  0
    0.5857    1.3031   48.2571 O   0  0  0  0  0  0  0  0  0  0  0  0
   -0.0167    0.4069   46.0357 C   0  0  2  0  0  0  0  0  0  0  0  0
    0.5760    0.2528   44.7287 O   0  0  0  0  0  0  0  0  0  0  0  0
   -1.2490    1.2981   45.8904 C   0  0  0  0  0  0  0  0  0  0  0  0
   -1.7894    1.6409   47.1597 O   0  0  0  0  0  0  0  0  0  0  0  0
    0.2297   -5.1770   42.1312 C   0  0  1  0  0  0  0  0  0  0  0  0
   -0.3390   -6.0350   41.0756 N   0  3  0  0  0  0  0  0  0  0  0  0
    1.1055   -4.0266   41.5489 C   0  0  2  0  0  0  0  0  0  0  0  0
    2.1802   -4.5602   40.7789 O   0  0  0  0  0  0  0  0  0  0  0  0
    1.7045   -3.1431   42.6822 C   0  0  1  0  0  0  0  0  0  0  0  0
    2.3672   -1.9939   42.0763 O   0  0  0  0  0  0  0  0  0  0  0  0
    0.6088   -2.6446   43.6803 C   0  0  1  0  0  0  0  0  0  0  0  0
   -0.2967   -3.8004   44.2139 C   0  0  1  0  0  0  0  0  0  0  0  0
   -1.3840   -3.2863   45.0761 N   0  3  0  0  0  0  0  0  0  0  0  0
   -0.9017   -4.6088   43.0371 C   0  0  0  0  0  0  0  0  0  0  0  0
    3.8017   -2.0436   41.7907 C   0  0  1  0  0  0  0  0  0  0  0  0
    3.9962   -2.2701   40.2798 C   0  0  2  0  0  0  0  0  0  0  0  0
    5.2510   -2.8899   40.0123 O   0  0  0  0  0  0  0  0  0  0  0  0
    3.9575   -0.8081   39.8099 C   0  0  1  0  0  0  0  0  0  0  0  0
    4.8034   -0.1069   40.8598 C   0  0  2  0  0  0  0  0  0  0  0  0
    4.4083   -0.7659   42.0532 O   0  0  0  0  0  0  0  0  0  0  0  0
    4.5711    1.4046   40.9833 C   0  0  0  0  0  0  0  0  0  0  0  0
    5.5581    1.9822   41.8250 O   0  0  0  0  0  0  0  0  0  0  0  0
    2.9583    2.1299   35.4569 C   0  0  1  0  0  0  0  0  0  0  0  0
    4.2349    2.4438   34.9033 O   0  0  0  0  0  0  0  0  0  0  0  0
    2.6667    0.6167   35.2544 C   0  0  2  0  0  0  0  0  0  0  0  0
    1.2741    0.3916   35.4612 O   0  0  0  0  0  0  0  0  0  0  0  0
    3.4754   -0.3511   36.1790 C   0  0  1  0  0  0  0  0  0  0  0  0
    4.8008   -0.6393   35.5881 N   0  3  0  0  0  0  0  0  0  0  0  0
    3.5694    0.1825   37.6327 C   0  0  1  0  0  0  0  0  0  0  0  0
    4.4827   -0.5610   38.4766 O   0  0  0  0  0  0  0  0  0  0  0  0
    2.9296    2.4709   36.9681 C   0  0  1  0  0  0  0  0  0  0  0  0
    3.8971    1.6129   37.6327 O   0  0  0  0  0  0  0  0  0  0  0  0
    3.2046    3.9544   37.2774 C   0  0  0  0  0  0  0  0  0  0  0  0
    1.9927    4.7912   37.1795 N   0  3  0  0  0  0  0  0  0  0  0  0
  1  2  1  1  0  0  0
  1  3  1  0  0  0  0
  1 10  1  0  0  0  0
  3  4  1  1  0  0  0
  3  5  1  0  0  0  0
  5  6  1  1  0  0  0
  5  7  1  0  0  0  0
  7  8  1  1  0  0  0
  7  9  1  0  0  0  0
  9 10  1  0  0  0  0
  9 11  1  6  0  0  0
 11 12  1  0  0  0  0
 13 14  1  6  0  0  0
 13 15  1  0  0  0  0
 13 22  1  0  0  0  0
 15 16  1  1  0  0  0
 15 17  1  0  0  0  0
 17 18  1  6  0  0  0
 17 19  1  0  0  0  0
 19  2  1  1  0  0  0
 19 20  1  0  0  0  0
 20 21  1  6  0  0  0
 20 22  1  0  0  0  0
 23 18  1  6  0  0  0
 23 24  1  0  0  0  0
 23 28  1  0  0  0  0
 24 25  1  1  0  0  0
 24 26  1  0  0  0  0
 26 27  1  0  0  0  0
 26 38  1  6  0  0  0
 27 28  1  0  0  0  0
 27 29  1  1  0  0  0
 29 30  1  0  0  0  0
 31 32  1  1  0  0  0
 31 33  1  0  0  0  0
 31 39  1  0  0  0  0
 33 34  1  1  0  0  0
 33 35  1  0  0  0  0
 35 36  1  6  0  0  0
 35 37  1  0  0  0  0
 37 38  1  1  0  0  0
 37 40  1  0  0  0  0
 39 40  1  0  0  0  0
 39 41  1  6  0  0  0
 41 42  1  0  0  0  0
M  CHG  5   4   1  14   1  21   1  36   1  42   1
M  END
>  <CHROM.1>
-158.10899981,80.77235627,-42.06286509,-166.99373364,-51.42876073,-53.68100574
-86.55405256,-51.70898242,147.07570718,-93.92048854,103.32165838,92.22904534
64.82167764,128.16479055,-170.41023616,89.16375826,-56.49281391,-178.86648242
-115.19745093,-137.45012722,84.49323203,-154.36680587,2.28336223,-0.59305422
41.59932376,-2.63690442,-1.22919709,-2.38589470

>  <Name>
1pbr

>  <RI>
0

>  <Rbt.Current_Directory>
/home/itssahil/PROJECTS/Mol_Feturizer/New_Systems/rnas/1pbr

>  <Rbt.Executable>
rbdock ($Id: //depot/dev/client3/rdock/2013.1/src/exe/rbdock.cxx#4 $)

>  <Rbt.Library>
libRbt.so (2013.1, Build901 2013/11/27)

>  <Rbt.Parameter_File>
/export/apps/rDock/src/rDock_2013.1_src/data/scripts/dock_solv.prm

>  <Rbt.Receptor>
prm/pocket_docking_3.prm

>  <SCORE>
-46.7377

>  <SCORE.INTER>
-57.5989

>  <SCORE.INTER.CONST>
1

>  <SCORE.INTER.POLAR>
-7.75582

>  <SCORE.INTER.ROT>
9

>  <SCORE.INTER.SOLV>
31.1671

>  <SCORE.INTER.VDW>
-32.5356

>  <SCORE.INTER.norm>
-1.3714

>  <SCORE.INTRA>
10.8611

>  <SCORE.INTRA.DIHEDRAL>
19.5562

>  <SCORE.INTRA.DIHEDRAL.0>
29.7866

>  <SCORE.INTRA.POLAR>
0.927951

>  <SCORE.INTRA.POLAR.0>
-0.984091

>  <SCORE.INTRA.REPUL>
-0.274115

>  <SCORE.INTRA.REPUL.0>
0.274115

>  <SCORE.INTRA.SOLV>
-3.90282

>  <SCORE.INTRA.SOLV.lig_0>
-152.978

>  <SCORE.INTRA.VDW>
1.24998

>  <SCORE.INTRA.VDW.0>
-6.10719

>  <SCORE.INTRA.norm>
0.258599

>  <SCORE.RESTR>
0

>  <SCORE.RESTR.CAVITY>
0

>  <SCORE.RESTR.norm>
0

>  <SCORE.SYSTEM>
0

>  <SCORE.SYSTEM.CONST>
0

>  <SCORE.SYSTEM.DIHEDRAL>
0

>  <SCORE.SYSTEM.SOLV>
0

>  <SCORE.SYSTEM.norm>
0

>  <SCORE.heavy>
42

>  <SCORE.norm>
-1.1128

>  <RMSD>
1.267

$$$$
1pbr
 OpenBabel11021811403D
libRbt.so/2013.1/901 2013/11/27
 42 45  0  0  0  0  0  0  0  0999 V2000
    1.8410   -0.4183   44.3411 C   0  0  2  0  0  0  0  0  0  0  0  0
    2.0317   -1.8359   44.5802 O   0  0  0  0  0  0  0  0  0  0  0  0
    3.0228    0.4173   44.9604 C   0  0  2  0  0  0  0  0  0  0  0  0
    4.3685   -0.1833   44.7690 N   0  3  0  0  0  0  0  0  0  0  0  0
    2.8478    0.6081   46.4788 C   0  0  1  0  0  0  0  0  0  0  0  0
    3.7684    1.5767   46.9765 O   0  0  0  0  0  0  0  0  0  0  0  0
    1.4146    1.0440   46.8187 C   0  0  2  0  0  0  0  0  0  0  0  0
    1.2838    1.2575   48.2206 O   0  0  0  0  0  0  0  0  0  0  0  0
    0.3892    0.0231   46.2774 C   0  0  2  0  0  0  0  0  0  0  0  0
    0.5406   -0.0019   44.8422 O   0  0  0  0  0  0  0  0  0  0  0  0
   -1.0656    0.3693   46.5902 C   0  0  0  0  0  0  0  0  0  0  0  0
   -1.6646    1.0905   45.5218 O   0  0  0  0  0  0  0  0  0  0  0  0
    1.2162   -5.5437   42.6321 C   0  0  1  0  0  0  0  0  0  0  0  0
    0.6644   -6.6573   41.8388 N   0  3  0  0  0  0  0  0  0  0  0  0
    1.7531   -4.3883   41.7340 C   0  0  2  0  0  0  0  0  0  0  0  0
    2.7761   -4.8681   40.8646 O   0  0  0  0  0  0  0  0  0  0  0  0
    2.3414   -3.2311   42.5934 C   0  0  1  0  0  0  0  0  0  0  0  0
    2.6683   -2.1159   41.7121 O   0  0  0  0  0  0  0  0  0  0  0  0
    1.3404   -2.7482   43.6933 C   0  0  1  0  0  0  0  0  0  0  0  0
    0.7682   -3.9223   44.5505 C   0  0  1  0  0  0  0  0  0  0  0  0
   -0.2488   -3.4471   45.5146 N   0  3  0  0  0  0  0  0  0  0  0  0
    0.1529   -5.0154   43.6389 C   0  0  0  0  0  0  0  0  0  0  0  0
    4.0675   -1.7716   41.4566 C   0  0  1  0  0  0  0  0  0  0  0  0
    4.2252   -1.4229   39.9648 C   0  0  2  0  0  0  0  0  0  0  0  0
    5.5625   -1.6443   39.5258 O   0  0  0  0  0  0  0  0  0  0  0  0
    3.8734    0.0711   40.0281 C   0  0  1  0  0  0  0  0  0  0  0  0
    4.6163    0.5275   41.2728 C   0  0  2  0  0  0  0  0  0  0  0  0
    4.4215   -0.5658   42.1567 O   0  0  0  0  0  0  0  0  0  0  0  0
    4.0957    1.8244   41.9058 C   0  0  0  0  0  0  0  0  0  0  0  0
    4.9966    2.2738   42.9071 O   0  0  0  0  0  0  0  0  0  0  0  0
    2.9324    0.7309   34.7651 C   0  0  1  0  0  0  0  0  0  0  0  0
    3.5496    1.9599   34.3864 O   0  0  0  0  0  0  0  0  0  0  0  0
    4.0289   -0.2917   35.1745 C   0  0  2  0  0  0  0  0  0  0  0  0
    3.4515   -1.5952   35.1864 O   0  0  0  0  0  0  0  0  0  0  0  0
    4.7065   -0.0290   36.5592 C   0  0  1  0  0  0  0  0  0  0  0  0
    5.8170    0.9377   36.4133 N   0  3  0  0  0  0  0  0  0  0  0  0
    3.6748    0.3998   37.6355 C   0  0  1  0  0  0  0  0  0  0  0  0
    4.2700    0.8609   38.8733 O   0  0  0  0  0  0  0  0  0  0  0  0
    1.9616    0.9603   35.9507 C   0  0  1  0  0  0  0  0  0  0  0  0
    2.7514    1.4009   37.0891 O   0  0  0  0  0  0  0  0  0  0  0  0
    0.8301    1.9595   35.6451 C   0  0  0  0  0  0  0  0  0  0  0  0
    0.1709    2.4648   36.8652 N   0  3  0  0  0  0  0  0  0  0  0  0
  1  2  1  1  0  0  0
  1  3  1  0  0  0  0
  1 10  1  0  0  0  0
  3  4  1  1  0  0  0
  3  5  1  0  0  0  0
  5  6  1  6  0  0  0
  5  7  1  0  0  0  0
  7  8  1  1  0  0  0
  7  9  1  0  0  0  0
  9 10  1  0  0  0  0
  9 11  1  6  0  0  0
 11 12  1  0  0  0  0
 13 14  1  6  0  0  0
 13 15  1  0  0  0  0
 13 22  1  0  0  0  0
 15 16  1  6  0  0  0
 15 17  1  0  0  0  0
 17 18  1  6  0  0  0
 17 19  1  0  0  0  0
 19  2  1  1  0  0  0
 19 20  1  0  0  0  0
 20 21  1  1  0  0  0
 20 22  1  0  0  0  0
 23 18  1  6  0  0  0
 23 24  1  0  0  0  0
 23 28  1  0  0  0  0
 24 25  1  1  0  0  0
 24 26  1  0  0  0  0
 26 27  1  0  0  0  0
 26 38  1  6  0  0  0
 27 28  1  0  0  0  0
 27 29  1  1  0  0  0
 29 30  1  0  0  0  0
 31 32  1  1  0  0  0
 31 33  1  0  0  0  0
 31 39  1  0  0  0  0
 33 34  1  1  0  0  0
 33 35  1  0  0  0  0
 35 36  1  6  0  0  0
 35 37  1  0  0  0  0
 37 38  1  1  0  0  0
 37 40  1  0  0  0  0
 39 40  1  0  0  0  0
 39 41  1  6  0  0  0
 41 42  1  0  0  0  0
M  CHG  5   4   1  14   1  21   1  36   1  42   1
M  END
>  <CHROM.1>
-158.00330661,98.54057103,-76.75610047,-51.38125285,-46.61114087,93.97971713
173.75076050,63.20221291,179.06112089,-109.95885265,139.21643572,-67.41282568
175.68091135,59.45990864,-169.89182581,-172.51273371,51.44219060,-66.24329842
-58.31486342,-120.16426013,-163.02564586,-179.54808309,2.53707107,-0.66227441
41.49902305,-2.42721993,-1.25830098,-2.24050486

>  <Name>
1pbr

>  <RI>
0

>  <Rbt.Current_Directory>
/home/itssahil/PROJECTS/Mol_Feturizer/New_Systems/rnas/1pbr

>  <Rbt.Executable>
rbdock ($Id: //depot/dev/client3/rdock/2013.1/src/exe/rbdock.cxx#4 $)

>  <Rbt.Library>
libRbt.so (2013.1, Build901 2013/11/27)

>  <Rbt.Parameter_File>
/export/apps/rDock/src/rDock_2013.1_src/data/scripts/dock_solv.prm

>  <Rbt.Receptor>
prm/pocket_docking_3.prm

>  <SCORE>
-42.2459

>  <SCORE.INTER>
-43.0527

>  <SCORE.INTER.CONST>
1

>  <SCORE.INTER.POLAR>
-5.27505

>  <SCORE.INTER.ROT>
9

>  <SCORE.INTER.SOLV>
26.1285

>  <SCORE.INTER.VDW>
-29.4278

>  <SCORE.INTER.norm>
-1.02506

>  <SCORE.INTRA>
0.80682

>  <SCORE.INTRA.DIHEDRAL>
5.34493

>  <SCORE.INTRA.DIHEDRAL.0>
29.7866

>  <SCORE.INTRA.POLAR>
-0.182576

>  <SCORE.INTRA.POLAR.0>
-0.984091

>  <SCORE.INTRA.REPUL>
-0.274115

>  <SCORE.INTRA.REPUL.0>
0.274115

>  <SCORE.INTRA.SOLV>
2.74603

>  <SCORE.INTRA.SOLV.lig_0>
-152.978

>  <SCORE.INTRA.VDW>
-1.24732

>  <SCORE.INTRA.VDW.0>
-6.10719

>  <SCORE.INTRA.norm>
0.01921

>  <SCORE.RESTR>
0

>  <SCORE.RESTR.CAVITY>
0

>  <SCORE.RESTR.norm>
0

>  <SCORE.SYSTEM>
0

>  <SCORE.SYSTEM.CONST>
0

>  <SCORE.SYSTEM.DIHEDRAL>
0

>  <SCORE.SYSTEM.SOLV>
0

>  <SCORE.SYSTEM.norm>
0

>  <SCORE.heavy>
42

>  <SCORE.norm>
-1.00585

>  <RMSD>
1.291

$$$$
1pbr
 OpenBabel11021811403D
libRbt.so/2013.1/901 2013/11/27
 42 45  0  0  0  0  0  0  0  0999 V2000
    1.9928   -0.3279   44.1925 C   0  0  2  0  0  0  0  0  0  0  0  0
    1.7908   -1.7548   44.3542 O   0  0  0  0  0  0  0  0  0  0  0  0
    3.2851    0.1443   44.9575 C   0  0  2  0  0  0  0  0  0  0  0  0
    4.4441   -0.7779   44.8367 N   0  3  0  0  0  0  0  0  0  0  0  0
    3.0223    0.3110   46.4660 C   0  0  1  0  0  0  0  0  0  0  0  0
    4.1088    0.9846   47.0976 O   0  0  0  0  0  0  0  0  0  0  0  0
    1.7228    1.0909   46.7168 C   0  0  2  0  0  0  0  0  0  0  0  0
    1.5193    1.2729   48.1146 O   0  0  0  0  0  0  0  0  0  0  0  0
    0.5262    0.3960   46.0301 C   0  0  2  0  0  0  0  0  0  0  0  0
    0.8010    0.3919   44.6131 O   0  0  0  0  0  0  0  0  0  0  0  0
   -0.8143    1.0962   46.2465 C   0  0  0  0  0  0  0  0  0  0  0  0
   -1.2127    1.0362   47.6096 O   0  0  0  0  0  0  0  0  0  0  0  0
   -0.7367   -4.8470   42.8515 C   0  0  1  0  0  0  0  0  0  0  0  0
   -1.8278   -5.6595   42.2828 N   0  3  0  0  0  0  0  0  0  0  0  0
   -0.0969   -3.8956   41.7955 C   0  0  2  0  0  0  0  0  0  0  0  0
    0.4272   -4.6461   40.7025 O   0  0  0  0  0  0  0  0  0  0  0  0
    1.0597   -3.0585   42.4161 C   0  0  1  0  0  0  0  0  0  0  0  0
    1.5012   -2.0742   41.4347 O   0  0  0  0  0  0  0  0  0  0  0  0
    0.6182   -2.3255   43.7250 C   0  0  1  0  0  0  0  0  0  0  0  0
   -0.0708   -3.2801   44.7519 C   0  0  1  0  0  0  0  0  0  0  0  0
   -0.5658   -2.5414   45.9346 N   0  3  0  0  0  0  0  0  0  0  0  0
   -1.2437   -4.0450   44.0857 C   0  0  0  0  0  0  0  0  0  0  0  0
    2.8780   -1.5790   41.4640 C   0  0  1  0  0  0  0  0  0  0  0  0
    3.5507   -1.9121   40.1192 C   0  0  2  0  0  0  0  0  0  0  0  0
    4.9654   -2.0026   40.2629 O   0  0  0  0  0  0  0  0  0  0  0  0
    3.1251   -0.6695   39.3225 C   0  0  1  0  0  0  0  0  0  0  0  0
    3.3392    0.4501   40.3276 C   0  0  2  0  0  0  0  0  0  0  0  0
    2.8911   -0.1423   41.5372 O   0  0  0  0  0  0  0  0  0  0  0  0
    2.5589    1.7403   40.0447 C   0  0  0  0  0  0  0  0  0  0  0  0
    1.1633    1.4789   40.0591 O   0  0  0  0  0  0  0  0  0  0  0  0
    2.0736    2.1824   35.1555 C   0  0  1  0  0  0  0  0  0  0  0  0
    2.9143    3.3006   35.4341 O   0  0  0  0  0  0  0  0  0  0  0  0
    2.9384    1.0092   34.6156 C   0  0  2  0  0  0  0  0  0  0  0  0
    2.0757    0.0560   33.9995 O   0  0  0  0  0  0  0  0  0  0  0  0
    3.8160    0.2773   35.6832 C   0  0  1  0  0  0  0  0  0  0  0  0
    5.0980    0.9911   35.8723 N   0  3  0  0  0  0  0  0  0  0  0  0
    3.0473    0.0611   37.0134 C   0  0  1  0  0  0  0  0  0  0  0  0
    3.8749   -0.4163   38.1025 O   0  0  0  0  0  0  0  0  0  0  0  0
    1.3295    1.7366   36.4394 C   0  0  1  0  0  0  0  0  0  0  0  0
    2.3284    1.2826   37.3933 O   0  0  0  0  0  0  0  0  0  0  0  0
    0.4376    2.8312   37.0544 C   0  0  0  0  0  0  0  0  0  0  0  0
    1.1898    4.0542   37.3963 N   0  3  0  0  0  0  0  0  0  0  0  0
  1  2  1  1  0  0  0
  1  3  1  0  0  0  0
  1 10  1  0  0  0  0
  3  4  1  1  0  0  0
  3  5  1  0  0  0  0
  5  6  1  6  0  0  0
  5  7  1  0  0  0  0
  7  8  1  1  0  0  0
  7  9  1  0  0  0  0
  9 10  1  0  0  0  0
  9 11  1  6  0  0  0
 11 12  1  0  0  0  0
 13 14  1  6  0  0  0
 13 15  1  0  0  0  0
 13 22  1  0  0  0  0
 15 16  1  6  0  0  0
 15 17  1  0  0  0  0
 17 18  1  6  0  0  0
 17 19  1  0  0  0  0
 19  2  1  1  0  0  0
 19 20  1  0  0  0  0
 20 21  1  1  0  0  0
 20 22  1  0  0  0  0
 23 18  1  6  0  0  0
 23 24  1  0  0  0  0
 23 28  1  0  0  0  0
 24 25  1  1  0  0  0
 24 26  1  0  0  0  0
 26 27  1  0  0  0  0
 26 38  1  6  0  0  0
 27 28  1  0  0  0  0
 27 29  1  6  0  0  0
 29 30  1  0  0  0  0
 31 32  1  1  0  0  0
 31 33  1  0  0  0  0
 31 39  1  0  0  0  0
 33 34  1  1  0  0  0
 33 35  1  0  0  0  0
 35 36  1  1  0  0  0
 35 37  1  0  0  0  0
 37 38  1  1  0  0  0
 37 40  1  0  0  0  0
 39 40  1  0  0  0  0
 39 41  1  1  0  0  0
 41 42  1  0  0  0  0
M  CHG  5   4   1  14   1  21   1  36   1  42   1
M  END
>  <CHROM.1>
178.72185477,102.57312832,155.15090590,-48.72293301,-43.91727913,-66.48899472
55.82808563,-174.48467921,73.45818188,-152.67628551,120.28565007,63.60881783
66.39271477,141.02992694,60.87771769,57.80454007,66.27490761,152.98551423
-57.57454514,-177.40349697,-57.97047234,-102.58209530,1.81684526,-0.40216508
41.40255767,-2.08318672,-1.16325829,-1.81043118

>  <Name>
1pbr

>  <RI>
0

>  <Rbt.Current_Directory>
/home/itssahil/PROJECTS/Mol_Feturizer/New_Systems/rnas/1pbr

>  <Rbt.Executable>
rbdock ($Id: //depot/dev/client3/rdock/2013.1/src/exe/rbdock.cxx#4 $)

>  <Rbt.Library>
libRbt.so (2013.1, Build901 2013/11/27)

>  <Rbt.Parameter_File>
/export/apps/rDock/src/rDock_2013.1_src/data/scripts/dock_solv.prm

>  <Rbt.Receptor>
prm/pocket_docking_2.prm

>  <SCORE>
-51.7817

>  <SCORE.INTER>
-53.4686

>  <SCORE.INTER.CONST>
1

>  <SCORE.INTER.POLAR>
-6.31183

>  <SCORE.INTER.ROT>
9

>  <SCORE.INTER.SOLV>
33.1079

>  <SCORE.INTER.VDW>
-35.2422

>  <SCORE.INTER.norm>
-1.27306

>  <SCORE.INTRA>
0.847107

>  <SCORE.INTRA.DIHEDRAL>
2.90868

>  <SCORE.INTRA.DIHEDRAL.0>
29.7866

>  <SCORE.INTRA.POLAR>
-0.539918

>  <SCORE.INTRA.POLAR.0>
-0.984091

>  <SCORE.INTRA.REPUL>
-0.274115

>  <SCORE.INTRA.REPUL.0>
0.274115

>  <SCORE.INTRA.SOLV>
5.34308

>  <SCORE.INTRA.SOLV.lig_0>
-152.978

>  <SCORE.INTRA.VDW>
-0.0724794

>  <SCORE.INTRA.VDW.0>
-6.10719

>  <SCORE.INTRA.norm>
0.0201692

>  <SCORE.RESTR>
0.83975

>  <SCORE.RESTR.CAVITY>
0.83975

>  <SCORE.RESTR.norm>
0.019994

>  <SCORE.SYSTEM>
0

>  <SCORE.SYSTEM.CONST>
0

>  <SCORE.SYSTEM.DIHEDRAL>
0

>  <SCORE.SYSTEM.SOLV>
0

>  <SCORE.SYSTEM.norm>
0

>  <SCORE.heavy>
42

>  <SCORE.norm>
-1.2329

>  <RMSD>
1.304

$$$$
1pbr
 OpenBabel11021811403D
libRbt.so/2013.1/901 2013/11/27
 42 45  0  0  0  0  0  0  0  0999 V2000
    2.8853   -1.5550   44.7639 C   0  0  2  0  0  0  0  0  0  0  0  0
    2.1866   -2.8129   44.9444 O   0  0  0  0  0  0  0  0  0  0  0  0
    3.5227   -1.0698   46.1191 C   0  0  2  0  0  0  0  0  0  0  0  0
    4.1519   -2.1481   46.9250 N   0  3  0  0  0  0  0  0  0  0  0  0
    2.4758   -0.4042   47.0321 C   0  0  1  0  0  0  0  0  0  0  0  0
    3.1066    0.2597   48.1251 O   0  0  0  0  0  0  0  0  0  0  0  0
    1.6203    0.6025   46.2482 C   0  0  2  0  0  0  0  0  0  0  0  0
    0.6884    1.2389   47.1169 O   0  0  0  0  0  0  0  0  0  0  0  0
    0.9353   -0.0819   45.0445 C   0  0  2  0  0  0  0  0  0  0  0  0
    1.9875   -0.5682   44.1845 O   0  0  0  0  0  0  0  0  0  0  0  0
    0.0450    0.8454   44.2189 C   0  0  0  0  0  0  0  0  0  0  0  0
   -0.3671    0.2219   43.0098 O   0  0  0  0  0  0  0  0  0  0  0  0
    0.6095   -5.5796   42.1044 C   0  0  1  0  0  0  0  0  0  0  0  0
   -0.1440   -6.2786   41.0472 N   0  3  0  0  0  0  0  0  0  0  0  0
    1.4891   -4.4246   41.5372 C   0  0  2  0  0  0  0  0  0  0  0  0
    2.4206   -4.9305   40.5838 O   0  0  0  0  0  0  0  0  0  0  0  0
    2.2839   -3.7109   42.6697 C   0  0  1  0  0  0  0  0  0  0  0  0
    2.9494   -2.5417   42.1064 O   0  0  0  0  0  0  0  0  0  0  0  0
    1.3567   -3.2642   43.8470 C   0  0  1  0  0  0  0  0  0  0  0  0
    0.4415   -4.4174   44.3695 C   0  0  1  0  0  0  0  0  0  0  0  0
   -0.4927   -3.9405   45.4133 N   0  3  0  0  0  0  0  0  0  0  0  0
   -0.3591   -5.0514   43.2026 C   0  0  0  0  0  0  0  0  0  0  0  0
    4.3543   -2.6230   41.7044 C   0  0  1  0  0  0  0  0  0  0  0  0
    4.4202   -2.8079   40.1768 C   0  0  2  0  0  0  0  0  0  0  0  0
    5.6301   -3.4542   39.7911 O   0  0  0  0  0  0  0  0  0  0  0  0
    4.3887   -1.3315   39.7537 C   0  0  1  0  0  0  0  0  0  0  0  0
    5.3370   -0.6873   40.7513 C   0  0  2  0  0  0  0  0  0  0  0  0
    5.0187   -1.3715   41.9534 O   0  0  0  0  0  0  0  0  0  0  0  0
    5.1616    0.8256   40.9364 C   0  0  0  0  0  0  0  0  0  0  0  0
    5.9897    1.2864   41.9938 O   0  0  0  0  0  0  0  0  0  0  0  0
    2.7444    2.0880   36.2671 C   0  0  1  0  0  0  0  0  0  0  0  0
    3.7992    3.0413   36.3835 O   0  0  0  0  0  0  0  0  0  0  0  0
    3.2329    0.8796   35.4205 C   0  0  2  0  0  0  0  0  0  0  0  0
    2.0948    0.1311   34.9997 O   0  0  0  0  0  0  0  0  0  0  0  0
    4.2302   -0.0847   36.1425 C   0  0  1  0  0  0  0  0  0  0  0  0
    5.6151    0.4213   36.0195 N   0  3  0  0  0  0  0  0  0  0  0  0
    3.8160   -0.3486   37.6141 C   0  0  1  0  0  0  0  0  0  0  0  0
    4.8129   -1.0581   38.3898 O   0  0  0  0  0  0  0  0  0  0  0  0
    2.3040    1.6003   37.6703 C   0  0  1  0  0  0  0  0  0  0  0  0
    3.4317    0.9064   38.2705 O   0  0  0  0  0  0  0  0  0  0  0  0
    1.7967    2.7264   38.5904 C   0  0  0  0  0  0  0  0  0  0  0  0
    0.6734    3.4813   38.0015 N   0  3  0  0  0  0  0  0  0  0  0  0
  1  2  1  1  0  0  0
  1  3  1  0  0  0  0
  1 10  1  0  0  0  0
  3  4  1  1  0  0  0
  3  5  1  0  0  0  0
  5  6  1  1  0  0  0
  5  7  1  0  0  0  0
  7  8  1  1  0  0  0
  7  9  1  0  0  0  0
  9 10  1  0  0  0  0
  9 11  1  6  0  0  0
 11 12  1  0  0  0  0
 13 14  1  6  0  0  0
 13 15  1  0  0  0  0
 13 22  1  0  0  0  0
 15 16  1  6  0  0  0
 15 17  1  0  0  0  0
 17 18  1  6  0  0  0
 17 19  1  0  0  0  0
 19  2  1  1  0  0  0
 19 20  1  0  0  0  0
 20 21  1  1  0  0  0
 20 22  1  0  0  0  0
 23 18  1  6  0  0  0
 23 24  1  0  0  0  0
 23 28  1  0  0  0  0
 24 25  1  1  0  0  0
 24 26  1  0  0  0  0
 26 27  1  0  0  0  0
 26 38  1  6  0  0  0
 27 28  1  0  0  0  0
 27 29  1  1  0  0  0
 29 30  1  0  0  0  0
 31 32  1  1  0  0  0
 31 33  1  0  0  0  0
 31 39  1  0  0  0  0
 33 34  1  1  0  0  0
 33 35  1  0  0  0  0
 35 36  1  1  0  0  0
 35 37  1  0  0  0  0
 37 38  1  1  0  0  0
 37 40  1  0  0  0  0
 39 40  1  0  0  0  0
 39 41  1  1  0  0  0
 41 42  1  0  0  0  0
M  CHG  5   4   1  14   1  21   1  36   1  42   1
M  END
>  <CHROM.1>
169.54578744,70.92028295,-71.59266522,-58.13164737,-53.44594722,169.97129406
-59.85512982,-51.45377397,67.06522511,-97.35876534,100.27018083,-44.57768438
64.77682138,123.87421620,173.39072849,-61.17303133,175.97361756,-64.93719306
-178.23846570,-178.21891537,56.77146832,-166.43869269,2.68275230,-1.07511795
41.55954650,-2.67903910,-1.32743545,-2.33412465

>  <Name>
1pbr

>  <RI>
0

>  <Rbt.Current_Directory>
/home/itssahil/PROJECTS/Mol_Feturizer/New_Systems/rnas/1pbr

>  <Rbt.Executable>
rbdock ($Id: //depot/dev/client3/rdock/2013.1/src/exe/rbdock.cxx#4 $)

>  <Rbt.Library>
libRbt.so (2013.1, Build901 2013/11/27)

>  <Rbt.Parameter_File>
/export/apps/rDock/src/rDock_2013.1_src/data/scripts/dock_solv.prm

>  <Rbt.Receptor>
prm/pocket_docking_2.prm

>  <SCORE>
-29.2734

>  <SCORE.INTER>
-27.0318

>  <SCORE.INTER.CONST>
1

>  <SCORE.INTER.POLAR>
-4.10859

>  <SCORE.INTER.ROT>
9

>  <SCORE.INTER.SOLV>
24.1554

>  <SCORE.INTER.VDW>
-21.9777

>  <SCORE.INTER.norm>
-0.643615

>  <SCORE.INTRA>
-3.5873

>  <SCORE.INTRA.DIHEDRAL>
-7.45074

>  <SCORE.INTRA.DIHEDRAL.0>
29.7866

>  <SCORE.INTRA.POLAR>
0.926945

>  <SCORE.INTRA.POLAR.0>
-0.984091

>  <SCORE.INTRA.REPUL>
-0.274115

>  <SCORE.INTRA.REPUL.0>
0.274115

>  <SCORE.INTRA.SOLV>
-4.47392

>  <SCORE.INTRA.SOLV.lig_0>
-152.978

>  <SCORE.INTRA.VDW>
0.593996

>  <SCORE.INTRA.VDW.0>
-6.10719

>  <SCORE.INTRA.norm>
-0.0854118

>  <SCORE.RESTR>
1.34572

>  <SCORE.RESTR.CAVITY>
1.34572

>  <SCORE.RESTR.norm>
0.0320409

>  <SCORE.SYSTEM>
0

>  <SCORE.SYSTEM.CONST>
0

>  <SCORE.SYSTEM.DIHEDRAL>
0

>  <SCORE.SYSTEM.SOLV>
0

>  <SCORE.SYSTEM.norm>
0

>  <SCORE.heavy>
42

>  <SCORE.norm>
-0.696986

>  <RMSD>
1.309

$$$$
1pbr
 OpenBabel11021811403D
libRbt.so/2013.1/901 2013/11/27
 42 45  0  0  0  0  0  0  0  0999 V2000
    2.9914   -1.5490   44.4082 C   0  0  2  0  0  0  0  0  0  0  0  0
    2.4058   -2.8605   44.6087 O   0  0  0  0  0  0  0  0  0  0  0  0
    3.4210   -0.9124   45.7824 C   0  0  2  0  0  0  0  0  0  0  0  0
    4.0602   -1.8631   46.7290 N   0  3  0  0  0  0  0  0  0  0  0  0
    2.2171   -0.3059   46.5277 C   0  0  1  0  0  0  0  0  0  0  0  0
    2.6517    0.4905   47.6277 O   0  0  0  0  0  0  0  0  0  0  0  0
    1.3588    0.5507   45.5846 C   0  0  2  0  0  0  0  0  0  0  0  0
    0.2765    1.1377   46.3002 O   0  0  0  0  0  0  0  0  0  0  0  0
    0.8850   -0.2789   44.3707 C   0  0  2  0  0  0  0  0  0  0  0  0
    2.0704   -0.7035   43.6651 O   0  0  0  0  0  0  0  0  0  0  0  0
    0.0050    0.4926   43.3887 C   0  0  0  0  0  0  0  0  0  0  0  0
    0.7556    0.9434   42.2689 O   0  0  0  0  0  0  0  0  0  0  0  0
    0.6299   -5.5715   41.8330 C   0  0  1  0  0  0  0  0  0  0  0  0
   -0.2201   -6.2657   40.8483 N   0  3  0  0  0  0  0  0  0  0  0  0
    1.3246   -4.3130   41.2302 C   0  0  2  0  0  0  0  0  0  0  0  0
    2.1366   -4.6783   40.1168 O   0  0  0  0  0  0  0  0  0  0  0  0
    2.2255   -3.6053   42.2843 C   0  0  1  0  0  0  0  0  0  0  0  0
    2.7088   -2.3514   41.7176 O   0  0  0  0  0  0  0  0  0  0  0  0
    1.4559   -3.3124   43.6136 C   0  0  1  0  0  0  0  0  0  0  0  0
    0.7192   -4.5693   44.1777 C   0  0  1  0  0  0  0  0  0  0  0  0
   -0.0797   -4.2387   45.3785 N   0  3  0  0  0  0  0  0  0  0  0  0
   -0.1986   -5.1961   43.0964 C   0  0  0  0  0  0  0  0  0  0  0  0
    4.1357   -2.1738   41.4454 C   0  0  1  0  0  0  0  0  0  0  0  0
    4.3377   -2.0668   39.9223 C   0  0  2  0  0  0  0  0  0  0  0  0
    5.6533   -2.4684   39.5508 O   0  0  0  0  0  0  0  0  0  0  0  0
    4.1221   -0.5549   39.7562 C   0  0  1  0  0  0  0  0  0  0  0  0
    4.8921    0.0147   40.9361 C   0  0  2  0  0  0  0  0  0  0  0  0
    4.5912   -0.9130   41.9673 O   0  0  0  0  0  0  0  0  0  0  0  0
    4.4854    1.4323   41.3588 C   0  0  0  0  0  0  0  0  0  0  0  0
    5.5522    2.0575   42.0570 O   0  0  0  0  0  0  0  0  0  0  0  0
    1.9372    1.6485   35.5180 C   0  0  1  0  0  0  0  0  0  0  0  0
    2.5363    2.9430   35.5008 O   0  0  0  0  0  0  0  0  0  0  0  0
    2.9712    0.5955   35.0306 C   0  0  2  0  0  0  0  0  0  0  0  0
    2.2751   -0.6031   34.6971 O   0  0  0  0  0  0  0  0  0  0  0  0
    4.1070    0.2508   36.0489 C   0  0  1  0  0  0  0  0  0  0  0  0
    5.2125    1.2277   35.9365 N   0  3  0  0  0  0  0  0  0  0  0  0
    3.5653    0.1211   37.4968 C   0  0  1  0  0  0  0  0  0  0  0  0
    4.5990    0.0157   38.5066 O   0  0  0  0  0  0  0  0  0  0  0  0
    1.4647    1.2943   36.9504 C   0  0  1  0  0  0  0  0  0  0  0  0
    2.6432    1.2220   37.7987 O   0  0  0  0  0  0  0  0  0  0  0  0
    0.4305    2.2793   37.5268 C   0  0  0  0  0  0  0  0  0  0  0  0
   -0.0307    1.8971   38.8758 N   0  3  0  0  0  0  0  0  0  0  0  0
  1  2  1  1  0  0  0
  1  3  1  0  0  0  0
  1 10  1  0  0  0  0
  3  4  1  1  0  0  0
  3  5  1  0  0  0  0
  5  6  1  1  0  0  0
  5  7  1  0  0  0  0
  7  8  1  1  0  0  0
  7  9  1  0  0  0  0
  9 10  1  0  0  0  0
  9 11  1  6  0  0  0
 11 12  1  0  0  0  0
 13 14  1  6  0  0  0
 13 15  1  0  0  0  0
 13 22  1  0  0  0  0
 15 16  1  6  0  0  0
 15 17  1  0  0  0  0
 17 18  1  6  0  0  0
 17 19  1  0  0  0  0
 19  2  1  1  0  0  0
 19 20  1  0  0  0  0
 20 21  1  1  0  0  0
 20 22  1  0  0  0  0
 23 18  1  6  0  0  0
 23 24  1  0  0  0  0
 23 28  1  0  0  0  0
 24 25  1  1  0  0  0
 24 26  1  0  0  0  0
 26 27  1  0  0  0  0
 26 38  1  6  0  0  0
 27 28  1  0  0  0  0
 27 29  1  1  0  0  0
 29 30  1  0  0  0  0
 31 32  1  1  0  0  0
 31 33  1  0  0  0  0
 31 39  1  0  0  0  0
 33 34  1  1  0  0  0
 33 35  1  0  0  0  0
 35 36  1  1  0  0  0
 35 37  1  0  0  0  0
 37 38  1  1  0  0  0
 37 40  1  0  0  0  0
 39 40  1  0  0  0  0
 39 41  1  1  0  0  0
 41 42  1  0  0  0  0
M  CHG  5   4   1  14   1  21   1  36   1  42   1
M  END
>  <CHROM.1>
153.24524819,69.82523391,-65.95139527,63.13220570,-178.06791275,99.34018198
176.17766588,-149.32702002,-63.62596593,-113.99673744,113.51849844,-178.34938843
-177.12896654,95.30876702,-156.82866600,-62.33563456,174.14512218,-175.18021534
-62.38073963,-160.02089864,178.35912701,-36.92447832,2.46351220,-0.94336298
41.25114622,-2.13398527,-1.27927604,-1.77448695

>  <Name>
1pbr

>  <RI>
0

>  <Rbt.Current_Directory>
/home/itssahil/PROJECTS/Mol_Feturizer/New_Systems/rnas/1pbr

>  <Rbt.Executable>
rbdock ($Id: //depot/dev/client3/rdock/2013.1/src/exe/rbdock.cxx#4 $)

>  <Rbt.Library>
libRbt.so (2013.1, Build901 2013/11/27)

>  <Rbt.Parameter_File>
/export/apps/rDock/src/rDock_2013.1_src/data/scripts/dock_solv.prm

>  <Rbt.Receptor>
prm/pocket_docking_2.prm

>  <SCORE>
-23.4422

>  <SCORE.INTER>
-27.6715

>  <SCORE.INTER.CONST>
1

>  <SCORE.INTER.POLAR>
-3.63903

>  <SCORE.INTER.ROT>
9

>  <SCORE.INTER.SOLV>
26.7389

>  <SCORE.INTER.VDW>
-24.8306

>  <SCORE.INTER.norm>
-0.658845

>  <SCORE.INTRA>
2.77726

>  <SCORE.INTRA.DIHEDRAL>
4.03157

>  <SCORE.INTRA.DIHEDRAL.0>
29.7866

>  <SCORE.INTRA.POLAR>
0.978468

>  <SCORE.INTRA.POLAR.0>
-0.984091

>  <SCORE.INTRA.REPUL>
-0.270162

>  <SCORE.INTRA.REPUL.0>
0.274115

>  <SCORE.INTRA.SOLV>
-4.1972

>  <SCORE.INTRA.SOLV.lig_0>
-152.978

>  <SCORE.INTRA.VDW>
0.884095

>  <SCORE.INTRA.VDW.0>
-6.10719

>  <SCORE.INTRA.norm>
0.0661252

>  <SCORE.RESTR>
1.45202

>  <SCORE.RESTR.CAVITY>
1.45202

>  <SCORE.RESTR.norm>
0.0345718

>  <SCORE.SYSTEM>
0

>  <SCORE.SYSTEM.CONST>
0

>  <SCORE.SYSTEM.DIHEDRAL>
0

>  <SCORE.SYSTEM.SOLV>
0

>  <SCORE.SYSTEM.norm>
0

>  <SCORE.heavy>
42

>  <SCORE.norm>
-0.558148

>  <RMSD>
1.381

$$$$
1pbr
 OpenBabel11021811403D
libRbt.so/2013.1/901 2013/11/27
 42 45  0  0  0  0  0  0  0  0999 V2000
    1.6736   -0.8962   44.6411 C   0  0  2  0  0  0  0  0  0  0  0  0
    1.1078   -2.2149   44.8515 O   0  0  0  0  0  0  0  0  0  0  0  0
    2.7614   -0.5738   45.7325 C   0  0  2  0  0  0  0  0  0  0  0  0
    3.6583   -1.7115   46.0635 N   0  3  0  0  0  0  0  0  0  0  0  0
    2.1186   -0.1310   47.0604 C   0  0  1  0  0  0  0  0  0  0  0  0
    3.1008    0.4064   47.9435 O   0  0  0  0  0  0  0  0  0  0  0  0
    1.0206    0.9160   46.8199 C   0  0  2  0  0  0  0  0  0  0  0  0
    0.4687    1.3452   48.0607 O   0  0  0  0  0  0  0  0  0  0  0  0
   -0.0527    0.3710   45.8517 C   0  0  2  0  0  0  0  0  0  0  0  0
    0.6123    0.0974   44.6002 O   0  0  0  0  0  0  0  0  0  0  0  0
   -1.1974    1.3435   45.5725 C   0  0  0  0  0  0  0  0  0  0  0  0
   -1.8368    1.7458   46.7766 O   0  0  0  0  0  0  0  0  0  0  0  0
    0.1925   -5.3616   42.1187 C   0  0  1  0  0  0  0  0  0  0  0  0
   -0.3468   -6.2242   41.0514 N   0  3  0  0  0  0  0  0  0  0  0  0
    1.0119   -4.1630   41.5517 C   0  0  2  0  0  0  0  0  0  0  0  0
    2.1024   -4.6343   40.7635 O   0  0  0  0  0  0  0  0  0  0  0  0
    1.5808   -3.2751   42.6969 C   0  0  1  0  0  0  0  0  0  0  0  0
    2.1871   -2.0867   42.1077 O   0  0  0  0  0  0  0  0  0  0  0  0
    0.4727   -2.8441   43.7125 C   0  0  1  0  0  0  0  0  0  0  0  0
   -0.3765   -4.0485   44.2311 C   0  0  1  0  0  0  0  0  0  0  0  0
   -1.4780   -3.5991   45.1110 N   0  3  0  0  0  0  0  0  0  0  0  0
   -0.9552   -4.8609   43.0438 C   0  0  0  0  0  0  0  0  0  0  0  0
    3.6203   -2.0670   41.8120 C   0  0  1  0  0  0  0  0  0  0  0  0
    3.8218   -1.5263   40.3841 C   0  0  2  0  0  0  0  0  0  0  0  0
    5.0438   -2.0001   39.8249 O   0  0  0  0  0  0  0  0  0  0  0  0
    3.8705   -0.0237   40.7000 C   0  0  1  0  0  0  0  0  0  0  0  0
    4.7401    0.0185   41.9456 C   0  0  2  0  0  0  0  0  0  0  0  0
    4.2933   -1.1220   42.6627 O   0  0  0  0  0  0  0  0  0  0  0  0
    4.5903    1.2809   42.8045 C   0  0  0  0  0  0  0  0  0  0  0  0
    5.1167    2.4049   42.1148 O   0  0  0  0  0  0  0  0  0  0  0  0
    3.2125    1.4928   35.5615 C   0  0  1  0  0  0  0  0  0  0  0  0
    4.3937    2.1998   35.1879 O   0  0  0  0  0  0  0  0  0  0  0  0
    3.5855    0.0344   35.9485 C   0  0  2  0  0  0  0  0  0  0  0  0
    2.3961   -0.7516   35.9542 O   0  0  0  0  0  0  0  0  0  0  0  0
    4.3037   -0.1299   37.3279 C   0  0  1  0  0  0  0  0  0  0  0  0
    5.7596    0.0869   37.1789 N   0  3  0  0  0  0  0  0  0  0  0  0
    3.6710    0.7724   38.4199 C   0  0  1  0  0  0  0  0  0  0  0  0
    4.4262    0.8217   39.6554 O   0  0  0  0  0  0  0  0  0  0  0  0
    2.5240    2.1927   36.7602 C   0  0  1  0  0  0  0  0  0  0  0  0
    3.4315    2.1211   37.8938 O   0  0  0  0  0  0  0  0  0  0  0  0
    2.1094    3.6487   36.4772 C   0  0  0  0  0  0  0  0  0  0  0  0
    3.2589    4.5742   36.4525 N   0  3  0  0  0  0  0  0  0  0  0  0
  1  2  1  1  0  0  0
  1  3  1  0  0  0  0
  1 10  1  0  0  0  0
  3  4  1  1  0  0  0
  3  5  1  0  0  0  0
  5  6  1  1  0  0  0
  5  7  1  0  0  0  0
  7  8  1  1  0  0  0
  7  9  1  0  0  0  0
  9 10  1  0  0  0  0
  9 11  1  6  0  0  0
 11 12  1  0  0  0  0
 13 14  1  6  0  0  0
 13 15  1  0  0  0  0
 13 22  1  0  0  0  0
 15 16  1  1  0  0  0
 15 17  1  0  0  0  0
 17 18  1  6  0  0  0
 17 19  1  0  0  0  0
 19  2  1  1  0  0  0
 19 20  1  0  0  0  0
 20 21  1  1  0  0  0
 20 22  1  0  0  0  0
 23 18  1  1  0  0  0
 23 24  1  0  0  0  0
 23 28  1  0  0  0  0
 24 25  1  1  0  0  0
 24 26  1  0  0  0  0
 26 27  1  0  0  0  0
 26 38  1  6  0  0  0
 27 28  1  0  0  0  0
 27 29  1  1  0  0  0
 29 30  1  0  0  0  0
 31 32  1  1  0  0  0
 31 33  1  0  0  0  0
 31 39  1  0  0  0  0
 33 34  1  1  0  0  0
 33 35  1  0  0  0  0
 35 36  1  6  0  0  0
 35 37  1  0  0  0  0
 37 38  1  1  0  0  0
 37 40  1  0  0  0  0
 39 40  1  0  0  0  0
 39 41  1  6  0  0  0
 41 42  1  0  0  0  0
M  CHG  5   4   1  14   1  21   1  36   1  42   1
M  END
>  <CHROM.1>
-158.69229223,71.74538336,169.30659785,-173.33938607,-62.17712121,-56.66553040
-80.16786659,-173.85739554,-52.49522330,-94.00374154,132.55852757,-38.37354356
-174.28213715,61.48582001,-68.58879510,47.17934847,164.75089606,-60.96841497
-93.31565024,-101.19636634,-74.03522991,-154.87094094,2.30035642,-0.60317306
41.79671662,-2.57674698,-1.16562763,-2.24901889

>  <Name>
1pbr

>  <RI>
0

>  <Rbt.Current_Directory>
/home/itssahil/PROJECTS/Mol_Feturizer/New_Systems/rnas/1pbr

>  <Rbt.Executable>
rbdock ($Id: //depot/dev/client3/rdock/2013.1/src/exe/rbdock.cxx#4 $)

>  <Rbt.Library>
libRbt.so (2013.1, Build901 2013/11/27)

>  <Rbt.Parameter_File>
/export/apps/rDock/src/rDock_2013.1_src/data/scripts/dock_solv.prm

>  <Rbt.Receptor>
prm/pocket_docking_2.prm

>  <SCORE>
-54.3913

>  <SCORE.INTER>
-56.8087

>  <SCORE.INTER.CONST>
1

>  <SCORE.INTER.POLAR>
-8.14792

>  <SCORE.INTER.ROT>
9

>  <SCORE.INTER.SOLV>
31.3546

>  <SCORE.INTER.VDW>
-30.7643

>  <SCORE.INTER.norm>
-1.35259

>  <SCORE.INTRA>
1.25057

>  <SCORE.INTRA.DIHEDRAL>
0.337725

>  <SCORE.INTRA.DIHEDRAL.0>
29.7866

>  <SCORE.INTRA.POLAR>
0.137795

>  <SCORE.INTRA.POLAR.0>
-0.984091

>  <SCORE.INTRA.REPUL>
-0.274115

>  <SCORE.INTRA.REPUL.0>
0.274115

>  <SCORE.INTRA.SOLV>
0.889333

>  <SCORE.INTRA.SOLV.lig_0>
-152.978

>  <SCORE.INTRA.VDW>
1.53911

>  <SCORE.INTRA.VDW.0>
-6.10719

>  <SCORE.INTRA.norm>
0.0297754

>  <SCORE.RESTR>
1.16675

>  <SCORE.RESTR.CAVITY>
1.16675

>  <SCORE.RESTR.norm>
0.0277798

>  <SCORE.SYSTEM>
0

>  <SCORE.SYSTEM.CONST>
0

>  <SCORE.SYSTEM.DIHEDRAL>
0

>  <SCORE.SYSTEM.SOLV>
0

>  <SCORE.SYSTEM.norm>
0

>  <SCORE.heavy>
42

>  <SCORE.norm>
-1.29503

>  <RMSD>
1.427

$$$$
1pbr
 OpenBabel11021811403D
libRbt.so/2013.1/901 2013/11/27
 42 45  0  0  0  0  0  0  0  0999 V2000
    1.6949   -0.6900   44.6070 C   0  0  2  0  0  0  0  0  0  0  0  0
    1.7958   -2.1298   44.7487 O   0  0  0  0  0  0  0  0  0  0  0  0
    3.0429    0.0087   45.0227 C   0  0  2  0  0  0  0  0  0  0  0  0
    4.2686   -0.6892   44.5549 N   0  3  0  0  0  0  0  0  0  0  0  0
    3.1719    0.1273   46.5530 C   0  0  1  0  0  0  0  0  0  0  0  0
    4.2539    0.9869   46.9046 O   0  0  0  0  0  0  0  0  0  0  0  0
    1.8731    0.6602   47.1767 C   0  0  2  0  0  0  0  0  0  0  0  0
    2.0257    0.8043   48.5853 O   0  0  0  0  0  0  0  0  0  0  0  0
    0.6756   -0.2403   46.8002 C   0  0  2  0  0  0  0  0  0  0  0  0
    0.5543   -0.1966   45.3626 O   0  0  0  0  0  0  0  0  0  0  0  0
   -0.6575    0.2067   47.3978 C   0  0  0  0  0  0  0  0  0  0  0  0
   -1.2005    1.3071   46.6803 O   0  0  0  0  0  0  0  0  0  0  0  0
   -0.1392   -5.6938   43.4215 C   0  0  1  0  0  0  0  0  0  0  0  0
   -1.0096   -6.7075   42.7981 N   0  3  0  0  0  0  0  0  0  0  0  0
    0.7440   -4.9495   42.3747 C   0  0  2  0  0  0  0  0  0  0  0  0
    1.5686   -5.8755   41.6710 O   0  0  0  0  0  0  0  0  0  0  0  0
    1.6623   -3.8944   43.0580 C   0  0  1  0  0  0  0  0  0  0  0  0
    2.3334   -3.1192   42.0207 O   0  0  0  0  0  0  0  0  0  0  0  0
    0.8578   -2.9297   43.9892 C   0  0  1  0  0  0  0  0  0  0  0  0
   -0.0645   -3.6880   44.9967 C   0  0  1  0  0  0  0  0  0  0  0  0
   -0.8857   -2.7507   45.7946 N   0  3  0  0  0  0  0  0  0  0  0  0
   -0.9877   -4.6847   44.2492 C   0  0  0  0  0  0  0  0  0  0  0  0
    3.4173   -3.7217   41.2435 C   0  0  1  0  0  0  0  0  0  0  0  0
    3.1804   -3.4212   39.7516 C   0  0  2  0  0  0  0  0  0  0  0  0
    3.8035   -4.4018   38.9267 O   0  0  0  0  0  0  0  0  0  0  0  0
    3.8825   -2.0576   39.6660 C   0  0  1  0  0  0  0  0  0  0  0  0
    5.1458   -2.2909   40.4779 C   0  0  2  0  0  0  0  0  0  0  0  0
    4.6691   -3.0844   41.5539 O   0  0  0  0  0  0  0  0  0  0  0  0
    5.8238   -1.0219   41.0107 C   0  0  0  0  0  0  0  0  0  0  0  0
    4.9427   -0.3275   41.8813 O   0  0  0  0  0  0  0  0  0  0  0  0
    2.1019    1.8606   36.8220 C   0  0  1  0  0  0  0  0  0  0  0  0
    3.2020    2.7574   36.9650 O   0  0  0  0  0  0  0  0  0  0  0  0
    2.4650    0.7607   35.7857 C   0  0  2  0  0  0  0  0  0  0  0  0
    1.2646    0.1097   35.3759 O   0  0  0  0  0  0  0  0  0  0  0  0
    3.4788   -0.3208   36.2840 C   0  0  1  0  0  0  0  0  0  0  0  0
    4.8682    0.1545   36.1031 N   0  3  0  0  0  0  0  0  0  0  0  0
    3.1810   -0.7646   37.7404 C   0  0  1  0  0  0  0  0  0  0  0  0
    4.2097   -1.6008   38.3248 O   0  0  0  0  0  0  0  0  0  0  0  0
    1.7627    1.2050   38.1842 C   0  0  1  0  0  0  0  0  0  0  0  0
    2.9074    0.4034   38.5855 O   0  0  0  0  0  0  0  0  0  0  0  0
    1.3838    2.2141   39.2843 C   0  0  0  0  0  0  0  0  0  0  0  0
    0.9304    1.5594   40.5269 N   0  3  0  0  0  0  0  0  0  0  0  0
  1  2  1  1  0  0  0
  1  3  1  0  0  0  0
  1 10  1  0  0  0  0
  3  4  1  1  0  0  0
  3  5  1  0  0  0  0
  5  6  1  6  0  0  0
  5  7  1  0  0  0  0
  7  8  1  1  0  0  0
  7  9  1  0  0  0  0
  9 10  1  0  0  0  0
  9 11  1  1  0  0  0
 11 12  1  0  0  0  0
 13 14  1  6  0  0  0
 13 15  1  0  0  0  0
 13 22  1  0  0  0  0
 15 16  1  1  0  0  0
 15 17  1  0  0  0  0
 17 18  1  6  0  0  0
 17 19  1  0  0  0  0
 19  2  1  1  0  0  0
 19 20  1  0  0  0  0
 20 21  1  6  0  0  0
 20 22  1  0  0  0  0
 23 18  1  1  0  0  0
 23 24  1  0  0  0  0
 23 28  1  0  0  0  0
 24 25  1  6  0  0  0
 24 26  1  0  0  0  0
 26 27  1  0  0  0  0
 26 38  1  6  0  0  0
 27 28  1  0  0  0  0
 27 29  1  1  0  0  0
 29 30  1  0  0  0  0
 31 32  1  1  0  0  0
 31 33  1  0  0  0  0
 31 39  1  0  0  0  0
 33 34  1  1  0  0  0
 33 35  1  0  0  0  0
 35 36  1  1  0  0  0
 35 37  1  0  0  0  0
 37 38  1  1  0  0  0
 37 40  1  0  0  0  0
 39 40  1  0  0  0  0
 39 41  1  1  0  0  0
 41 42  1  0  0  0  0
M  CHG  5   4   1  14   1  21   1  36   1  42   1
M  END
>  <CHROM.1>
-158.89340139,121.81482842,-61.94270661,61.93023696,-60.11769643,77.70661387
158.40633326,62.62967748,-63.75237260,-73.37620295,133.20753521,-118.57457195
57.71034328,92.76237255,61.19311415,-58.55373534,66.57393156,164.27546434
-57.83946861,-177.26499555,174.00925814,-63.92067611,2.20098498,-1.31622153
41.98827709,-2.55751109,-1.25916720,-2.39250739

>  <Name>
1pbr

>  <RI>
0

>  <Rbt.Current_Directory>
/home/itssahil/PROJECTS/Mol_Feturizer/New_Systems/rnas/1pbr

>  <Rbt.Executable>
rbdock ($Id: //depot/dev/client3/rdock/2013.1/src/exe/rbdock.cxx#4 $)

>  <Rbt.Library>
libRbt.so (2013.1, Build901 2013/11/27)

>  <Rbt.Parameter_File>
/export/apps/rDock/src/rDock_2013.1_src/data/scripts/dock_solv.prm

>  <Rbt.Receptor>
prm/pocket_docking_3.prm

>  <SCORE>
-43.0664

>  <SCORE.INTER>
-40.7177

>  <SCORE.INTER.CONST>
1

>  <SCORE.INTER.POLAR>
-4.77913

>  <SCORE.INTER.ROT>
9

>  <SCORE.INTER.SOLV>
23.5266

>  <SCORE.INTER.VDW>
-28.6569

>  <SCORE.INTER.norm>
-0.969468

>  <SCORE.INTRA>
-2.34872

>  <SCORE.INTRA.DIHEDRAL>
-0.111731

>  <SCORE.INTRA.DIHEDRAL.0>
29.7866

>  <SCORE.INTRA.POLAR>
-0.816176

>  <SCORE.INTRA.POLAR.0>
-0.984091

>  <SCORE.INTRA.REPUL>
-0.274115

>  <SCORE.INTRA.REPUL.0>
0.274115

>  <SCORE.INTRA.SOLV>
3.51021

>  <SCORE.INTRA.SOLV.lig_0>
-152.978

>  <SCORE.INTRA.VDW>
0.097612

>  <SCORE.INTRA.VDW.0>
-6.10719

>  <SCORE.INTRA.norm>
-0.0559219

>  <SCORE.RESTR>
0

>  <SCORE.RESTR.CAVITY>
0

>  <SCORE.RESTR.norm>
0

>  <SCORE.SYSTEM>
0

>  <SCORE.SYSTEM.CONST>
0

>  <SCORE.SYSTEM.DIHEDRAL>
0

>  <SCORE.SYSTEM.SOLV>
0

>  <SCORE.SYSTEM.norm>
0

>  <SCORE.heavy>
42

>  <SCORE.norm>
-1.02539

>  <RMSD>
1.448

$$$$
1pbr
 OpenBabel11021811403D
libRbt.so/2013.1/901 2013/11/27
 42 45  0  0  0  0  0  0  0  0999 V2000
    1.5045   -0.3156   43.8814 C   0  0  2  0  0  0  0  0  0  0  0  0
    1.6686   -1.7555   43.9374 O   0  0  0  0  0  0  0  0  0  0  0  0
    2.8190    0.4156   44.3459 C   0  0  2  0  0  0  0  0  0  0  0  0
    4.0758   -0.1984   43.8444 N   0  3  0  0  0  0  0  0  0  0  0  0
    2.9377    0.4478   45.8813 C   0  0  1  0  0  0  0  0  0  0  0  0
    3.9795    1.3316   46.2899 O   0  0  0  0  0  0  0  0  0  0  0  0
    1.6146    0.8847   46.5281 C   0  0  2  0  0  0  0  0  0  0  0  0
    1.7562    0.9507   47.9436 O   0  0  0  0  0  0  0  0  0  0  0  0
    0.4594   -0.0434   46.0916 C   0  0  2  0  0  0  0  0  0  0  0  0
    0.3408    0.0809   44.6585 O   0  0  0  0  0  0  0  0  0  0  0  0
   -0.8941    0.3078   46.7070 C   0  0  0  0  0  0  0  0  0  0  0  0
   -0.8975    0.0774   48.1097 O   0  0  0  0  0  0  0  0  0  0  0  0
    0.2669   -5.2472   41.9248 C   0  0  1  0  0  0  0  0  0  0  0  0
   -0.3233   -6.2296   40.9972 N   0  3  0  0  0  0  0  0  0  0  0  0
    1.5365   -4.5642   41.3322 C   0  0  2  0  0  0  0  0  0  0  0  0
    2.5287   -5.5404   41.0238 O   0  0  0  0  0  0  0  0  0  0  0  0
    2.1480   -3.5416   42.3342 C   0  0  1  0  0  0  0  0  0  0  0  0
    3.2220   -2.8175   41.6639 O   0  0  0  0  0  0  0  0  0  0  0  0
    1.0832   -2.5236   42.8586 C   0  0  1  0  0  0  0  0  0  0  0  0
   -0.2068   -3.2195   43.3993 C   0  0  1  0  0  0  0  0  0  0  0  0
   -1.2338   -2.2305   43.7951 N   0  3  0  0  0  0  0  0  0  0  0  0
   -0.7936   -4.1846   42.3369 C   0  0  0  0  0  0  0  0  0  0  0  0
    4.0996   -3.5164   40.7241 C   0  0  1  0  0  0  0  0  0  0  0  0
    3.6271   -3.2138   39.2898 C   0  0  2  0  0  0  0  0  0  0  0  0
    4.0140   -4.2517   38.3936 O   0  0  0  0  0  0  0  0  0  0  0  0
    4.4093   -1.9141   39.0475 C   0  0  1  0  0  0  0  0  0  0  0  0
    5.7737   -2.2424   39.6307 C   0  0  2  0  0  0  0  0  0  0  0  0
    5.4333   -2.9818   40.7936 O   0  0  0  0  0  0  0  0  0  0  0  0
    6.6343   -1.0284   40.0037 C   0  0  0  0  0  0  0  0  0  0  0  0
    6.0917   -0.3780   41.1434 O   0  0  0  0  0  0  0  0  0  0  0  0
    1.7252    1.5804   36.5068 C   0  0  1  0  0  0  0  0  0  0  0  0
    2.6149    2.6676   36.7543 O   0  0  0  0  0  0  0  0  0  0  0  0
    2.2978    0.6958   35.3643 C   0  0  2  0  0  0  0  0  0  0  0  0
    1.2553   -0.1455   34.8764 O   0  0  0  0  0  0  0  0  0  0  0  0
    3.5215   -0.1955   35.7563 C   0  0  1  0  0  0  0  0  0  0  0  0
    4.7783    0.5765   35.6403 N   0  3  0  0  0  0  0  0  0  0  0  0
    3.3411   -0.8421   37.1549 C   0  0  1  0  0  0  0  0  0  0  0  0
    4.5292   -1.5009   37.6584 O   0  0  0  0  0  0  0  0  0  0  0  0
    1.5476    0.7291   37.7892 C   0  0  1  0  0  0  0  0  0  0  0  0
    2.8396    0.1475   38.1154 O   0  0  0  0  0  0  0  0  0  0  0  0
    0.9794    1.5154   38.9853 C   0  0  0  0  0  0  0  0  0  0  0  0
   -0.4553    1.8271   38.8329 N   0  3  0  0  0  0  0  0  0  0  0  0
  1  2  1  1  0  0  0
  1  3  1  0  0  0  0
  1 10  1  0  0  0  0
  3  4  1  6  0  0  0
  3  5  1  0  0  0  0
  5  6  1  6  0  0  0
  5  7  1  0  0  0  0
  7  8  1  1  0  0  0
  7  9  1  0  0  0  0
  9 10  1  0  0  0  0
  9 11  1  1  0  0  0
 11 12  1  0  0  0  0
 13 14  1  6  0  0  0
 13 15  1  0  0  0  0
 13 22  1  0  0  0  0
 15 16  1  1  0  0  0
 15 17  1  0  0  0  0
 17 18  1  6  0  0  0
 17 19  1  0  0  0  0
 19  2  1  1  0  0  0
 19 20  1  0  0  0  0
 20 21  1  6  0  0  0
 20 22  1  0  0  0  0
 23 18  1  1  0  0  0
 23 24  1  0  0  0  0
 23 28  1  0  0  0  0
 24 25  1  6  0  0  0
 24 26  1  0  0  0  0
 26 27  1  0  0  0  0
 26 38  1  6  0  0  0
 27 28  1  0  0  0  0
 27 29  1  1  0  0  0
 29 30  1  0  0  0  0
 31 32  1  1  0  0  0
 31 33  1  0  0  0  0
 31 39  1  0  0  0  0
 33 34  1  1  0  0  0
 33 35  1  0  0  0  0
 35 36  1  1  0  0  0
 35 37  1  0  0  0  0
 37 38  1  1  0  0  0
 37 40  1  0  0  0  0
 39 40  1  0  0  0  0
 39 41  1  1  0  0  0
 41 42  1  0  0  0  0
M  CHG  5   4   1  14   1  21   1  36   1  42   1
M  END
>  <CHROM.1>
-140.48779663,132.03490247,53.26372623,-58.15336676,55.21574511,-67.26522112
53.90031786,57.45263563,64.67091418,-37.51437469,99.79931615,-51.23796017
175.00828196,79.67768130,70.74971297,54.78031821,58.74428980,63.11364215
-70.26011354,170.84268284,73.02470907,173.23771913,2.30551723,-1.17728120
41.25266401,-2.87568016,-1.30119940,-2.85089445

>  <Name>
1pbr

>  <RI>
0

>  <Rbt.Current_Directory>
/home/itssahil/PROJECTS/Mol_Feturizer/New_Systems/rnas/1pbr

>  <Rbt.Executable>
rbdock ($Id: //depot/dev/client3/rdock/2013.1/src/exe/rbdock.cxx#4 $)

>  <Rbt.Library>
libRbt.so (2013.1, Build901 2013/11/27)

>  <Rbt.Parameter_File>
/export/apps/rDock/src/rDock_2013.1_src/data/scripts/dock_solv.prm

>  <Rbt.Receptor>
prm/pocket_docking_3.prm

>  <SCORE>
-43.2225

>  <SCORE.INTER>
-40.7667

>  <SCORE.INTER.CONST>
1

>  <SCORE.INTER.POLAR>
-4.95902

>  <SCORE.INTER.ROT>
9

>  <SCORE.INTER.SOLV>
29.007

>  <SCORE.INTER.VDW>
-29.9167

>  <SCORE.INTER.norm>
-0.970635

>  <SCORE.INTRA>
-2.46079

>  <SCORE.INTRA.DIHEDRAL>
-4.82931

>  <SCORE.INTRA.DIHEDRAL.0>
29.7866

>  <SCORE.INTRA.POLAR>
-0.679297

>  <SCORE.INTRA.POLAR.0>
-0.984091

>  <SCORE.INTRA.REPUL>
-0.274115

>  <SCORE.INTRA.REPUL.0>
0.274115

>  <SCORE.INTRA.SOLV>
2.52701

>  <SCORE.INTRA.SOLV.lig_0>
-152.978

>  <SCORE.INTRA.VDW>
2.37054

>  <SCORE.INTRA.VDW.0>
-6.10719

>  <SCORE.INTRA.norm>
-0.0585902

>  <SCORE.RESTR>
0.00495257

>  <SCORE.RESTR.CAVITY>
0.00495257

>  <SCORE.RESTR.norm>
0.000117918

>  <SCORE.SYSTEM>
0

>  <SCORE.SYSTEM.CONST>
0

>  <SCORE.SYSTEM.DIHEDRAL>
0

>  <SCORE.SYSTEM.SOLV>
0

>  <SCORE.SYSTEM.norm>
0

>  <SCORE.heavy>
42

>  <SCORE.norm>
-1.02911

>  <RMSD>
1.466

$$$$
1pbr
 OpenBabel11021811403D
libRbt.so/2013.1/901 2013/11/27
 42 45  0  0  0  0  0  0  0  0999 V2000
    1.7805   -0.3885   43.6797 C   0  0  2  0  0  0  0  0  0  0  0  0
    1.4923   -1.8091   43.7273 O   0  0  0  0  0  0  0  0  0  0  0  0
    3.1244   -0.0649   44.4328 C   0  0  2  0  0  0  0  0  0  0  0  0
    4.2172   -1.0425   44.1910 N   0  3  0  0  0  0  0  0  0  0  0  0
    2.9214   -0.0142   45.9589 C   0  0  1  0  0  0  0  0  0  0  0  0
    4.0688    0.5340   46.6041 O   0  0  0  0  0  0  0  0  0  0  0  0
    1.6836    0.8193   46.3235 C   0  0  2  0  0  0  0  0  0  0  0  0
    1.5372    0.8912   47.7383 O   0  0  0  0  0  0  0  0  0  0  0  0
    0.4233    0.2615   45.6257 C   0  0  2  0  0  0  0  0  0  0  0  0
    0.6516    0.3637   44.2042 O   0  0  0  0  0  0  0  0  0  0  0  0
   -0.8617    1.0211   45.9508 C   0  0  0  0  0  0  0  0  0  0  0  0
   -1.2199    0.8662   47.3176 O   0  0  0  0  0  0  0  0  0  0  0  0
    0.8548   -4.7545   40.7064 C   0  0  1  0  0  0  0  0  0  0  0  0
    0.3808   -5.5661   39.5704 N   0  3  0  0  0  0  0  0  0  0  0  0
    1.4973   -3.4114   40.2451 C   0  0  2  0  0  0  0  0  0  0  0  0
    2.6033   -3.6599   39.3806 O   0  0  0  0  0  0  0  0  0  0  0  0
    2.0009   -2.5789   41.4604 C   0  0  1  0  0  0  0  0  0  0  0  0
    2.4324   -1.2704   40.9822 O   0  0  0  0  0  0  0  0  0  0  0  0
    0.8918   -2.3952   42.5473 C   0  0  1  0  0  0  0  0  0  0  0  0
    0.2184   -3.7429   42.9607 C   0  0  1  0  0  0  0  0  0  0  0  0
   -0.8920   -3.5266   43.9145 N   0  3  0  0  0  0  0  0  0  0  0  0
   -0.3058   -4.4979   41.7118 C   0  0  0  0  0  0  0  0  0  0  0  0
    3.7862   -1.0944   40.4550 C   0  0  1  0  0  0  0  0  0  0  0  0
    3.6995   -0.3407   39.1146 C   0  0  2  0  0  0  0  0  0  0  0  0
    4.8250   -0.6308   38.2904 O   0  0  0  0  0  0  0  0  0  0  0  0
    3.7236    1.1003   39.6464 C   0  0  1  0  0  0  0  0  0  0  0  0
    4.7989    1.0331   40.7183 C   0  0  2  0  0  0  0  0  0  0  0  0
    4.5493   -0.2301   41.3154 O   0  0  0  0  0  0  0  0  0  0  0  0
    4.7383    2.1437   41.7750 C   0  0  0  0  0  0  0  0  0  0  0  0
    6.0497    2.4840   42.2001 O   0  0  0  0  0  0  0  0  0  0  0  0
    1.0328    3.4185   35.8396 C   0  0  1  0  0  0  0  0  0  0  0  0
    0.9226    4.7423   36.3594 O   0  0  0  0  0  0  0  0  0  0  0  0
    2.4674    3.2014   35.2825 C   0  0  2  0  0  0  0  0  0  0  0  0
    2.4596    2.0458   34.4475 O   0  0  0  0  0  0  0  0  0  0  0  0
    3.5871    3.0347   36.3615 C   0  0  1  0  0  0  0  0  0  0  0  0
    4.0770    4.3590   36.8033 N   0  3  0  0  0  0  0  0  0  0  0  0
    3.1233    2.1416   37.5423 C   0  0  1  0  0  0  0  0  0  0  0  0
    4.0372    2.1279   38.6665 O   0  0  0  0  0  0  0  0  0  0  0  0
    0.7398    2.3791   36.9507 C   0  0  1  0  0  0  0  0  0  0  0  0
    1.7700    2.5173   37.9673 O   0  0  0  0  0  0  0  0  0  0  0  0
   -0.6651    2.5071   37.5687 C   0  0  0  0  0  0  0  0  0  0  0  0
   -0.8172    1.7180   38.8068 N   0  3  0  0  0  0  0  0  0  0  0  0
  1  2  1  1  0  0  0
  1  3  1  0  0  0  0
  1 10  1  0  0  0  0
  3  4  1  1  0  0  0
  3  5  1  0  0  0  0
  5  6  1  1  0  0  0
  5  7  1  0  0  0  0
  7  8  1  1  0  0  0
  7  9  1  0  0  0  0
  9 10  1  0  0  0  0
  9 11  1  1  0  0  0
 11 12  1  0  0  0  0
 13 14  1  6  0  0  0
 13 15  1  0  0  0  0
 13 22  1  0  0  0  0
 15 16  1  6  0  0  0
 15 17  1  0  0  0  0
 17 18  1  6  0  0  0
 17 19  1  0  0  0  0
 19  2  1  1  0  0  0
 19 20  1  0  0  0  0
 20 21  1  1  0  0  0
 20 22  1  0  0  0  0
 23 18  1  1  0  0  0
 23 24  1  0  0  0  0
 23 28  1  0  0  0  0
 24 25  1  6  0  0  0
 24 26  1  0  0  0  0
 26 27  1  0  0  0  0
 26 38  1  6  0  0  0
 27 28  1  0  0  0  0
 27 29  1  1  0  0  0
 29 30  1  0  0  0  0
 31 32  1  1  0  0  0
 31 33  1  0  0  0  0
 31 39  1  0  0  0  0
 33 34  1  1  0  0  0
 33 35  1  0  0  0  0
 35 36  1  1  0  0  0
 35 37  1  0  0  0  0
 37 38  1  1  0  0  0
 37 40  1  0  0  0  0
 39 40  1  0  0  0  0
 39 41  1  1  0  0  0
 41 42  1  0  0  0  0
M  CHG  5   4   1  14   1  21   1  36   1  42   1
M  END
>  <CHROM.1>
-143.07595356,76.77708279,58.50644251,-76.34477324,-170.43346131,-66.55089307
-151.71085549,126.25953403,-14.81602147,-84.59746228,131.87035852,100.48477312
72.66902681,57.92616998,-146.39574885,-82.27061232,169.75671248,59.28246177
162.15267152,-168.88461971,-167.43706289,179.45068425,2.10837713,0.12399685
41.09773817,-2.00165848,-1.22739629,-1.57332221

>  <Name>
1pbr

>  <RI>
0

>  <Rbt.Current_Directory>
/home/itssahil/PROJECTS/Mol_Feturizer/New_Systems/rnas/1pbr

>  <Rbt.Executable>
rbdock ($Id: //depot/dev/client3/rdock/2013.1/src/exe/rbdock.cxx#4 $)

>  <Rbt.Library>
libRbt.so (2013.1, Build901 2013/11/27)

>  <Rbt.Parameter_File>
/export/apps/rDock/src/rDock_2013.1_src/data/scripts/dock_solv.prm

>  <Rbt.Receptor>
prm/pocket_docking_5.prm

>  <SCORE>
-46.094

>  <SCORE.INTER>
-48.3512

>  <SCORE.INTER.CONST>
1

>  <SCORE.INTER.POLAR>
-6.08497

>  <SCORE.INTER.ROT>
9

>  <SCORE.INTER.SOLV>
37.6129

>  <SCORE.INTER.VDW>
-34.0885

>  <SCORE.INTER.norm>
-1.15122

>  <SCORE.INTRA>
2.11912

>  <SCORE.INTRA.DIHEDRAL>
12.067

>  <SCORE.INTRA.DIHEDRAL.0>
29.7866

>  <SCORE.INTRA.POLAR>
-1.05253

>  <SCORE.INTRA.POLAR.0>
-0.984091

>  <SCORE.INTRA.REPUL>
-0.274115

>  <SCORE.INTRA.REPUL.0>
0.274115

>  <SCORE.INTRA.SOLV>
-1.25155

>  <SCORE.INTRA.SOLV.lig_0>
-152.978

>  <SCORE.INTRA.VDW>
1.66057

>  <SCORE.INTRA.VDW.0>
-6.10719

>  <SCORE.INTRA.norm>
0.0504553

>  <SCORE.RESTR>
0.138117

>  <SCORE.RESTR.CAVITY>
0.138117

>  <SCORE.RESTR.norm>
0.00328851

>  <SCORE.SYSTEM>
0

>  <SCORE.SYSTEM.CONST>
0

>  <SCORE.SYSTEM.DIHEDRAL>
0

>  <SCORE.SYSTEM.SOLV>
0

>  <SCORE.SYSTEM.norm>
0

>  <SCORE.heavy>
42

>  <SCORE.norm>
-1.09748

>  <RMSD>
1.474

$$$$
1pbr
 OpenBabel11021811403D
libRbt.so/2013.1/901 2013/11/27
 42 45  0  0  0  0  0  0  0  0999 V2000
    1.4662   -1.1038   44.2894 C   0  0  2  0  0  0  0  0  0  0  0  0
    1.0727   -2.3811   44.8525 O   0  0  0  0  0  0  0  0  0  0  0  0
    2.8359   -0.6224   44.8981 C   0  0  2  0  0  0  0  0  0  0  0  0
    3.8505   -1.6963   45.0579 N   0  3  0  0  0  0  0  0  0  0  0  0
    2.6479    0.0041   46.2926 C   0  0  1  0  0  0  0  0  0  0  0  0
    3.8376    0.6677   46.7138 O   0  0  0  0  0  0  0  0  0  0  0  0
    1.4786    1.0003   46.2970 C   0  0  2  0  0  0  0  0  0  0  0  0
    1.3479    1.6011   47.5815 O   0  0  0  0  0  0  0  0  0  0  0  0
    0.1752    0.3165   45.8280 C   0  0  2  0  0  0  0  0  0  0  0  0
    0.4006   -0.1314   44.4746 O   0  0  0  0  0  0  0  0  0  0  0  0
   -1.0470    1.2332   45.8219 C   0  0  0  0  0  0  0  0  0  0  0  0
   -1.3999    1.6300   47.1405 O   0  0  0  0  0  0  0  0  0  0  0  0
   -0.5153   -6.0456   43.3502 C   0  0  1  0  0  0  0  0  0  0  0  0
   -1.2740   -7.1058   42.6615 N   0  3  0  0  0  0  0  0  0  0  0  0
    0.3563   -5.2086   42.3656 C   0  0  2  0  0  0  0  0  0  0  0  0
    1.2826   -6.0499   41.6824 O   0  0  0  0  0  0  0  0  0  0  0  0
    1.1567   -4.1051   43.1173 C   0  0  1  0  0  0  0  0  0  0  0  0
    1.8142   -3.2537   42.1325 O   0  0  0  0  0  0  0  0  0  0  0  0
    0.2366   -3.2297   44.0295 C   0  0  1  0  0  0  0  0  0  0  0  0
   -0.6710   -4.0827   44.9726 C   0  0  1  0  0  0  0  0  0  0  0  0
   -1.5992   -3.2323   45.7503 N   0  3  0  0  0  0  0  0  0  0  0  0
   -1.4777   -5.1265   44.1579 C   0  0  0  0  0  0  0  0  0  0  0  0
    3.1868   -3.5434   41.7155 C   0  0  1  0  0  0  0  0  0  0  0  0
    3.2217   -3.6595   40.1801 C   0  0  2  0  0  0  0  0  0  0  0  0
    4.3093   -4.4748   39.7529 O   0  0  0  0  0  0  0  0  0  0  0  0
    3.4325   -2.1784   39.8311 C   0  0  1  0  0  0  0  0  0  0  0  0
    4.4735   -1.7490   40.8518 C   0  0  2  0  0  0  0  0  0  0  0  0
    4.0472   -2.4317   42.0210 O   0  0  0  0  0  0  0  0  0  0  0  0
    4.5483   -0.2392   41.1132 C   0  0  0  0  0  0  0  0  0  0  0  0
    5.0273    0.4324   39.9574 O   0  0  0  0  0  0  0  0  0  0  0  0
    2.3551    1.4983   36.3126 C   0  0  1  0  0  0  0  0  0  0  0  0
    3.5910    2.2102   36.2903 O   0  0  0  0  0  0  0  0  0  0  0  0
    2.5084    0.1744   35.5128 C   0  0  2  0  0  0  0  0  0  0  0  0
    1.2082   -0.3346   35.2248 O   0  0  0  0  0  0  0  0  0  0  0  0
    3.3408   -0.9439   36.2216 C   0  0  1  0  0  0  0  0  0  0  0  0
    4.7852   -0.7501   35.9662 N   0  3  0  0  0  0  0  0  0  0  0  0
    3.0064   -1.0428   37.7333 C   0  0  1  0  0  0  0  0  0  0  0  0
    3.8959   -1.9098   38.4792 O   0  0  0  0  0  0  0  0  0  0  0  0
    1.9429    1.1832   37.7726 C   0  0  1  0  0  0  0  0  0  0  0  0
    2.9483    0.2952   38.3332 O   0  0  0  0  0  0  0  0  0  0  0  0
    1.7604    2.4342   38.6522 C   0  0  0  0  0  0  0  0  0  0  0  0
    0.8067    3.4021   38.0759 N   0  3  0  0  0  0  0  0  0  0  0  0
  1  2  1  1  0  0  0
  1  3  1  0  0  0  0
  1 10  1  0  0  0  0
  3  4  1  1  0  0  0
  3  5  1  0  0  0  0
  5  6  1  6  0  0  0
  5  7  1  0  0  0  0
  7  8  1  1  0  0  0
  7  9  1  0  0  0  0
  9 10  1  0  0  0  0
  9 11  1  6  0  0  0
 11 12  1  0  0  0  0
 13 14  1  6  0  0  0
 13 15  1  0  0  0  0
 13 22  1  0  0  0  0
 15 16  1  1  0  0  0
 15 17  1  0  0  0  0
 17 18  1  6  0  0  0
 17 19  1  0  0  0  0
 19  2  1  1  0  0  0
 19 20  1  0  0  0  0
 20 21  1  6  0  0  0
 20 22  1  0  0  0  0
 23 18  1  6  0  0  0
 23 24  1  0  0  0  0
 23 28  1  0  0  0  0
 24 25  1  1  0  0  0
 24 26  1  0  0  0  0
 26 27  1  0  0  0  0
 26 38  1  6  0  0  0
 27 28  1  0  0  0  0
 27 29  1  1  0  0  0
 29 30  1  0  0  0  0
 31 32  1  1  0  0  0
 31 33  1  0  0  0  0
 31 39  1  0  0  0  0
 33 34  1  1  0  0  0
 33 35  1  0  0  0  0
 35 36  1  1  0  0  0
 35 37  1  0  0  0  0
 37 38  1  1  0  0  0
 37 40  1  0  0  0  0
 39 40  1  0  0  0  0
 39 41  1  1  0  0  0
 41 42  1  0  0  0  0
M  CHG  5   4   1  14   1  21   1  36   1  42   1
M  END
>  <CHROM.1>
-152.68218265,87.44082242,60.01422481,-179.19272970,-177.24108161,-66.09224699
-108.20969611,175.22814555,-64.04447123,-93.12069129,125.74091410,-140.08834088
-60.14184307,122.00914321,-67.28788260,177.59449968,56.60253711,65.52349743
-171.62222065,-169.70584562,54.85340394,-175.74251229,1.92472179,-1.36270869
41.74726146,-2.84581574,-1.25287694,-2.60721141

>  <Name>
1pbr

>  <RI>
0

>  <Rbt.Current_Directory>
/home/itssahil/PROJECTS/Mol_Feturizer/New_Systems/rnas/1pbr

>  <Rbt.Executable>
rbdock ($Id: //depot/dev/client3/rdock/2013.1/src/exe/rbdock.cxx#4 $)

>  <Rbt.Library>
libRbt.so (2013.1, Build901 2013/11/27)

>  <Rbt.Parameter_File>
/export/apps/rDock/src/rDock_2013.1_src/data/scripts/dock_solv.prm

>  <Rbt.Receptor>
prm/pocket_docking_3.prm

>  <SCORE>
-44.3033

>  <SCORE.INTER>
-43.2025

>  <SCORE.INTER.CONST>
1

>  <SCORE.INTER.POLAR>
-5.13663

>  <SCORE.INTER.ROT>
9

>  <SCORE.INTER.SOLV>
24.1958

>  <SCORE.INTER.VDW>
-29.3449

>  <SCORE.INTER.norm>
-1.02863

>  <SCORE.INTRA>
-1.10076

>  <SCORE.INTRA.DIHEDRAL>
6.23156

>  <SCORE.INTRA.DIHEDRAL.0>
29.7866

>  <SCORE.INTRA.POLAR>
-0.776938

>  <SCORE.INTRA.POLAR.0>
-0.984091

>  <SCORE.INTRA.REPUL>
-0.270003

>  <SCORE.INTRA.REPUL.0>
0.274115

>  <SCORE.INTRA.SOLV>
-0.00818336

>  <SCORE.INTRA.SOLV.lig_0>
-152.978

>  <SCORE.INTRA.VDW>
-0.220844

>  <SCORE.INTRA.VDW.0>
-6.10719

>  <SCORE.INTRA.norm>
-0.0262085

>  <SCORE.RESTR>
0

>  <SCORE.RESTR.CAVITY>
0

>  <SCORE.RESTR.norm>
0

>  <SCORE.SYSTEM>
0

>  <SCORE.SYSTEM.CONST>
0

>  <SCORE.SYSTEM.DIHEDRAL>
0

>  <SCORE.SYSTEM.SOLV>
0

>  <SCORE.SYSTEM.norm>
0

>  <SCORE.heavy>
42

>  <SCORE.norm>
-1.05484

>  <RMSD>
1.488

$$$$
1pbr
 OpenBabel11021811403D
libRbt.so/2013.1/901 2013/11/27
 42 45  0  0  0  0  0  0  0  0999 V2000
    2.2422   -0.4535   43.6839 C   0  0  2  0  0  0  0  0  0  0  0  0
    2.1020   -1.8874   43.8494 O   0  0  0  0  0  0  0  0  0  0  0  0
    3.5420    0.0680   44.4026 C   0  0  2  0  0  0  0  0  0  0  0  0
    4.7310   -0.8081   44.2378 N   0  3  0  0  0  0  0  0  0  0  0  0
    3.3277    0.2229   45.9201 C   0  0  1  0  0  0  0  0  0  0  0  0
    4.4094    0.9379   46.5136 O   0  0  0  0  0  0  0  0  0  0  0  0
    2.0088    0.9512   46.2197 C   0  0  2  0  0  0  0  0  0  0  0  0
    1.8492    1.1238   47.6243 O   0  0  0  0  0  0  0  0  0  0  0  0
    0.8161    0.2108   45.5750 C   0  0  2  0  0  0  0  0  0  0  0  0
    1.0393    0.2188   44.1490 O   0  0  0  0  0  0  0  0  0  0  0  0
   -0.5420    0.8579   45.8414 C   0  0  0  0  0  0  0  0  0  0  0  0
   -1.6002    0.0721   45.3092 O   0  0  0  0  0  0  0  0  0  0  0  0
    0.1287   -5.1136   41.8730 C   0  0  1  0  0  0  0  0  0  0  0  0
   -0.7987   -5.9982   41.1442 N   0  3  0  0  0  0  0  0  0  0  0  0
    0.7129   -3.9916   40.9622 C   0  0  2  0  0  0  0  0  0  0  0  0
    1.4125   -4.5609   39.8580 O   0  0  0  0  0  0  0  0  0  0  0  0
    1.6980   -3.0794   41.7503 C   0  0  1  0  0  0  0  0  0  0  0  0
    2.0761   -1.9571   40.8991 O   0  0  0  0  0  0  0  0  0  0  0  0
    1.0663   -2.5378   43.0742 C   0  0  1  0  0  0  0  0  0  0  0  0
    0.4360   -3.6663   43.9517 C   0  0  1  0  0  0  0  0  0  0  0  0
   -0.2399   -3.1136   45.1463 N   0  3  0  0  0  0  0  0  0  0  0  0
   -0.5714   -4.5049   43.1231 C   0  0  0  0  0  0  0  0  0  0  0  0
    2.6148   -2.2033   39.5608 C   0  0  1  0  0  0  0  0  0  0  0  0
    2.6227   -0.8756   38.7804 C   0  0  2  0  0  0  0  0  0  0  0  0
    2.5672   -1.1071   37.3756 O   0  0  0  0  0  0  0  0  0  0  0  0
    3.9914   -0.3409   39.2284 C   0  0  1  0  0  0  0  0  0  0  0  0
    4.8658   -1.5815   39.1520 C   0  0  2  0  0  0  0  0  0  0  0  0
    3.9976   -2.5917   39.6421 O   0  0  0  0  0  0  0  0  0  0  0  0
    6.1495   -1.5288   39.9904 C   0  0  0  0  0  0  0  0  0  0  0  0
    5.8271   -1.4073   41.3680 O   0  0  0  0  0  0  0  0  0  0  0  0
    1.9824    3.1562   35.9205 C   0  0  1  0  0  0  0  0  0  0  0  0
    2.2252    4.3726   36.6249 O   0  0  0  0  0  0  0  0  0  0  0  0
    3.3084    2.6571   35.2816 C   0  0  2  0  0  0  0  0  0  0  0  0
    2.9954    1.6780   34.2936 O   0  0  0  0  0  0  0  0  0  0  0  0
    4.3464    2.0493   36.2810 C   0  0  1  0  0  0  0  0  0  0  0  0
    5.1682    3.1214   36.8844 N   0  3  0  0  0  0  0  0  0  0  0  0
    3.6658    1.1452   37.3423 C   0  0  1  0  0  0  0  0  0  0  0  0
    4.5456    0.7304   38.4160 O   0  0  0  0  0  0  0  0  0  0  0  0
    1.4279    2.0782   36.8854 C   0  0  1  0  0  0  0  0  0  0  0  0
    2.4596    1.7939   37.8694 O   0  0  0  0  0  0  0  0  0  0  0  0
    0.1071    2.4757   37.5708 C   0  0  0  0  0  0  0  0  0  0  0  0
    0.1074    3.8747   38.0410 N   0  3  0  0  0  0  0  0  0  0  0  0
  1  2  1  1  0  0  0
  1  3  1  0  0  0  0
  1 10  1  0  0  0  0
  3  4  1  1  0  0  0
  3  5  1  0  0  0  0
  5  6  1  6  0  0  0
  5  7  1  0  0  0  0
  7  8  1  1  0  0  0
  7  9  1  0  0  0  0
  9 10  1  0  0  0  0
  9 11  1  6  0  0  0
 11 12  1  0  0  0  0
 13 14  1  6  0  0  0
 13 15  1  0  0  0  0
 13 22  1  0  0  0  0
 15 16  1  6  0  0  0
 15 17  1  0  0  0  0
 17 18  1  6  0  0  0
 17 19  1  0  0  0  0
 19  2  1  1  0  0  0
 19 20  1  0  0  0  0
 20 21  1  1  0  0  0
 20 22  1  0  0  0  0
 23 18  1  1  0  0  0
 23 24  1  0  0  0  0
 23 28  1  0  0  0  0
 24 25  1  6  0  0  0
 24 26  1  0  0  0  0
 26 27  1  0  0  0  0
 26 38  1  6  0  0  0
 27 28  1  0  0  0  0
 27 29  1  1  0  0  0
 29 30  1  0  0  0  0
 31 32  1  1  0  0  0
 31 33  1  0  0  0  0
 31 39  1  0  0  0  0
 33 34  1  6  0  0  0
 33 35  1  0  0  0  0
 35 36  1  1  0  0  0
 35 37  1  0  0  0  0
 37 38  1  1  0  0  0
 37 40  1  0  0  0  0
 39 40  1  0  0  0  0
 39 41  1  1  0  0  0
 41 42  1  0  0  0  0
M  CHG  5   4   1  14   1  21   1  36   1  42   1
M  END
>  <CHROM.1>
-170.88183414,94.21833532,52.49994341,62.13444000,-61.60688658,-175.48711963
67.96542981,-132.11656779,-52.60804027,-53.49265305,167.27702375,164.93785659
131.67275959,2.40685116,62.26692285,67.27149593,65.27891089,58.10155229,66.40605278
-167.07929533,-42.95403857,166.69061335,2.25899203,-0.44258797,41.00028654
-2.40821410,-1.29398846,-1.98736911

>  <Name>
1pbr

>  <RI>
0

>  <Rbt.Current_Directory>
/home/itssahil/PROJECTS/Mol_Feturizer/New_Systems/rnas/1pbr

>  <Rbt.Executable>
rbdock ($Id: //depot/dev/client3/rdock/2013.1/src/exe/rbdock.cxx#4 $)

>  <Rbt.Library>
libRbt.so (2013.1, Build901 2013/11/27)

>  <Rbt.Parameter_File>
/export/apps/rDock/src/rDock_2013.1_src/data/scripts/dock_solv.prm

>  <Rbt.Receptor>
prm/pocket_docking_2.prm

>  <SCORE>
-47.2418

>  <SCORE.INTER>
-52.0255

>  <SCORE.INTER.CONST>
1

>  <SCORE.INTER.POLAR>
-7.48511

>  <SCORE.INTER.ROT>
9

>  <SCORE.INTER.SOLV>
31.7799

>  <SCORE.INTER.VDW>
-29.9266

>  <SCORE.INTER.norm>
-1.2387

>  <SCORE.INTRA>
3.46686

>  <SCORE.INTRA.DIHEDRAL>
-2.73792

>  <SCORE.INTRA.DIHEDRAL.0>
29.7866

>  <SCORE.INTRA.POLAR>
-0.596605

>  <SCORE.INTRA.POLAR.0>
-0.984091

>  <SCORE.INTRA.REPUL>
-0.274115

>  <SCORE.INTRA.REPUL.0>
0.274115

>  <SCORE.INTRA.SOLV>
4.6699

>  <SCORE.INTRA.SOLV.lig_0>
-152.978

>  <SCORE.INTRA.VDW>
5.89991

>  <SCORE.INTRA.VDW.0>
-6.10719

>  <SCORE.INTRA.norm>
0.0825444

>  <SCORE.RESTR>
1.31676

>  <SCORE.RESTR.CAVITY>
1.31676

>  <SCORE.RESTR.norm>
0.0313515

>  <SCORE.SYSTEM>
0

>  <SCORE.SYSTEM.CONST>
0

>  <SCORE.SYSTEM.DIHEDRAL>
0

>  <SCORE.SYSTEM.SOLV>
0

>  <SCORE.SYSTEM.norm>
0

>  <SCORE.heavy>
42

>  <SCORE.norm>
-1.12481

>  <RMSD>
1.492

$$$$
1pbr
 OpenBabel11021811403D
libRbt.so/2013.1/901 2013/11/27
 42 45  0  0  0  0  0  0  0  0999 V2000
    2.2287   -0.4791   44.3354 C   0  0  2  0  0  0  0  0  0  0  0  0
    2.0763   -1.9084   44.5284 O   0  0  0  0  0  0  0  0  0  0  0  0
    3.5571    0.0370   45.0041 C   0  0  2  0  0  0  0  0  0  0  0  0
    4.7294   -0.8567   44.8158 N   0  3  0  0  0  0  0  0  0  0  0  0
    3.3933    0.2186   46.5249 C   0  0  1  0  0  0  0  0  0  0  0  0
    4.5020    0.9289   47.0721 O   0  0  0  0  0  0  0  0  0  0  0  0
    2.0936    0.9683   46.8542 C   0  0  2  0  0  0  0  0  0  0  0  0
    1.9809    1.1650   48.2602 O   0  0  0  0  0  0  0  0  0  0  0  0
    0.8719    0.2331   46.2598 C   0  0  2  0  0  0  0  0  0  0  0  0
    1.0496    0.2157   44.8275 O   0  0  0  0  0  0  0  0  0  0  0  0
   -0.4689    0.9016   46.5586 C   0  0  0  0  0  0  0  0  0  0  0  0
   -1.0225    0.4236   47.7775 O   0  0  0  0  0  0  0  0  0  0  0  0
    0.1906   -5.2586   42.6769 C   0  0  1  0  0  0  0  0  0  0  0  0
   -0.6535   -6.1774   41.8913 N   0  3  0  0  0  0  0  0  0  0  0  0
    1.1272   -4.3997   41.7743 C   0  0  2  0  0  0  0  0  0  0  0  0
    1.9804   -5.2401   41.0007 O   0  0  0  0  0  0  0  0  0  0  0  0
    2.0165   -3.4478   42.6266 C   0  0  1  0  0  0  0  0  0  0  0  0
    2.7410   -2.5571   41.7272 O   0  0  0  0  0  0  0  0  0  0  0  0
    1.1724   -2.5975   43.6314 C   0  0  1  0  0  0  0  0  0  0  0  0
    0.1985   -3.4649   44.4915 C   0  0  1  0  0  0  0  0  0  0  0  0
   -0.6558   -2.6251   45.3600 N   0  3  0  0  0  0  0  0  0  0  0  0
   -0.6922   -4.3509   43.5826 C   0  0  0  0  0  0  0  0  0  0  0  0
    4.0891   -2.9087   41.2792 C   0  0  1  0  0  0  0  0  0  0  0  0
    4.2357   -2.5123   39.7982 C   0  0  2  0  0  0  0  0  0  0  0  0
    5.2295   -3.3032   39.1524 O   0  0  0  0  0  0  0  0  0  0  0  0
    4.6816   -1.0539   39.9820 C   0  0  1  0  0  0  0  0  0  0  0  0
    5.6835   -1.1613   41.1197 C   0  0  2  0  0  0  0  0  0  0  0  0
    5.0690   -2.1154   41.9721 O   0  0  0  0  0  0  0  0  0  0  0  0
    5.9481    0.1431   41.8827 C   0  0  0  0  0  0  0  0  0  0  0  0
    7.1320    0.7596   41.3981 O   0  0  0  0  0  0  0  0  0  0  0  0
    3.5619    1.7343   35.4990 C   0  0  1  0  0  0  0  0  0  0  0  0
    4.8064    2.0094   34.8586 O   0  0  0  0  0  0  0  0  0  0  0  0
    3.3260    0.1983   35.5288 C   0  0  2  0  0  0  0  0  0  0  0  0
    1.9511   -0.0439   35.8178 O   0  0  0  0  0  0  0  0  0  0  0  0
    4.2025   -0.5943   36.5532 C   0  0  1  0  0  0  0  0  0  0  0  0
    5.5193   -0.9181   35.9614 N   0  3  0  0  0  0  0  0  0  0  0  0
    4.3205    0.1492   37.9097 C   0  0  1  0  0  0  0  0  0  0  0  0
    5.2897   -0.4297   38.8178 O   0  0  0  0  0  0  0  0  0  0  0  0
    3.5670    2.2913   36.9448 C   0  0  1  0  0  0  0  0  0  0  0  0
    4.5893    1.5750   37.6902 O   0  0  0  0  0  0  0  0  0  0  0  0
    3.7907    3.8130   37.0254 C   0  0  0  0  0  0  0  0  0  0  0  0
    2.8327    4.5745   36.2003 N   0  3  0  0  0  0  0  0  0  0  0  0
  1  2  1  1  0  0  0
  1  3  1  0  0  0  0
  1 10  1  0  0  0  0
  3  4  1  1  0  0  0
  3  5  1  0  0  0  0
  5  6  1  6  0  0  0
  5  7  1  0  0  0  0
  7  8  1  1  0  0  0
  7  9  1  0  0  0  0
  9 10  1  0  0  0  0
  9 11  1  6  0  0  0
 11 12  1  0  0  0  0
 13 14  1  6  0  0  0
 13 15  1  0  0  0  0
 13 22  1  0  0  0  0
 15 16  1  1  0  0  0
 15 17  1  0  0  0  0
 17 18  1  6  0  0  0
 17 19  1  0  0  0  0
 19  2  1  1  0  0  0
 19 20  1  0  0  0  0
 20 21  1  6  0  0  0
 20 22  1  0  0  0  0
 23 18  1  1  0  0  0
 23 24  1  0  0  0  0
 23 28  1  0  0  0  0
 24 25  1  1  0  0  0
 24 26  1  0  0  0  0
 26 27  1  0  0  0  0
 26 38  1  6  0  0  0
 27 28  1  0  0  0  0
 27 29  1  1  0  0  0
 29 30  1  0  0  0  0
 31 32  1  1  0  0  0
 31 33  1  0  0  0  0
 31 39  1  0  0  0  0
 33 34  1  1  0  0  0
 33 35  1  0  0  0  0
 35 36  1  6  0  0  0
 35 37  1  0  0  0  0
 37 38  1  1  0  0  0
 37 40  1  0  0  0  0
 39 40  1  0  0  0  0
 39 41  1  6  0  0  0
 41 42  1  0  0  0  0
M  CHG  5   4   1  14   1  21   1  36   1  42   1
M  END
>  <CHROM.1>
-160.37885801,107.13823785,156.54438905,-61.89177149,167.95181087,-89.27801641
57.14726908,77.99880818,66.86216747,-93.63558209,140.97197034,-77.51409920
-175.26330806,85.83169016,-97.93689581,169.67119422,48.19199253,65.86332657
22.01991760,-111.09781793,54.10421751,-80.37447323,2.92396695,-0.83995762
41.58639426,-2.37285197,-1.11499248,-2.09043869

>  <Name>
1pbr

>  <RI>
0

>  <Rbt.Current_Directory>
/home/itssahil/PROJECTS/Mol_Feturizer/New_Systems/rnas/1pbr

>  <Rbt.Executable>
rbdock ($Id: //depot/dev/client3/rdock/2013.1/src/exe/rbdock.cxx#4 $)

>  <Rbt.Library>
libRbt.so (2013.1, Build901 2013/11/27)

>  <Rbt.Parameter_File>
/export/apps/rDock/src/rDock_2013.1_src/data/scripts/dock_solv.prm

>  <Rbt.Receptor>
prm/pocket_docking_6.prm

>  <SCORE>
-45.7744

>  <SCORE.INTER>
-50.2431

>  <SCORE.INTER.CONST>
1

>  <SCORE.INTER.POLAR>
-5.74379

>  <SCORE.INTER.ROT>
9

>  <SCORE.INTER.SOLV>
27.6851

>  <SCORE.INTER.VDW>
-33.1778

>  <SCORE.INTER.norm>
-1.19626

>  <SCORE.INTRA>
4.4687

>  <SCORE.INTRA.DIHEDRAL>
13.034

>  <SCORE.INTRA.DIHEDRAL.0>
29.7866

>  <SCORE.INTRA.POLAR>
-0.260267

>  <SCORE.INTRA.POLAR.0>
-0.984091

>  <SCORE.INTRA.REPUL>
-0.274115

>  <SCORE.INTRA.REPUL.0>
0.274115

>  <SCORE.INTRA.SOLV>
2.87263

>  <SCORE.INTRA.SOLV.lig_0>
-152.978

>  <SCORE.INTRA.VDW>
-1.22915

>  <SCORE.INTRA.VDW.0>
-6.10719

>  <SCORE.INTRA.norm>
0.106398

>  <SCORE.RESTR>
0

>  <SCORE.RESTR.CAVITY>
0

>  <SCORE.RESTR.norm>
0

>  <SCORE.SYSTEM>
0

>  <SCORE.SYSTEM.CONST>
0

>  <SCORE.SYSTEM.DIHEDRAL>
0

>  <SCORE.SYSTEM.SOLV>
0

>  <SCORE.SYSTEM.norm>
0

>  <SCORE.heavy>
42

>  <SCORE.norm>
-1.08987

>  <RMSD>
1.512

$$$$
1pbr
 OpenBabel11021811403D
libRbt.so/2013.1/901 2013/11/27
 42 45  0  0  0  0  0  0  0  0999 V2000
    2.5242   -1.0349   44.5081 C   0  0  2  0  0  0  0  0  0  0  0  0
    2.5497   -2.4519   44.8160 O   0  0  0  0  0  0  0  0  0  0  0  0
    3.8065   -0.3169   45.0725 C   0  0  2  0  0  0  0  0  0  0  0  0
    5.0684   -1.0819   44.8977 N   0  3  0  0  0  0  0  0  0  0  0  0
    3.6798   -0.0330   46.5811 C   0  0  1  0  0  0  0  0  0  0  0  0
    4.7164    0.8422   47.0201 O   0  0  0  0  0  0  0  0  0  0  0  0
    2.3139    0.5862   46.9134 C   0  0  2  0  0  0  0  0  0  0  0  0
    2.2319    0.8817   48.3041 O   0  0  0  0  0  0  0  0  0  0  0  0
    1.1663   -0.3304   46.4345 C   0  0  2  0  0  0  0  0  0  0  0  0
    1.2905   -0.4430   45.0009 O   0  0  0  0  0  0  0  0  0  0  0  0
   -0.2320    0.2011   46.7444 C   0  0  0  0  0  0  0  0  0  0  0  0
   -0.4821    1.4222   46.0610 O   0  0  0  0  0  0  0  0  0  0  0  0
    2.9589   -5.7685   42.1626 C   0  0  1  0  0  0  0  0  0  0  0  0
    2.7837   -6.8309   41.1553 N   0  3  0  0  0  0  0  0  0  0  0  0
    3.0227   -4.3500   41.5195 C   0  0  2  0  0  0  0  0  0  0  0  0
    4.1041   -4.2715   40.5938 O   0  0  0  0  0  0  0  0  0  0  0  0
    3.2205   -3.2476   42.6008 C   0  0  1  0  0  0  0  0  0  0  0  0
    3.1019   -1.9418   41.9621 O   0  0  0  0  0  0  0  0  0  0  0  0
    2.1701   -3.3596   43.7536 C   0  0  1  0  0  0  0  0  0  0  0  0
    2.0775   -4.7997   44.3522 C   0  0  1  0  0  0  0  0  0  0  0  0
    1.0079   -4.8985   45.3700 N   0  3  0  0  0  0  0  0  0  0  0  0
    1.8298   -5.8426   43.2317 C   0  0  0  0  0  0  0  0  0  0  0  0
    4.3039   -1.1631   41.6611 C   0  0  1  0  0  0  0  0  0  0  0  0
    4.6747   -1.3803   40.1821 C   0  0  2  0  0  0  0  0  0  0  0  0
    6.0661   -1.1624   39.9658 O   0  0  0  0  0  0  0  0  0  0  0  0
    3.8085   -0.2791   39.5522 C   0  0  1  0  0  0  0  0  0  0  0  0
    4.0225    0.8867   40.5033 C   0  0  2  0  0  0  0  0  0  0  0  0
    4.0276    0.2446   41.7691 O   0  0  0  0  0  0  0  0  0  0  0  0
    2.9393    1.9723   40.4605 C   0  0  0  0  0  0  0  0  0  0  0  0
    1.6693    1.4051   40.7463 O   0  0  0  0  0  0  0  0  0  0  0  0
    1.2677    1.9759   35.5848 C   0  0  1  0  0  0  0  0  0  0  0  0
    1.9903    3.1980   35.4462 O   0  0  0  0  0  0  0  0  0  0  0  0
    2.1013    0.8128   34.9783 C   0  0  2  0  0  0  0  0  0  0  0  0
    1.2412   -0.3072   34.7819 O   0  0  0  0  0  0  0  0  0  0  0  0
    3.3334    0.3579   35.8273 C   0  0  1  0  0  0  0  0  0  0  0  0
    4.5063    1.2088   35.5285 N   0  3  0  0  0  0  0  0  0  0  0  0
    3.0026    0.3020   37.3420 C   0  0  1  0  0  0  0  0  0  0  0  0
    4.1581    0.0959   38.1914 O   0  0  0  0  0  0  0  0  0  0  0  0
    0.9791    1.6892   37.0798 C   0  0  1  0  0  0  0  0  0  0  0  0
    2.2566    1.4988   37.7474 O   0  0  0  0  0  0  0  0  0  0  0  0
    0.1514    2.7856   37.7761 C   0  0  0  0  0  0  0  0  0  0  0  0
    0.7918    4.1137   37.7070 N   0  3  0  0  0  0  0  0  0  0  0  0
  1  2  1  1  0  0  0
  1  3  1  0  0  0  0
  1 10  1  0  0  0  0
  3  4  1  1  0  0  0
  3  5  1  0  0  0  0
  5  6  1  6  0  0  0
  5  7  1  0  0  0  0
  7  8  1  1  0  0  0
  7  9  1  0  0  0  0
  9 10  1  0  0  0  0
  9 11  1  6  0  0  0
 11 12  1  0  0  0  0
 13 14  1  6  0  0  0
 13 15  1  0  0  0  0
 13 22  1  0  0  0  0
 15 16  1  6  0  0  0
 15 17  1  0  0  0  0
 17 18  1  6  0  0  0
 17 19  1  0  0  0  0
 19  2  1  1  0  0  0
 19 20  1  0  0  0  0
 20 21  1  1  0  0  0
 20 22  1  0  0  0  0
 23 18  1  6  0  0  0
 23 24  1  0  0  0  0
 23 28  1  0  0  0  0
 24 25  1  1  0  0  0
 24 26  1  0  0  0  0
 26 27  1  0  0  0  0
 26 38  1  6  0  0  0
 27 28  1  0  0  0  0
 27 29  1  1  0  0  0
 29 30  1  0  0  0  0
 31 32  1  1  0  0  0
 31 33  1  0  0  0  0
 31 39  1  0  0  0  0
 33 34  1  1  0  0  0
 33 35  1  0  0  0  0
 35 36  1  1  0  0  0
 35 37  1  0  0  0  0
 37 38  1  1  0  0  0
 37 40  1  0  0  0  0
 39 40  1  0  0  0  0
 39 41  1  1  0  0  0
 41 42  1  0  0  0  0
M  CHG  5   4   1  14   1  21   1  36   1  42   1
M  END
>  <CHROM.1>
-136.21235232,64.83477560,155.56833886,-165.92497566,178.10709538,63.53179876
-178.98288197,73.83128797,-63.20386464,-102.57180761,98.02950513,78.15872215
179.35415305,138.60978735,57.82189717,163.40009117,153.02570338,57.53007772
161.88841283,-165.79030443,-57.85803417,-138.38449550,2.67208878,-0.65223291
41.47036587,1.57926411,-1.35002670,1.90746948

>  <Name>
1pbr

>  <RI>
0

>  <Rbt.Current_Directory>
/home/itssahil/PROJECTS/Mol_Feturizer/New_Systems/rnas/1pbr

>  <Rbt.Executable>
rbdock ($Id: //depot/dev/client3/rdock/2013.1/src/exe/rbdock.cxx#4 $)

>  <Rbt.Library>
libRbt.so (2013.1, Build901 2013/11/27)

>  <Rbt.Parameter_File>
/export/apps/rDock/src/rDock_2013.1_src/data/scripts/dock_solv.prm

>  <Rbt.Receptor>
prm/pocket_docking_3.prm

>  <SCORE>
-31.9844

>  <SCORE.INTER>
-37.9032

>  <SCORE.INTER.CONST>
1

>  <SCORE.INTER.POLAR>
-4.86117

>  <SCORE.INTER.ROT>
9

>  <SCORE.INTER.SOLV>
23.6871

>  <SCORE.INTER.VDW>
-26.5606

>  <SCORE.INTER.norm>
-0.902458

>  <SCORE.INTRA>
5.91109

>  <SCORE.INTRA.DIHEDRAL>
6.05161

>  <SCORE.INTRA.DIHEDRAL.0>
29.7866

>  <SCORE.INTRA.POLAR>
0.749024

>  <SCORE.INTRA.POLAR.0>
-0.984091

>  <SCORE.INTRA.REPUL>
-0.184724

>  <SCORE.INTRA.REPUL.0>
0.274115

>  <SCORE.INTRA.SOLV>
2.08576

>  <SCORE.INTRA.SOLV.lig_0>
-152.978

>  <SCORE.INTRA.VDW>
0.219341

>  <SCORE.INTRA.VDW.0>
-6.10719

>  <SCORE.INTRA.norm>
0.14074

>  <SCORE.RESTR>
0.00769772

>  <SCORE.RESTR.CAVITY>
0.00769772

>  <SCORE.RESTR.norm>
0.000183279

>  <SCORE.SYSTEM>
0

>  <SCORE.SYSTEM.CONST>
0

>  <SCORE.SYSTEM.DIHEDRAL>
0

>  <SCORE.SYSTEM.SOLV>
0

>  <SCORE.SYSTEM.norm>
0

>  <SCORE.heavy>
42

>  <SCORE.norm>
-0.761534

>  <RMSD>
1.602

$$$$
1pbr
 OpenBabel11021811403D
libRbt.so/2013.1/901 2013/11/27
 42 45  0  0  0  0  0  0  0  0999 V2000
    1.4851   -0.5858   44.6536 C   0  0  2  0  0  0  0  0  0  0  0  0
    1.0349   -1.9382   44.9212 O   0  0  0  0  0  0  0  0  0  0  0  0
    2.8400   -0.2898   45.3986 C   0  0  2  0  0  0  0  0  0  0  0  0
    3.8186   -1.4077   45.3653 N   0  3  0  0  0  0  0  0  0  0  0  0
    2.6098    0.0374   46.8860 C   0  0  1  0  0  0  0  0  0  0  0  0
    3.7976    0.5569   47.4797 O   0  0  0  0  0  0  0  0  0  0  0  0
    1.4678    1.0504   47.0579 C   0  0  2  0  0  0  0  0  0  0  0  0
    1.2988    1.3735   48.4346 O   0  0  0  0  0  0  0  0  0  0  0  0
    0.1679    0.5250   46.4093 C   0  0  2  0  0  0  0  0  0  0  0  0
    0.4385    0.3625   45.0009 O   0  0  0  0  0  0  0  0  0  0  0  0
   -1.0285    1.4643   46.5523 C   0  0  0  0  0  0  0  0  0  0  0  0
   -1.9979    1.2213   45.5415 O   0  0  0  0  0  0  0  0  0  0  0  0
   -0.1156   -5.1134   42.3131 C   0  0  1  0  0  0  0  0  0  0  0  0
   -0.7621   -5.9965   41.3250 N   0  3  0  0  0  0  0  0  0  0  0  0
    0.5546   -3.8735   41.6475 C   0  0  2  0  0  0  0  0  0  0  0  0
    1.5406   -4.2872   40.7044 O   0  0  0  0  0  0  0  0  0  0  0  0
    1.2406   -2.9641   42.7086 C   0  0  1  0  0  0  0  0  0  0  0  0
    1.6975   -1.7447   42.0518 O   0  0  0  0  0  0  0  0  0  0  0  0
    0.2722   -2.5926   43.8787 C   0  0  1  0  0  0  0  0  0  0  0  0
   -0.4343   -3.8395   44.5006 C   0  0  1  0  0  0  0  0  0  0  0  0
   -1.4168   -3.4486   45.5358 N   0  3  0  0  0  0  0  0  0  0  0  0
   -1.1396   -4.6738   43.4001 C   0  0  0  0  0  0  0  0  0  0  0  0
    3.1132   -1.5796   41.7193 C   0  0  1  0  0  0  0  0  0  0  0  0
    3.3780   -2.2346   40.3508 C   0  0  2  0  0  0  0  0  0  0  0  0
    4.7419   -2.6277   40.2266 O   0  0  0  0  0  0  0  0  0  0  0  0
    3.0302   -1.0452   39.4430 C   0  0  1  0  0  0  0  0  0  0  0  0
    3.6854    0.1190   40.1675 C   0  0  2  0  0  0  0  0  0  0  0  0
    3.4228   -0.1878   41.5282 O   0  0  0  0  0  0  0  0  0  0  0  0
    3.1279    1.5044   39.8161 C   0  0  0  0  0  0  0  0  0  0  0  0
    1.8054    1.6386   40.3155 O   0  0  0  0  0  0  0  0  0  0  0  0
    2.8749    1.8603   35.0243 C   0  0  1  0  0  0  0  0  0  0  0  0
    4.2366    1.9105   34.6023 O   0  0  0  0  0  0  0  0  0  0  0  0
    2.2997    0.4443   34.7419 C   0  0  2  0  0  0  0  0  0  0  0  0
    0.8773    0.5105   34.8114 O   0  0  0  0  0  0  0  0  0  0  0  0
    2.7982   -0.6850   35.7022 C   0  0  1  0  0  0  0  0  0  0  0  0
    4.0873   -1.2332   35.2260 N   0  3  0  0  0  0  0  0  0  0  0  0
    2.8575   -0.2056   37.1764 C   0  0  1  0  0  0  0  0  0  0  0  0
    3.5118   -1.1360   38.0738 O   0  0  0  0  0  0  0  0  0  0  0  0
    2.7696    2.1759   36.5376 C   0  0  1  0  0  0  0  0  0  0  0  0
    3.4706    1.1252   37.2575 O   0  0  0  0  0  0  0  0  0  0  0  0
    3.3120    3.5648   36.9235 C   0  0  0  0  0  0  0  0  0  0  0  0
    2.6159    4.6630   36.2250 N   0  3  0  0  0  0  0  0  0  0  0  0
  1  2  1  1  0  0  0
  1  3  1  0  0  0  0
  1 10  1  0  0  0  0
  3  4  1  1  0  0  0
  3  5  1  0  0  0  0
  5  6  1  6  0  0  0
  5  7  1  0  0  0  0
  7  8  1  1  0  0  0
  7  9  1  0  0  0  0
  9 10  1  0  0  0  0
  9 11  1  6  0  0  0
 11 12  1  0  0  0  0
 13 14  1  6  0  0  0
 13 15  1  0  0  0  0
 13 22  1  0  0  0  0
 15 16  1  6  0  0  0
 15 17  1  0  0  0  0
 17 18  1  6  0  0  0
 17 19  1  0  0  0  0
 19  2  1  1  0  0  0
 19 20  1  0  0  0  0
 20 21  1  1  0  0  0
 20 22  1  0  0  0  0
 23 18  1  6  0  0  0
 23 24  1  0  0  0  0
 23 28  1  0  0  0  0
 24 25  1  1  0  0  0
 24 26  1  0  0  0  0
 26 27  1  0  0  0  0
 26 38  1  6  0  0  0
 27 28  1  0  0  0  0
 27 29  1  6  0  0  0
 29 30  1  0  0  0  0
 31 32  1  1  0  0  0
 31 33  1  0  0  0  0
 31 39  1  0  0  0  0
 33 34  1  1  0  0  0
 33 35  1  0  0  0  0
 35 36  1  6  0  0  0
 35 37  1  0  0  0  0
 37 38  1  1  0  0  0
 37 40  1  0  0  0  0
 39 40  1  0  0  0  0
 39 41  1  6  0  0  0
 41 42  1  0  0  0  0
M  CHG  5   4   1  14   1  21   1  36   1  42   1
M  END
>  <CHROM.1>
-149.49790437,72.55514352,175.92451966,-58.79421992,-60.23056460,156.91155944
-177.71970984,-16.13847882,54.57441784,-102.49500058,85.69663946,-124.89251371
-57.50623442,163.63884519,68.77170529,-59.50969207,-67.81724762,170.90976491
-91.38876723,-151.95974396,58.97156031,42.48999534,1.89513732,-0.64418588
41.36219046,-2.36059680,-1.23740603,-2.12397563

>  <Name>
1pbr

>  <RI>
0

>  <Rbt.Current_Directory>
/home/itssahil/PROJECTS/Mol_Feturizer/New_Systems/rnas/1pbr

>  <Rbt.Executable>
rbdock ($Id: //depot/dev/client3/rdock/2013.1/src/exe/rbdock.cxx#4 $)

>  <Rbt.Library>
libRbt.so (2013.1, Build901 2013/11/27)

>  <Rbt.Parameter_File>
/export/apps/rDock/src/rDock_2013.1_src/data/scripts/dock_solv.prm

>  <Rbt.Receptor>
prm/pocket_docking_3.prm

>  <SCORE>
-54.2356

>  <SCORE.INTER>
-60.3273

>  <SCORE.INTER.CONST>
1

>  <SCORE.INTER.POLAR>
-7.19236

>  <SCORE.INTER.ROT>
9

>  <SCORE.INTER.SOLV>
35.1492

>  <SCORE.INTER.VDW>
-37.56

>  <SCORE.INTER.norm>
-1.43636

>  <SCORE.INTRA>
6.09164

>  <SCORE.INTRA.DIHEDRAL>
0.40008

>  <SCORE.INTRA.DIHEDRAL.0>
29.7866

>  <SCORE.INTRA.POLAR>
0.891611

>  <SCORE.INTRA.POLAR.0>
-0.984091

>  <SCORE.INTRA.REPUL>
-0.274115

>  <SCORE.INTRA.REPUL.0>
0.274115

>  <SCORE.INTRA.SOLV>
-0.98556

>  <SCORE.INTRA.SOLV.lig_0>
-152.978

>  <SCORE.INTRA.VDW>
4.72348

>  <SCORE.INTRA.VDW.0>
-6.10719

>  <SCORE.INTRA.norm>
0.145039

>  <SCORE.RESTR>
0

>  <SCORE.RESTR.CAVITY>
0

>  <SCORE.RESTR.norm>
0

>  <SCORE.SYSTEM>
0

>  <SCORE.SYSTEM.CONST>
0

>  <SCORE.SYSTEM.DIHEDRAL>
0

>  <SCORE.SYSTEM.SOLV>
0

>  <SCORE.SYSTEM.norm>
0

>  <SCORE.heavy>
42

>  <SCORE.norm>
-1.29132

>  <RMSD>
1.650

$$$$
1pbr
 OpenBabel11021811403D
libRbt.so/2013.1/901 2013/11/27
 42 45  0  0  0  0  0  0  0  0999 V2000
    1.8550   -0.5902   44.1039 C   0  0  2  0  0  0  0  0  0  0  0  0
    1.5903   -1.9985   44.3273 O   0  0  0  0  0  0  0  0  0  0  0  0
    3.2120   -0.1625   44.7775 C   0  0  2  0  0  0  0  0  0  0  0  0
    4.3135   -1.1481   44.6244 N   0  3  0  0  0  0  0  0  0  0  0  0
    3.0461    0.0669   46.2916 C   0  0  1  0  0  0  0  0  0  0  0  0
    4.2005    0.7023   46.8367 O   0  0  0  0  0  0  0  0  0  0  0  0
    1.8049    0.9222   46.5875 C   0  0  2  0  0  0  0  0  0  0  0  0
    1.6925    1.1600   47.9871 O   0  0  0  0  0  0  0  0  0  0  0  0
    0.5365    0.2696   45.9944 C   0  0  2  0  0  0  0  0  0  0  0  0
    0.7279    0.2049   44.5652 O   0  0  0  0  0  0  0  0  0  0  0  0
   -0.7518    1.0463   46.2610 C   0  0  0  0  0  0  0  0  0  0  0  0
   -0.9969    1.1743   47.6553 O   0  0  0  0  0  0  0  0  0  0  0  0
    0.2964   -5.3483   42.0224 C   0  0  1  0  0  0  0  0  0  0  0  0
   -0.3605   -6.2785   41.0859 N   0  3  0  0  0  0  0  0  0  0  0  0
    1.1810   -4.2966   41.2869 C   0  0  2  0  0  0  0  0  0  0  0  0
    2.1914   -4.9461   40.5188 O   0  0  0  0  0  0  0  0  0  0  0  0
    1.8734   -3.3350   42.2966 C   0  0  1  0  0  0  0  0  0  0  0  0
    2.5439   -2.2778   41.5484 O   0  0  0  0  0  0  0  0  0  0  0  0
    0.8532   -2.6978   43.2957 C   0  0  1  0  0  0  0  0  0  0  0  0
   -0.0639   -3.7582   43.9850 C   0  0  1  0  0  0  0  0  0  0  0  0
   -1.0826   -3.1189   44.8471 N   0  3  0  0  0  0  0  0  0  0  0  0
   -0.7619   -4.6491   42.9250 C   0  0  0  0  0  0  0  0  0  0  0  0
    1.9726   -1.7976   40.2895 C   0  0  1  0  0  0  0  0  0  0  0  0
    2.1824   -0.2743   40.2020 C   0  0  2  0  0  0  0  0  0  0  0  0
    1.2028    0.3300   39.3620 O   0  0  0  0  0  0  0  0  0  0  0  0
    3.5815   -0.2597   39.5680 C   0  0  1  0  0  0  0  0  0  0  0  0
    3.4692   -1.3427   38.5078 C   0  0  2  0  0  0  0  0  0  0  0  0
    2.7022   -2.3351   39.1722 O   0  0  0  0  0  0  0  0  0  0  0  0
    4.8034   -1.9307   38.0305 C   0  0  0  0  0  0  0  0  0  0  0  0
    5.6365   -0.8993   37.5221 O   0  0  0  0  0  0  0  0  0  0  0  0
    1.7818    3.3500   36.0924 C   0  0  1  0  0  0  0  0  0  0  0  0
    2.1159    4.6122   36.6669 O   0  0  0  0  0  0  0  0  0  0  0  0
    3.0762    2.6571   35.5823 C   0  0  2  0  0  0  0  0  0  0  0  0
    2.7073    1.6029   34.6962 O   0  0  0  0  0  0  0  0  0  0  0  0
    4.0080    2.0756   36.6956 C   0  0  1  0  0  0  0  0  0  0  0  0
    4.9075    3.1289   37.2156 N   0  3  0  0  0  0  0  0  0  0  0  0
    3.1993    1.3699   37.8157 C   0  0  1  0  0  0  0  0  0  0  0  0
    3.9900    1.0027   38.9729 O   0  0  0  0  0  0  0  0  0  0  0  0
    1.0850    2.4492   37.1430 C   0  0  1  0  0  0  0  0  0  0  0  0
    2.0434    2.1863   38.2042 O   0  0  0  0  0  0  0  0  0  0  0  0
   -0.2161    3.0464   37.7110 C   0  0  0  0  0  0  0  0  0  0  0  0
   -1.1012    2.0247   38.3035 N   0  3  0  0  0  0  0  0  0  0  0  0
  1  2  1  1  0  0  0
  1  3  1  0  0  0  0
  1 10  1  0  0  0  0
  3  4  1  1  0  0  0
  3  5  1  0  0  0  0
  5  6  1  6  0  0  0
  5  7  1  0  0  0  0
  7  8  1  1  0  0  0
  7  9  1  0  0  0  0
  9 10  1  0  0  0  0
  9 11  1  6  0  0  0
 11 12  1  0  0  0  0
 13 14  1  6  0  0  0
 13 15  1  0  0  0  0
 13 22  1  0  0  0  0
 15 16  1  1  0  0  0
 15 17  1  0  0  0  0
 17 18  1  6  0  0  0
 17 19  1  0  0  0  0
 19  2  1  1  0  0  0
 19 20  1  0  0  0  0
 20 21  1  6  0  0  0
 20 22  1  0  0  0  0
 23 18  1  1  0  0  0
 23 24  1  0  0  0  0
 23 28  1  0  0  0  0
 24 25  1  6  0  0  0
 24 26  1  0  0  0  0
 26 27  1  0  0  0  0
 26 38  1  6  0  0  0
 27 28  1  0  0  0  0
 27 29  1  1  0  0  0
 29 30  1  0  0  0  0
 31 32  1  1  0  0  0
 31 33  1  0  0  0  0
 31 39  1  0  0  0  0
 33 34  1  6  0  0  0
 33 35  1  0  0  0  0
 35 36  1  1  0  0  0
 35 37  1  0  0  0  0
 37 38  1  1  0  0  0
 37 40  1  0  0  0  0
 39 40  1  0  0  0  0
 39 41  1  1  0  0  0
 41 42  1  0  0  0  0
M  CHG  5   4   1  14   1  21   1  36   1  42   1
M  END
>  <CHROM.1>
-148.94991919,92.27904302,-164.48575613,-172.33694582,-60.43750429,-60.24544396
-64.61095763,-165.83748439,173.94978651,32.98635517,142.23309601,-142.64832266
177.45744958,-66.11990447,-57.43666022,62.78037733,179.01924954,59.26425520
-52.97121529,-143.68060612,159.11030993,155.47825555,1.93183974,-0.40854363
41.23744102,-2.84542648,-1.36496748,-2.48450824

>  <Name>
1pbr

>  <RI>
0

>  <Rbt.Current_Directory>
/home/itssahil/PROJECTS/Mol_Feturizer/New_Systems/rnas/1pbr

>  <Rbt.Executable>
rbdock ($Id: //depot/dev/client3/rdock/2013.1/src/exe/rbdock.cxx#4 $)

>  <Rbt.Library>
libRbt.so (2013.1, Build901 2013/11/27)

>  <Rbt.Parameter_File>
/export/apps/rDock/src/rDock_2013.1_src/data/scripts/dock_solv.prm

>  <Rbt.Receptor>
prm/pocket_docking_3.prm

>  <SCORE>
-49.1342

>  <SCORE.INTER>
-45.313

>  <SCORE.INTER.CONST>
1

>  <SCORE.INTER.POLAR>
-5.22849

>  <SCORE.INTER.ROT>
9

>  <SCORE.INTER.SOLV>
30.5916

>  <SCORE.INTER.VDW>
-32.5776

>  <SCORE.INTER.norm>
-1.07888

>  <SCORE.INTRA>
-3.82122

>  <SCORE.INTRA.DIHEDRAL>
-1.65839

>  <SCORE.INTRA.DIHEDRAL.0>
29.7866

>  <SCORE.INTRA.POLAR>
-1.80975

>  <SCORE.INTRA.POLAR.0>
-0.984091

>  <SCORE.INTRA.REPUL>
-0.274115

>  <SCORE.INTRA.REPUL.0>
0.274115

>  <SCORE.INTRA.SOLV>
0.334352

>  <SCORE.INTRA.SOLV.lig_0>
-152.978

>  <SCORE.INTRA.VDW>
4.36452

>  <SCORE.INTRA.VDW.0>
-6.10719

>  <SCORE.INTRA.norm>
-0.0909815

>  <SCORE.RESTR>
0

>  <SCORE.RESTR.CAVITY>
0

>  <SCORE.RESTR.norm>
0

>  <SCORE.SYSTEM>
0

>  <SCORE.SYSTEM.CONST>
0

>  <SCORE.SYSTEM.DIHEDRAL>
0

>  <SCORE.SYSTEM.SOLV>
0

>  <SCORE.SYSTEM.norm>
0

>  <SCORE.heavy>
42

>  <SCORE.norm>
-1.16986

>  <RMSD>
1.786

$$$$
1pbr
 OpenBabel11021811403D
libRbt.so/2013.1/901 2013/11/27
 42 45  0  0  0  0  0  0  0  0999 V2000
    1.5774   -0.3810   44.4299 C   0  0  2  0  0  0  0  0  0  0  0  0
    1.6818   -1.8246   44.3400 O   0  0  0  0  0  0  0  0  0  0  0  0
    2.9336    0.2482   44.9229 C   0  0  2  0  0  0  0  0  0  0  0  0
    4.1494   -0.3625   44.3253 N   0  3  0  0  0  0  0  0  0  0  0  0
    3.0946    0.1239   46.4497 C   0  0  1  0  0  0  0  0  0  0  0  0
    4.1835    0.9210   46.9103 O   0  0  0  0  0  0  0  0  0  0  0  0
    1.8090    0.5467   47.1765 C   0  0  2  0  0  0  0  0  0  0  0  0
    1.9911    0.4669   48.5867 O   0  0  0  0  0  0  0  0  0  0  0  0
    0.6042   -0.2873   46.6872 C   0  0  2  0  0  0  0  0  0  0  0  0
    0.4528   -0.0174   45.2774 O   0  0  0  0  0  0  0  0  0  0  0  0
   -0.7162    0.0547   47.3754 C   0  0  0  0  0  0  0  0  0  0  0  0
   -1.0343    1.4318   47.2241 O   0  0  0  0  0  0  0  0  0  0  0  0
    0.0944   -5.0897   42.0978 C   0  0  1  0  0  0  0  0  0  0  0  0
   -0.6309   -5.9735   41.1668 N   0  3  0  0  0  0  0  0  0  0  0  0
    1.1217   -4.1751   41.3643 C   0  0  2  0  0  0  0  0  0  0  0  0
    2.0777   -4.9649   40.6609 O   0  0  0  0  0  0  0  0  0  0  0  0
    1.8830   -3.2613   42.3688 C   0  0  1  0  0  0  0  0  0  0  0  0
    2.6989   -2.3172   41.6137 O   0  0  0  0  0  0  0  0  0  0  0  0
    0.9072   -2.4737   43.3030 C   0  0  1  0  0  0  0  0  0  0  0  0
   -0.1516   -3.3950   43.9892 C   0  0  1  0  0  0  0  0  0  0  0  0
   -1.1205   -2.6108   44.7866 N   0  3  0  0  0  0  0  0  0  0  0  0
   -0.9084   -4.2399   42.9319 C   0  0  0  0  0  0  0  0  0  0  0  0
    2.4193   -2.0789   40.1971 C   0  0  1  0  0  0  0  0  0  0  0  0
    2.3941   -0.5592   39.9482 C   0  0  2  0  0  0  0  0  0  0  0  0
    1.5936   -0.2394   38.8137 O   0  0  0  0  0  0  0  0  0  0  0  0
    3.8909   -0.3330   39.6867 C   0  0  1  0  0  0  0  0  0  0  0  0
    4.2473   -1.5128   38.7975 C   0  0  2  0  0  0  0  0  0  0  0  0
    3.5013   -2.5678   39.3848 O   0  0  0  0  0  0  0  0  0  0  0  0
    5.7381   -1.8727   38.7559 C   0  0  0  0  0  0  0  0  0  0  0  0
    5.9083   -3.1854   38.2420 O   0  0  0  0  0  0  0  0  0  0  0  0
    2.4678    2.7845   35.5602 C   0  0  1  0  0  0  0  0  0  0  0  0
    2.8406    4.1139   35.9186 O   0  0  0  0  0  0  0  0  0  0  0  0
    3.7484    1.9364   35.3228 C   0  0  2  0  0  0  0  0  0  0  0  0
    3.3839    0.7523   34.6173 O   0  0  0  0  0  0  0  0  0  0  0  0
    4.5327    1.5315   36.6138 C   0  0  1  0  0  0  0  0  0  0  0  0
    5.4568    2.6149   37.0154 N   0  3  0  0  0  0  0  0  0  0  0  0
    3.5783    1.1013   37.7587 C   0  0  1  0  0  0  0  0  0  0  0  0
    4.2341    0.9225   39.0382 O   0  0  0  0  0  0  0  0  0  0  0  0
    1.6165    2.1436   36.6850 C   0  0  1  0  0  0  0  0  0  0  0  0
    2.4550    2.0392   37.8682 O   0  0  0  0  0  0  0  0  0  0  0  0
    0.3171    2.9096   36.9963 C   0  0  0  0  0  0  0  0  0  0  0  0
    0.5646    4.2956   37.4393 N   0  3  0  0  0  0  0  0  0  0  0  0
  1  2  1  1  0  0  0
  1  3  1  0  0  0  0
  1 10  1  0  0  0  0
  3  4  1  6  0  0  0
  3  5  1  0  0  0  0
  5  6  1  1  0  0  0
  5  7  1  0  0  0  0
  7  8  1  1  0  0  0
  7  9  1  0  0  0  0
  9 10  1  0  0  0  0
  9 11  1  1  0  0  0
 11 12  1  0  0  0  0
 13 14  1  6  0  0  0
 13 15  1  0  0  0  0
 13 22  1  0  0  0  0
 15 16  1  1  0  0  0
 15 17  1  0  0  0  0
 17 18  1  6  0  0  0
 17 19  1  0  0  0  0
 19  2  1  1  0  0  0
 19 20  1  0  0  0  0
 20 21  1  6  0  0  0
 20 22  1  0  0  0  0
 23 18  1  1  0  0  0
 23 24  1  0  0  0  0
 23 28  1  0  0  0  0
 24 25  1  6  0  0  0
 24 26  1  0  0  0  0
 26 27  1  0  0  0  0
 26 38  1  6  0  0  0
 27 28  1  0  0  0  0
 27 29  1  1  0  0  0
 29 30  1  0  0  0  0
 31 32  1  1  0  0  0
 31 33  1  0  0  0  0
 31 39  1  0  0  0  0
 33 34  1  1  0  0  0
 33 35  1  0  0  0  0
 35 36  1  1  0  0  0
 35 37  1  0  0  0  0
 37 38  1  1  0  0  0
 37 40  1  0  0  0  0
 39 40  1  0  0  0  0
 39 41  1  1  0  0  0
 41 42  1  0  0  0  0
M  CHG  5   4   1  14   1  21   1  36   1  42   1
M  END
>  <CHROM.1>
-147.56007260,121.27352810,66.10338084,-172.30703104,179.30521154,56.94422867
59.67239840,-46.75096546,68.06242625,17.68093978,132.39075956,122.24159660
169.24539170,-57.68773310,162.70449922,68.24722381,56.88046389,54.19693130
-30.08611067,-131.23558991,-60.22669788,-76.96489717,2.18777525,-0.51449301
41.24726781,-2.91706991,-1.31969545,-2.62455486

>  <Name>
1pbr

>  <RI>
0

>  <Rbt.Current_Directory>
/home/itssahil/PROJECTS/Mol_Feturizer/New_Systems/rnas/1pbr

>  <Rbt.Executable>
rbdock ($Id: //depot/dev/client3/rdock/2013.1/src/exe/rbdock.cxx#4 $)

>  <Rbt.Library>
libRbt.so (2013.1, Build901 2013/11/27)

>  <Rbt.Parameter_File>
/export/apps/rDock/src/rDock_2013.1_src/data/scripts/dock_solv.prm

>  <Rbt.Receptor>
prm/pocket_docking_2.prm

>  <SCORE>
-52.4417

>  <SCORE.INTER>
-60.6698

>  <SCORE.INTER.CONST>
1

>  <SCORE.INTER.POLAR>
-8.23163

>  <SCORE.INTER.ROT>
9

>  <SCORE.INTER.SOLV>
31.0471

>  <SCORE.INTER.VDW>
-32.9568

>  <SCORE.INTER.norm>
-1.44452

>  <SCORE.INTRA>
6.50884

>  <SCORE.INTRA.DIHEDRAL>
9.75908

>  <SCORE.INTRA.DIHEDRAL.0>
29.7866

>  <SCORE.INTRA.POLAR>
-0.85664

>  <SCORE.INTRA.POLAR.0>
-0.984091

>  <SCORE.INTRA.REPUL>
-0.274115

>  <SCORE.INTRA.REPUL.0>
0.274115

>  <SCORE.INTRA.SOLV>
2.9669

>  <SCORE.INTRA.SOLV.lig_0>
-152.978

>  <SCORE.INTRA.VDW>
4.42901

>  <SCORE.INTRA.VDW.0>
-6.10719

>  <SCORE.INTRA.norm>
0.154972

>  <SCORE.RESTR>
1.71923

>  <SCORE.RESTR.CAVITY>
1.71923

>  <SCORE.RESTR.norm>
0.040934

>  <SCORE.SYSTEM>
0

>  <SCORE.SYSTEM.CONST>
0

>  <SCORE.SYSTEM.DIHEDRAL>
0

>  <SCORE.SYSTEM.SOLV>
0

>  <SCORE.SYSTEM.norm>
0

>  <SCORE.heavy>
42

>  <SCORE.norm>
-1.24861

>  <RMSD>
1.807

$$$$
1pbr
 OpenBabel11021811403D
libRbt.so/2013.1/901 2013/11/27
 42 45  0  0  0  0  0  0  0  0999 V2000
    1.9364   -0.8270   43.9339 C   0  0  2  0  0  0  0  0  0  0  0  0
    1.3348   -2.1092   44.2456 O   0  0  0  0  0  0  0  0  0  0  0  0
    3.4956   -0.8744   44.1465 C   0  0  2  0  0  0  0  0  0  0  0  0
    4.1447   -2.1234   43.6700 N   0  3  0  0  0  0  0  0  0  0  0  0
    3.8698   -0.7345   45.6341 C   0  0  1  0  0  0  0  0  0  0  0  0
    5.2704   -0.5139   45.7850 O   0  0  0  0  0  0  0  0  0  0  0  0
    3.0974    0.4193   46.2912 C   0  0  2  0  0  0  0  0  0  0  0  0
    3.4882    0.5613   47.6533 O   0  0  0  0  0  0  0  0  0  0  0  0
    1.5740    0.2199   46.1303 C   0  0  2  0  0  0  0  0  0  0  0  0
    1.2985    0.2221   44.7135 O   0  0  0  0  0  0  0  0  0  0  0  0
    0.7264    1.3152   46.7753 C   0  0  0  0  0  0  0  0  0  0  0  0
   -0.6606    1.0226   46.6695 O   0  0  0  0  0  0  0  0  0  0  0  0
    0.1702   -5.4238   41.8239 C   0  0  1  0  0  0  0  0  0  0  0  0
   -0.4348   -6.3399   40.8396 N   0  3  0  0  0  0  0  0  0  0  0  0
    1.0909   -4.3602   41.1526 C   0  0  2  0  0  0  0  0  0  0  0  0
    2.1416   -4.9970   40.4294 O   0  0  0  0  0  0  0  0  0  0  0  0
    1.7272   -3.4139   42.2124 C   0  0  1  0  0  0  0  0  0  0  0  0
    2.4349   -2.3447   41.5173 O   0  0  0  0  0  0  0  0  0  0  0  0
    0.6545   -2.7930   43.1657 C   0  0  1  0  0  0  0  0  0  0  0  0
   -0.2963   -3.8646   43.7889 C   0  0  1  0  0  0  0  0  0  0  0  0
   -1.3602   -3.2395   44.6055 N   0  3  0  0  0  0  0  0  0  0  0  0
   -0.9356   -4.7395   42.6797 C   0  0  0  0  0  0  0  0  0  0  0  0
    2.0544   -1.9836   40.1510 C   0  0  1  0  0  0  0  0  0  0  0  0
    2.2246   -0.4628   39.9772 C   0  0  2  0  0  0  0  0  0  0  0  0
    1.3708    0.0339   38.9503 O   0  0  0  0  0  0  0  0  0  0  0  0
    3.7052   -0.4312   39.5689 C   0  0  1  0  0  0  0  0  0  0  0  0
    3.7981   -1.5924   38.5929 C   0  0  2  0  0  0  0  0  0  0  0  0
    2.9690   -2.5675   39.2065 O   0  0  0  0  0  0  0  0  0  0  0  0
    5.2098   -2.1527   38.3765 C   0  0  0  0  0  0  0  0  0  0  0  0
    5.6818   -2.7590   39.5706 O   0  0  0  0  0  0  0  0  0  0  0  0
    2.4016    2.9096   35.6081 C   0  0  1  0  0  0  0  0  0  0  0  0
    2.7509    4.2114   36.0752 O   0  0  0  0  0  0  0  0  0  0  0  0
    3.6971    2.1012   35.3184 C   0  0  2  0  0  0  0  0  0  0  0  0
    3.3573    0.9721   34.5171 O   0  0  0  0  0  0  0  0  0  0  0  0
    4.4743    1.6059   36.5818 C   0  0  1  0  0  0  0  0  0  0  0  0
    5.3781    2.6668   37.0785 N   0  3  0  0  0  0  0  0  0  0  0  0
    3.5150    1.0726   37.6782 C   0  0  1  0  0  0  0  0  0  0  0  0
    4.1606    0.8018   38.9467 O   0  0  0  0  0  0  0  0  0  0  0  0
    1.5488    2.1693   36.6689 C   0  0  1  0  0  0  0  0  0  0  0  0
    2.3769    1.9829   37.8493 O   0  0  0  0  0  0  0  0  0  0  0  0
    0.2350    2.8897   37.0255 C   0  0  0  0  0  0  0  0  0  0  0  0
    0.4510    4.2772   37.4804 N   0  3  0  0  0  0  0  0  0  0  0  0
  1  2  1  1  0  0  0
  1  3  1  0  0  0  0
  1 10  1  0  0  0  0
  3  4  1  1  0  0  0
  3  5  1  0  0  0  0
  5  6  1  6  0  0  0
  5  7  1  0  0  0  0
  7  8  1  1  0  0  0
  7  9  1  0  0  0  0
  9 10  1  0  0  0  0
  9 11  1  1  0  0  0
 11 12  1  0  0  0  0
 13 14  1  6  0  0  0
 13 15  1  0  0  0  0
 13 22  1  0  0  0  0
 15 16  1  1  0  0  0
 15 17  1  0  0  0  0
 17 18  1  6  0  0  0
 17 19  1  0  0  0  0
 19  2  1  1  0  0  0
 19 20  1  0  0  0  0
 20 21  1  6  0  0  0
 20 22  1  0  0  0  0
 23 18  1  1  0  0  0
 23 24  1  0  0  0  0
 23 28  1  0  0  0  0
 24 25  1  6  0  0  0
 24 26  1  0  0  0  0
 26 27  1  0  0  0  0
 26 38  1  6  0  0  0
 27 28  1  0  0  0  0
 27 29  1  1  0  0  0
 29 30  1  0  0  0  0
 31 32  1  1  0  0  0
 31 33  1  0  0  0  0
 31 39  1  0  0  0  0
 33 34  1  6  0  0  0
 33 35  1  0  0  0  0
 35 36  1  1  0  0  0
 35 37  1  0  0  0  0
 37 38  1  1  0  0  0
 37 40  1  0  0  0  0
 39 40  1  0  0  0  0
 39 41  1  1  0  0  0
 41 42  1  0  0  0  0
M  CHG  5   4   1  14   1  21   1  36   1  42   1
M  END
>  <CHROM.1>
-117.97878621,75.66620543,-72.31331699,55.28371869,-58.89730499,-175.99833908
-179.20559936,-173.33254482,-61.21802702,23.72311953,144.89092288,135.48678854
175.35162945,-63.99357378,66.44224134,-67.39078185,-60.36417986,175.74841437
-156.90590438,-138.33492915,-55.73591197,-70.32299735,2.30075637,-0.67286237
41.03214211,-2.40901303,-1.32858661,-1.97045458

>  <Name>
1pbr

>  <RI>
0

>  <Rbt.Current_Directory>
/home/itssahil/PROJECTS/Mol_Feturizer/New_Systems/rnas/1pbr

>  <Rbt.Executable>
rbdock ($Id: //depot/dev/client3/rdock/2013.1/src/exe/rbdock.cxx#4 $)

>  <Rbt.Library>
libRbt.so (2013.1, Build901 2013/11/27)

>  <Rbt.Parameter_File>
/export/apps/rDock/src/rDock_2013.1_src/data/scripts/dock_solv.prm

>  <Rbt.Receptor>
prm/pocket_docking_2.prm

>  <SCORE>
-45.9453

>  <SCORE.INTER>
-49.7771

>  <SCORE.INTER.CONST>
1

>  <SCORE.INTER.POLAR>
-7.27797

>  <SCORE.INTER.ROT>
9

>  <SCORE.INTER.SOLV>
27.1104

>  <SCORE.INTER.VDW>
-27.5616

>  <SCORE.INTER.norm>
-1.18517

>  <SCORE.INTRA>
1.69821

>  <SCORE.INTRA.DIHEDRAL>
-0.090213

>  <SCORE.INTRA.DIHEDRAL.0>
29.7866

>  <SCORE.INTRA.POLAR>
-0.995573

>  <SCORE.INTRA.POLAR.0>
-0.984091

>  <SCORE.INTRA.REPUL>
-0.274115

>  <SCORE.INTRA.REPUL.0>
0.274115

>  <SCORE.INTRA.SOLV>
2.91894

>  <SCORE.INTRA.SOLV.lig_0>
-152.978

>  <SCORE.INTRA.VDW>
5.03937

>  <SCORE.INTRA.VDW.0>
-6.10719

>  <SCORE.INTRA.norm>
0.0404336

>  <SCORE.RESTR>
2.13352

>  <SCORE.RESTR.CAVITY>
2.13352

>  <SCORE.RESTR.norm>
0.050798

>  <SCORE.SYSTEM>
0

>  <SCORE.SYSTEM.CONST>
0

>  <SCORE.SYSTEM.DIHEDRAL>
0

>  <SCORE.SYSTEM.SOLV>
0

>  <SCORE.SYSTEM.norm>
0

>  <SCORE.heavy>
42

>  <SCORE.norm>
-1.09394

>  <RMSD>
1.830

$$$$
1pbr
 OpenBabel11021811403D
libRbt.so/2013.1/901 2013/11/27
 42 45  0  0  0  0  0  0  0  0999 V2000
    2.0010   -0.2902   44.5737 C   0  0  2  0  0  0  0  0  0  0  0  0
    1.7762   -1.7146   44.7282 O   0  0  0  0  0  0  0  0  0  0  0  0
    3.3079    0.1550   45.3301 C   0  0  2  0  0  0  0  0  0  0  0  0
    4.4499   -0.7859   45.1933 N   0  3  0  0  0  0  0  0  0  0  0  0
    3.0611    0.3165   46.8419 C   0  0  1  0  0  0  0  0  0  0  0  0
    4.1644    0.9675   47.4681 O   0  0  0  0  0  0  0  0  0  0  0  0
    1.7774    1.1167   47.1091 C   0  0  2  0  0  0  0  0  0  0  0  0
    1.5892    1.2932   48.5097 O   0  0  0  0  0  0  0  0  0  0  0  0
    0.5631    0.4467   46.4286 C   0  0  2  0  0  0  0  0  0  0  0  0
    0.8254    0.4470   45.0093 O   0  0  0  0  0  0  0  0  0  0  0  0
   -0.7634    1.1681   46.6612 C   0  0  0  0  0  0  0  0  0  0  0  0
   -1.6423    0.9987   45.5570 O   0  0  0  0  0  0  0  0  0  0  0  0
    0.0046   -4.8413   42.4275 C   0  0  1  0  0  0  0  0  0  0  0  0
   -0.8493   -5.6898   41.5763 N   0  3  0  0  0  0  0  0  0  0  0  0
    0.6616   -3.6751   41.6287 C   0  0  2  0  0  0  0  0  0  0  0  0
    1.4599   -4.1884   40.5648 O   0  0  0  0  0  0  0  0  0  0  0  0
    1.5675   -2.8019   42.5455 C   0  0  1  0  0  0  0  0  0  0  0  0
    2.0139   -1.6385   41.7876 O   0  0  0  0  0  0  0  0  0  0  0  0
    0.8173   -2.3270   43.8327 C   0  0  1  0  0  0  0  0  0  0  0  0
    0.1175   -3.4981   44.5939 C   0  0  1  0  0  0  0  0  0  0  0  0
   -0.6652   -3.0058   45.7491 N   0  3  0  0  0  0  0  0  0  0  0  0
   -0.8074   -4.2958   43.6385 C   0  0  0  0  0  0  0  0  0  0  0  0
    2.0015   -1.6702   40.3245 C   0  0  1  0  0  0  0  0  0  0  0  0
    2.0190   -0.2223   39.7997 C   0  0  2  0  0  0  0  0  0  0  0  0
    1.4422   -0.1421   38.4993 O   0  0  0  0  0  0  0  0  0  0  0  0
    3.5377    0.0078   39.7778 C   0  0  1  0  0  0  0  0  0  0  0  0
    4.0562   -1.2992   39.2011 C   0  0  2  0  0  0  0  0  0  0  0  0
    3.2168   -2.2576   39.8269 O   0  0  0  0  0  0  0  0  0  0  0  0
    5.5297   -1.6057   39.4986 C   0  0  0  0  0  0  0  0  0  0  0  0
    5.9372   -2.7693   38.7941 O   0  0  0  0  0  0  0  0  0  0  0  0
    2.3947    2.4960   35.2031 C   0  0  1  0  0  0  0  0  0  0  0  0
    2.5585    3.8852   35.4823 O   0  0  0  0  0  0  0  0  0  0  0  0
    3.7888    1.8100   35.1651 C   0  0  2  0  0  0  0  0  0  0  0  0
    3.6526    0.5408   34.5303 O   0  0  0  0  0  0  0  0  0  0  0  0
    4.4731    1.6057   36.5564 C   0  0  1  0  0  0  0  0  0  0  0  0
    5.2066    2.8278   36.9534 N   0  3  0  0  0  0  0  0  0  0  0  0
    3.4613    1.1359   37.6346 C   0  0  1  0  0  0  0  0  0  0  0  0
    3.9921    1.1374   38.9827 O   0  0  0  0  0  0  0  0  0  0  0  0
    1.5130    1.8301   36.2893 C   0  0  1  0  0  0  0  0  0  0  0  0
    2.2251    1.9224   37.5535 O   0  0  0  0  0  0  0  0  0  0  0  0
    0.1026    2.4376   36.4057 C   0  0  0  0  0  0  0  0  0  0  0  0
    0.1130    3.7967   36.9812 N   0  3  0  0  0  0  0  0  0  0  0  0
  1  2  1  1  0  0  0
  1  3  1  0  0  0  0
  1 10  1  0  0  0  0
  3  4  1  1  0  0  0
  3  5  1  0  0  0  0
  5  6  1  6  0  0  0
  5  7  1  0  0  0  0
  7  8  1  1  0  0  0
  7  9  1  0  0  0  0
  9 10  1  0  0  0  0
  9 11  1  6  0  0  0
 11 12  1  0  0  0  0
 13 14  1  6  0  0  0
 13 15  1  0  0  0  0
 13 22  1  0  0  0  0
 15 16  1  6  0  0  0
 15 17  1  0  0  0  0
 17 18  1  6  0  0  0
 17 19  1  0  0  0  0
 19  2  1  1  0  0  0
 19 20  1  0  0  0  0
 20 21  1  1  0  0  0
 20 22  1  0  0  0  0
 23 18  1  1  0  0  0
 23 24  1  0  0  0  0
 23 28  1  0  0  0  0
 24 25  1  6  0  0  0
 24 26  1  0  0  0  0
 26 27  1  0  0  0  0
 26 38  1  6  0  0  0
 27 28  1  0  0  0  0
 27 29  1  1  0  0  0
 29 30  1  0  0  0  0
 31 32  1  1  0  0  0
 31 33  1  0  0  0  0
 31 39  1  0  0  0  0
 33 34  1  1  0  0  0
 33 35  1  0  0  0  0
 35 36  1  1  0  0  0
 35 37  1  0  0  0  0
 37 38  1  1  0  0  0
 37 40  1  0  0  0  0
 39 40  1  0  0  0  0
 39 41  1  1  0  0  0
 41 42  1  0  0  0  0
M  CHG  5   4   1  14   1  21   1  36   1  42   1
M  END
>  <CHROM.1>
-165.15686934,89.42813755,-87.65531444,-69.13909447,-44.51373951,149.34777446
-52.64492226,-16.37015654,-53.59538320,-21.16835573,159.85879510,-150.53438722
163.94200365,-51.17654204,-173.73537547,-171.16117698,68.81600523,-54.84474900
-154.72562786,-141.67963013,-70.42492765,53.20904209,2.07239380,-0.37248521
41.30930068,-2.42431845,-1.30080174,-2.13378182

>  <Name>
1pbr

>  <RI>
0

>  <Rbt.Current_Directory>
/home/itssahil/PROJECTS/Mol_Feturizer/New_Systems/rnas/1pbr

>  <Rbt.Executable>
rbdock ($Id: //depot/dev/client3/rdock/2013.1/src/exe/rbdock.cxx#4 $)

>  <Rbt.Library>
libRbt.so (2013.1, Build901 2013/11/27)

>  <Rbt.Parameter_File>
/export/apps/rDock/src/rDock_2013.1_src/data/scripts/dock_solv.prm

>  <Rbt.Receptor>
prm/pocket_docking_2.prm

>  <SCORE>
-45.6641

>  <SCORE.INTER>
-56.0374

>  <SCORE.INTER.CONST>
1

>  <SCORE.INTER.POLAR>
-7.48047

>  <SCORE.INTER.ROT>
9

>  <SCORE.INTER.SOLV>
34.2867

>  <SCORE.INTER.VDW>
-33.4523

>  <SCORE.INTER.norm>
-1.33422

>  <SCORE.INTRA>
8.57743

>  <SCORE.INTRA.DIHEDRAL>
2.71726

>  <SCORE.INTRA.DIHEDRAL.0>
29.7866

>  <SCORE.INTRA.POLAR>
-0.104599

>  <SCORE.INTRA.POLAR.0>
-0.984091

>  <SCORE.INTRA.REPUL>
-0.274115

>  <SCORE.INTRA.REPUL.0>
0.274115

>  <SCORE.INTRA.SOLV>
0.231171

>  <SCORE.INTRA.SOLV.lig_0>
-152.978

>  <SCORE.INTRA.VDW>
8.82942

>  <SCORE.INTRA.VDW.0>
-6.10719

>  <SCORE.INTRA.norm>
0.204224

>  <SCORE.RESTR>
1.79589

>  <SCORE.RESTR.CAVITY>
1.79589

>  <SCORE.RESTR.norm>
0.0427593

>  <SCORE.SYSTEM>
0

>  <SCORE.SYSTEM.CONST>
0

>  <SCORE.SYSTEM.DIHEDRAL>
0

>  <SCORE.SYSTEM.SOLV>
0

>  <SCORE.SYSTEM.norm>
0

>  <SCORE.heavy>
42

>  <SCORE.norm>
-1.08724

>  <RMSD>
1.832

$$$$
1pbr
 OpenBabel11021811403D
libRbt.so/2013.1/901 2013/11/27
 42 45  0  0  0  0  0  0  0  0999 V2000
    2.1659   -0.7806   44.6307 C   0  0  2  0  0  0  0  0  0  0  0  0
    2.1074   -2.2110   44.8624 O   0  0  0  0  0  0  0  0  0  0  0  0
    3.4665   -0.1635   45.2679 C   0  0  2  0  0  0  0  0  0  0  0  0
    4.6912   -0.9856   45.0866 N   0  3  0  0  0  0  0  0  0  0  0  0
    3.3096    0.0474   46.7856 C   0  0  1  0  0  0  0  0  0  0  0  0
    4.3771    0.8409   47.2993 O   0  0  0  0  0  0  0  0  0  0  0  0
    1.9687    0.7214   47.1133 C   0  0  2  0  0  0  0  0  0  0  0  0
    1.8605    0.9477   48.5152 O   0  0  0  0  0  0  0  0  0  0  0  0
    0.7895   -0.1054   46.5546 C   0  0  2  0  0  0  0  0  0  0  0  0
    0.9508   -0.1493   45.1209 O   0  0  0  0  0  0  0  0  0  0  0  0
   -0.5877    0.4842   46.8543 C   0  0  0  0  0  0  0  0  0  0  0  0
   -0.8267    1.6533   46.0820 O   0  0  0  0  0  0  0  0  0  0  0  0
    0.5220   -5.7491   43.0802 C   0  0  1  0  0  0  0  0  0  0  0  0
   -0.2080   -6.7507   42.2816 N   0  3  0  0  0  0  0  0  0  0  0  0
    1.5265   -4.9253   42.2189 C   0  0  2  0  0  0  0  0  0  0  0  0
    2.4801   -5.7889   41.6046 O   0  0  0  0  0  0  0  0  0  0  0  0
    2.2934   -3.8842   43.0859 C   0  0  1  0  0  0  0  0  0  0  0  0
    3.0859   -3.0359   42.2031 O   0  0  0  0  0  0  0  0  0  0  0  0
    1.3238   -2.9937   43.9298 C   0  0  1  0  0  0  0  0  0  0  0  0
    0.2870   -3.8304   44.7456 C   0  0  1  0  0  0  0  0  0  0  0  0
   -0.6779   -2.9605   45.4541 N   0  3  0  0  0  0  0  0  0  0  0  0
   -0.4770   -4.8098   43.8174 C   0  0  0  0  0  0  0  0  0  0  0  0
    2.6061   -2.7347   40.8537 C   0  0  1  0  0  0  0  0  0  0  0  0
    2.7105   -1.2159   40.6208 C   0  0  2  0  0  0  0  0  0  0  0  0
    1.7755   -0.7834   39.6364 O   0  0  0  0  0  0  0  0  0  0  0  0
    4.1598   -1.1485   40.1161 C   0  0  1  0  0  0  0  0  0  0  0  0
    4.2314   -2.3386   39.1737 C   0  0  2  0  0  0  0  0  0  0  0  0
    3.4787   -3.3194   39.8708 O   0  0  0  0  0  0  0  0  0  0  0  0
    5.6455   -2.8582   38.8837 C   0  0  0  0  0  0  0  0  0  0  0  0
    5.6857   -3.4738   37.6047 O   0  0  0  0  0  0  0  0  0  0  0  0
    3.2248    1.7456   35.6589 C   0  0  1  0  0  0  0  0  0  0  0  0
    4.2859    2.6937   35.5597 O   0  0  0  0  0  0  0  0  0  0  0  0
    3.8131    0.3076   35.6185 C   0  0  2  0  0  0  0  0  0  0  0  0
    2.7553   -0.6076   35.3428 O   0  0  0  0  0  0  0  0  0  0  0  0
    4.5493   -0.1518   36.9196 C   0  0  1  0  0  0  0  0  0  0  0  0
    5.9560    0.3065   36.9037 N   0  3  0  0  0  0  0  0  0  0  0  0
    3.7895    0.2868   38.1991 C   0  0  1  0  0  0  0  0  0  0  0  0
    4.5301    0.0771   39.4265 O   0  0  0  0  0  0  0  0  0  0  0  0
    2.4403    1.9535   36.9787 C   0  0  1  0  0  0  0  0  0  0  0  0
    3.3495    1.6816   38.0802 O   0  0  0  0  0  0  0  0  0  0  0  0
    1.8112    3.3526   37.1159 C   0  0  0  0  0  0  0  0  0  0  0  0
    0.7424    3.4000   38.1327 N   0  3  0  0  0  0  0  0  0  0  0  0
  1  2  1  1  0  0  0
  1  3  1  0  0  0  0
  1 10  1  0  0  0  0
  3  4  1  1  0  0  0
  3  5  1  0  0  0  0
  5  6  1  6  0  0  0
  5  7  1  0  0  0  0
  7  8  1  1  0  0  0
  7  9  1  0  0  0  0
  9 10  1  0  0  0  0
  9 11  1  6  0  0  0
 11 12  1  0  0  0  0
 13 14  1  6  0  0  0
 13 15  1  0  0  0  0
 13 22  1  0  0  0  0
 15 16  1  1  0  0  0
 15 17  1  0  0  0  0
 17 18  1  6  0  0  0
 17 19  1  0  0  0  0
 19  2  1  1  0  0  0
 19 20  1  0  0  0  0
 20 21  1  6  0  0  0
 20 22  1  0  0  0  0
 23 18  1  1  0  0  0
 23 24  1  0  0  0  0
 23 28  1  0  0  0  0
 24 25  1  6  0  0  0
 24 26  1  0  0  0  0
 26 27  1  0  0  0  0
 26 38  1  6  0  0  0
 27 28  1  0  0  0  0
 27 29  1  1  0  0  0
 29 30  1  0  0  0  0
 31 32  1  1  0  0  0
 31 33  1  0  0  0  0
 31 39  1  0  0  0  0
 33 34  1  1  0  0  0
 33 35  1  0  0  0  0
 35 36  1  1  0  0  0
 35 37  1  0  0  0  0
 37 38  1  1  0  0  0
 37 40  1  0  0  0  0
 39 40  1  0  0  0  0
 39 41  1  1  0  0  0
 41 42  1  0  0  0  0
M  CHG  5   4   1  14   1  21   1  36   1  42   1
M  END
>  <CHROM.1>
-155.56169970,111.22090152,159.20239393,52.25146346,-55.36283207,71.89312039
50.02046211,-54.12707145,67.65498656,31.87715386,131.33483735,-69.75000744
89.28585988,-63.63403491,-152.40782385,171.94506273,-58.33142213,59.76224638
107.73413487,-98.02747769,161.84322194,15.92485441,2.52911453,-1.10691695
41.59213258,-3.07104693,-1.30352039,-2.85880454

>  <Name>
1pbr

>  <RI>
0

>  <Rbt.Current_Directory>
/home/itssahil/PROJECTS/Mol_Feturizer/New_Systems/rnas/1pbr

>  <Rbt.Executable>
rbdock ($Id: //depot/dev/client3/rdock/2013.1/src/exe/rbdock.cxx#4 $)

>  <Rbt.Library>
libRbt.so (2013.1, Build901 2013/11/27)

>  <Rbt.Parameter_File>
/export/apps/rDock/src/rDock_2013.1_src/data/scripts/dock_solv.prm

>  <Rbt.Receptor>
prm/pocket_docking_2.prm

>  <SCORE>
-28.4704

>  <SCORE.INTER>
-39.3812

>  <SCORE.INTER.CONST>
1

>  <SCORE.INTER.POLAR>
-4.98107

>  <SCORE.INTER.ROT>
9

>  <SCORE.INTER.SOLV>
23.8467

>  <SCORE.INTER.VDW>
-27.1995

>  <SCORE.INTER.norm>
-0.937647

>  <SCORE.INTRA>
9.39192

>  <SCORE.INTRA.DIHEDRAL>
11.109

>  <SCORE.INTRA.DIHEDRAL.0>
29.7866

>  <SCORE.INTRA.POLAR>
0.816092

>  <SCORE.INTRA.POLAR.0>
-0.984091

>  <SCORE.INTRA.REPUL>
-0.274115

>  <SCORE.INTRA.REPUL.0>
0.274115

>  <SCORE.INTRA.SOLV>
0.549367

>  <SCORE.INTRA.SOLV.lig_0>
-152.978

>  <SCORE.INTRA.VDW>
2.15858

>  <SCORE.INTRA.VDW.0>
-6.10719

>  <SCORE.INTRA.norm>
0.223617

>  <SCORE.RESTR>
1.51881

>  <SCORE.RESTR.CAVITY>
1.51881

>  <SCORE.RESTR.norm>
0.036162

>  <SCORE.SYSTEM>
0

>  <SCORE.SYSTEM.CONST>
0

>  <SCORE.SYSTEM.DIHEDRAL>
0

>  <SCORE.SYSTEM.SOLV>
0

>  <SCORE.SYSTEM.norm>
0

>  <SCORE.heavy>
42

>  <SCORE.norm>
-0.677868

>  <RMSD>
1.958

$$$$
1pbr
 OpenBabel11021811403D
libRbt.so/2013.1/901 2013/11/27
 42 45  0  0  0  0  0  0  0  0999 V2000
    1.5793   -0.3154   44.8843 C   0  0  2  0  0  0  0  0  0  0  0  0
    1.2574   -1.6977   45.1826 O   0  0  0  0  0  0  0  0  0  0  0  0
    2.9966    0.0644   45.4546 C   0  0  2  0  0  0  0  0  0  0  0  0
    4.0341   -0.9844   45.2758 N   0  3  0  0  0  0  0  0  0  0  0  0
    2.9393    0.3610   46.9651 C   0  0  1  0  0  0  0  0  0  0  0  0
    4.1571    0.9539   47.4109 O   0  0  0  0  0  0  0  0  0  0  0  0
    1.7650    1.2928   47.3003 C   0  0  2  0  0  0  0  0  0  0  0  0
    1.7543    1.5905   48.6930 O   0  0  0  0  0  0  0  0  0  0  0  0
    0.4296    0.6870   46.8143 C   0  0  2  0  0  0  0  0  0  0  0  0
    0.5262    0.5566   45.3801 O   0  0  0  0  0  0  0  0  0  0  0  0
   -0.7975    1.5418   47.1267 C   0  0  0  0  0  0  0  0  0  0  0  0
   -1.6534    0.8934   48.0580 O   0  0  0  0  0  0  0  0  0  0  0  0
    1.0281   -5.2833   42.8808 C   0  0  1  0  0  0  0  0  0  0  0  0
    0.7441   -6.3362   41.8885 N   0  3  0  0  0  0  0  0  0  0  0  0
    1.8878   -4.1273   42.2857 C   0  0  2  0  0  0  0  0  0  0  0  0
    3.1299   -4.6305   41.7994 O   0  0  0  0  0  0  0  0  0  0  0  0
    2.1847   -3.0354   43.3549 C   0  0  1  0  0  0  0  0  0  0  0  0
    2.8402   -1.9087   42.7008 O   0  0  0  0  0  0  0  0  0  0  0  0
    0.8831   -2.5386   44.0649 C   0  0  1  0  0  0  0  0  0  0  0  0
    0.0038   -3.7099   44.6086 C   0  0  1  0  0  0  0  0  0  0  0  0
   -1.2659   -3.2151   45.1854 N   0  3  0  0  0  0  0  0  0  0  0  0
   -0.2978   -4.7345   43.4845 C   0  0  0  0  0  0  0  0  0  0  0  0
    2.1256   -1.1373   41.6829 C   0  0  1  0  0  0  0  0  0  0  0  0
    3.1099   -0.1466   41.0336 C   0  0  2  0  0  0  0  0  0  0  0  0
    2.4225    0.9799   40.4961 O   0  0  0  0  0  0  0  0  0  0  0  0
    3.6805   -1.0579   39.9364 C   0  0  1  0  0  0  0  0  0  0  0  0
    2.4363   -1.7582   39.4159 C   0  0  2  0  0  0  0  0  0  0  0  0
    1.7045   -1.9965   40.6086 O   0  0  0  0  0  0  0  0  0  0  0  0
    2.6907   -3.0767   38.6740 C   0  0  0  0  0  0  0  0  0  0  0  0
    3.9448   -3.0280   38.0098 O   0  0  0  0  0  0  0  0  0  0  0  0
    2.6990    2.1132   35.7519 C   0  0  1  0  0  0  0  0  0  0  0  0
    3.8170    2.9955   35.6716 O   0  0  0  0  0  0  0  0  0  0  0  0
    3.1406    0.6826   35.3347 C   0  0  2  0  0  0  0  0  0  0  0  0
    1.9743   -0.0895   35.0584 O   0  0  0  0  0  0  0  0  0  0  0  0
    4.0130   -0.0818   36.3836 C   0  0  1  0  0  0  0  0  0  0  0  0
    5.4385    0.2842   36.2317 N   0  3  0  0  0  0  0  0  0  0  0  0
    3.4911    0.1247   37.8299 C   0  0  1  0  0  0  0  0  0  0  0  0
    4.3800   -0.3808   38.8562 O   0  0  0  0  0  0  0  0  0  0  0  0
    2.1374    2.0876   37.1957 C   0  0  1  0  0  0  0  0  0  0  0  0
    3.1684    1.5375   38.0607 O   0  0  0  0  0  0  0  0  0  0  0  0
    1.6662    3.4625   37.7053 C   0  0  0  0  0  0  0  0  0  0  0  0
    0.5321    3.3642   38.6448 N   0  3  0  0  0  0  0  0  0  0  0  0
  1  2  1  1  0  0  0
  1  3  1  0  0  0  0
  1 10  1  0  0  0  0
  3  4  1  1  0  0  0
  3  5  1  0  0  0  0
  5  6  1  6  0  0  0
  5  7  1  0  0  0  0
  7  8  1  1  0  0  0
  7  9  1  0  0  0  0
  9 10  1  0  0  0  0
  9 11  1  6  0  0  0
 11 12  1  0  0  0  0
 13 14  1  6  0  0  0
 13 15  1  0  0  0  0
 13 22  1  0  0  0  0
 15 16  1  1  0  0  0
 15 17  1  0  0  0  0
 17 18  1  6  0  0  0
 17 19  1  0  0  0  0
 19  2  1  1  0  0  0
 19 20  1  0  0  0  0
 20 21  1  6  0  0  0
 20 22  1  0  0  0  0
 23 18  1  1  0  0  0
 23 24  1  0  0  0  0
 23 28  1  0  0  0  0
 24 25  1  6  0  0  0
 24 26  1  0  0  0  0
 26 27  1  0  0  0  0
 26 38  1  6  0  0  0
 27 28  1  0  0  0  0
 27 29  1  1  0  0  0
 29 30  1  0  0  0  0
 31 32  1  1  0  0  0
 31 33  1  0  0  0  0
 31 39  1  0  0  0  0
 33 34  1  1  0  0  0
 33 35  1  0  0  0  0
 35 36  1  1  0  0  0
 35 37  1  0  0  0  0
 37 38  1  1  0  0  0
 37 40  1  0  0  0  0
 39 40  1  0  0  0  0
 39 41  1  1  0  0  0
 41 42  1  0  0  0  0
M  CHG  5   4   1  14   1  21   1  36   1  42   1
M  END
>  <CHROM.1>
-126.15339114,81.83734628,-74.28964926,-63.81914721,-44.77388199,-113.91463976
-142.93492264,-159.49066091,59.31740607,63.92495261,-172.34984441,-33.45345802
54.67448801,-83.10470644,-31.46524830,-173.01639701,112.07296521,-56.87615009
-172.28374422,-138.83777992,148.14066128,34.33728583,2.11655483,-0.69708804
41.74592013,-2.96611211,-1.34343646,-2.81889604

>  <Name>
1pbr

>  <RI>
0

>  <Rbt.Current_Directory>
/home/itssahil/PROJECTS/Mol_Feturizer/New_Systems/rnas/1pbr

>  <Rbt.Executable>
rbdock ($Id: //depot/dev/client3/rdock/2013.1/src/exe/rbdock.cxx#4 $)

>  <Rbt.Library>
libRbt.so (2013.1, Build901 2013/11/27)

>  <Rbt.Parameter_File>
/export/apps/rDock/src/rDock_2013.1_src/data/scripts/dock_solv.prm

>  <Rbt.Receptor>
prm/pocket_docking_2.prm

>  <SCORE>
-28.5069

>  <SCORE.INTER>
-38.7746

>  <SCORE.INTER.CONST>
1

>  <SCORE.INTER.POLAR>
-4.51593

>  <SCORE.INTER.ROT>
9

>  <SCORE.INTER.SOLV>
28.0202

>  <SCORE.INTER.VDW>
-29.7367

>  <SCORE.INTER.norm>
-0.923206

>  <SCORE.INTRA>
8.89512

>  <SCORE.INTRA.DIHEDRAL>
16.2287

>  <SCORE.INTRA.DIHEDRAL.0>
29.7866

>  <SCORE.INTRA.POLAR>
-0.129832

>  <SCORE.INTRA.POLAR.0>
-0.984091

>  <SCORE.INTRA.REPUL>
-0.274115

>  <SCORE.INTRA.REPUL.0>
0.274115

>  <SCORE.INTRA.SOLV>
0.904289

>  <SCORE.INTRA.SOLV.lig_0>
-152.978

>  <SCORE.INTRA.VDW>
2.14061

>  <SCORE.INTRA.VDW.0>
-6.10719

>  <SCORE.INTRA.norm>
0.211789

>  <SCORE.RESTR>
1.37264

>  <SCORE.RESTR.CAVITY>
1.37264

>  <SCORE.RESTR.norm>
0.0326818

>  <SCORE.SYSTEM>
0

>  <SCORE.SYSTEM.CONST>
0

>  <SCORE.SYSTEM.DIHEDRAL>
0

>  <SCORE.SYSTEM.SOLV>
0

>  <SCORE.SYSTEM.norm>
0

>  <SCORE.heavy>
42

>  <SCORE.norm>
-0.678735

>  <RMSD>
1.991

$$$$
1pbr
 OpenBabel11021811403D
libRbt.so/2013.1/901 2013/11/27
 42 45  0  0  0  0  0  0  0  0999 V2000
    1.5730   -0.2098   44.5951 C   0  0  2  0  0  0  0  0  0  0  0  0
    1.1531   -1.5902   44.7419 O   0  0  0  0  0  0  0  0  0  0  0  0
    3.0814   -0.0369   45.0113 C   0  0  2  0  0  0  0  0  0  0  0  0
    3.9774   -1.1283   44.5484 N   0  3  0  0  0  0  0  0  0  0  0  0
    3.2431    0.0338   46.5415 C   0  0  1  0  0  0  0  0  0  0  0  0
    4.5605    0.4517   46.8924 O   0  0  0  0  0  0  0  0  0  0  0  0
    2.2197    0.9978   47.1606 C   0  0  2  0  0  0  0  0  0  0  0  0
    2.4127    1.0834   48.5690 O   0  0  0  0  0  0  0  0  0  0  0  0
    0.7799    0.5828   46.7847 C   0  0  2  0  0  0  0  0  0  0  0  0
    0.6833    0.6612   45.3467 O   0  0  0  0  0  0  0  0  0  0  0  0
   -0.3062    1.4786   47.3779 C   0  0  0  0  0  0  0  0  0  0  0  0
   -1.5904    1.1317   46.8771 O   0  0  0  0  0  0  0  0  0  0  0  0
    0.4914   -4.7888   41.9963 C   0  0  1  0  0  0  0  0  0  0  0  0
    0.0510   -5.6724   40.9012 N   0  3  0  0  0  0  0  0  0  0  0  0
    1.3550   -3.5972   41.4825 C   0  0  2  0  0  0  0  0  0  0  0  0
    2.5123   -4.0781   40.8028 O   0  0  0  0  0  0  0  0  0  0  0  0
    1.8180   -2.6868   42.6573 C   0  0  1  0  0  0  0  0  0  0  0  0
    2.4713   -1.5066   42.1028 O   0  0  0  0  0  0  0  0  0  0  0  0
    0.6231   -2.2421   43.5627 C   0  0  1  0  0  0  0  0  0  0  0  0
   -0.2659   -3.4405   44.0257 C   0  0  1  0  0  0  0  0  0  0  0  0
   -1.4422   -2.9798   44.7962 N   0  3  0  0  0  0  0  0  0  0  0  0
   -0.7350   -4.2762   42.8067 C   0  0  0  0  0  0  0  0  0  0  0  0
    1.8195   -0.7422   41.0386 C   0  0  1  0  0  0  0  0  0  0  0  0
    2.6649    0.5107   40.7425 C   0  0  2  0  0  0  0  0  0  0  0  0
    1.8634    1.5499   40.1878 O   0  0  0  0  0  0  0  0  0  0  0  0
    3.6333   -0.0900   39.7123 C   0  0  1  0  0  0  0  0  0  0  0  0
    2.7083   -0.9314   38.8487 C   0  0  2  0  0  0  0  0  0  0  0  0
    1.8259   -1.4903   39.8098 O   0  0  0  0  0  0  0  0  0  0  0  0
    3.3958   -2.0434   38.0459 C   0  0  0  0  0  0  0  0  0  0  0  0
    2.5238   -3.1556   37.9083 O   0  0  0  0  0  0  0  0  0  0  0  0
    2.7302    3.2342   35.6715 C   0  0  1  0  0  0  0  0  0  0  0  0
    3.3731    4.4475   36.0580 O   0  0  0  0  0  0  0  0  0  0  0  0
    3.8063    2.1800   35.2890 C   0  0  2  0  0  0  0  0  0  0  0  0
    3.1734    1.1288   34.5630 O   0  0  0  0  0  0  0  0  0  0  0  0
    4.5927    1.5594   36.4899 C   0  0  1  0  0  0  0  0  0  0  0  0
    5.7321    2.4268   36.8619 N   0  3  0  0  0  0  0  0  0  0  0  0
    3.6612    1.2443   37.6898 C   0  0  1  0  0  0  0  0  0  0  0  0
    4.3638    0.8700   38.9002 O   0  0  0  0  0  0  0  0  0  0  0  0
    1.8583    2.6947   36.8331 C   0  0  1  0  0  0  0  0  0  0  0  0
    2.7468    2.3653   37.9358 O   0  0  0  0  0  0  0  0  0  0  0  0
    0.7538    3.6673   37.2869 C   0  0  0  0  0  0  0  0  0  0  0  0
    0.2608    3.3756   38.6472 N   0  3  0  0  0  0  0  0  0  0  0  0
  1  2  1  1  0  0  0
  1  3  1  0  0  0  0
  1 10  1  0  0  0  0
  3  4  1  1  0  0  0
  3  5  1  0  0  0  0
  5  6  1  6  0  0  0
  5  7  1  0  0  0  0
  7  8  1  1  0  0  0
  7  9  1  0  0  0  0
  9 10  1  0  0  0  0
  9 11  1  1  0  0  0
 11 12  1  0  0  0  0
 13 14  1  6  0  0  0
 13 15  1  0  0  0  0
 13 22  1  0  0  0  0
 15 16  1  1  0  0  0
 15 17  1  0  0  0  0
 17 18  1  6  0  0  0
 17 19  1  0  0  0  0
 19  2  1  1  0  0  0
 19 20  1  0  0  0  0
 20 21  1  6  0  0  0
 20 22  1  0  0  0  0
 23 18  1  1  0  0  0
 23 24  1  0  0  0  0
 23 28  1  0  0  0  0
 24 25  1  6  0  0  0
 24 26  1  0  0  0  0
 26 27  1  0  0  0  0
 26 38  1  6  0  0  0
 27 28  1  0  0  0  0
 27 29  1  1  0  0  0
 29 30  1  0  0  0  0
 31 32  1  1  0  0  0
 31 33  1  0  0  0  0
 31 39  1  0  0  0  0
 33 34  1  1  0  0  0
 33 35  1  0  0  0  0
 35 36  1  1  0  0  0
 35 37  1  0  0  0  0
 37 38  1  1  0  0  0
 37 40  1  0  0  0  0
 39 40  1  0  0  0  0
 39 41  1  1  0  0  0
 41 42  1  0  0  0  0
M  CHG  5   4   1  14   1  21   1  36   1  42   1
M  END
>  <CHROM.1>
-123.06161352,79.51052869,46.46773507,-167.41743229,179.99565470,173.60671945
-175.44744038,-71.44628931,-63.24644909,49.28503148,174.79251672,18.61061186
70.08297858,-88.83183595,147.45280418,-56.29719471,-58.89761441,64.80186627
135.59958676,-147.39966299,-159.76270247,-6.76187268,2.05020099,-0.20332250
41.39071198,-2.44687266,-1.28322545,-2.13900420

>  <Name>
1pbr

>  <RI>
0

>  <Rbt.Current_Directory>
/home/itssahil/PROJECTS/Mol_Feturizer/New_Systems/rnas/1pbr

>  <Rbt.Executable>
rbdock ($Id: //depot/dev/client3/rdock/2013.1/src/exe/rbdock.cxx#4 $)

>  <Rbt.Library>
libRbt.so (2013.1, Build901 2013/11/27)

>  <Rbt.Parameter_File>
/export/apps/rDock/src/rDock_2013.1_src/data/scripts/dock_solv.prm

>  <Rbt.Receptor>
prm/pocket_docking_2.prm

>  <SCORE>
-49.3084

>  <SCORE.INTER>
-51.7804

>  <SCORE.INTER.CONST>
1

>  <SCORE.INTER.POLAR>
-6.55104

>  <SCORE.INTER.ROT>
9

>  <SCORE.INTER.SOLV>
35.6671

>  <SCORE.INTER.VDW>
-34.1725

>  <SCORE.INTER.norm>
-1.23287

>  <SCORE.INTRA>
-0.860592

>  <SCORE.INTRA.DIHEDRAL>
4.32603

>  <SCORE.INTRA.DIHEDRAL.0>
29.7866

>  <SCORE.INTRA.POLAR>
-2.4691

>  <SCORE.INTRA.POLAR.0>
-0.984091

>  <SCORE.INTRA.REPUL>
-0.0421698

>  <SCORE.INTRA.REPUL.0>
0.274115

>  <SCORE.INTRA.SOLV>
2.56013

>  <SCORE.INTRA.SOLV.lig_0>
-152.978

>  <SCORE.INTRA.VDW>
4.30211

>  <SCORE.INTRA.VDW.0>
-6.10719

>  <SCORE.INTRA.norm>
-0.0204903

>  <SCORE.RESTR>
3.33259

>  <SCORE.RESTR.CAVITY>
3.33259

>  <SCORE.RESTR.norm>
0.0793473

>  <SCORE.SYSTEM>
0

>  <SCORE.SYSTEM.CONST>
0

>  <SCORE.SYSTEM.DIHEDRAL>
0

>  <SCORE.SYSTEM.SOLV>
0

>  <SCORE.SYSTEM.norm>
0

>  <SCORE.heavy>
42

>  <SCORE.norm>
-1.17401

>  <RMSD>
1.999

$$$$
1pbr
 OpenBabel11021811403D
libRbt.so/2013.1/901 2013/11/27
 42 45  0  0  0  0  0  0  0  0999 V2000
    1.7351   -0.5482   44.6573 C   0  0  2  0  0  0  0  0  0  0  0  0
    1.2817   -1.9219   44.7594 O   0  0  0  0  0  0  0  0  0  0  0  0
    3.0236   -0.3180   45.5321 C   0  0  2  0  0  0  0  0  0  0  0  0
    4.0152   -1.4231   45.4713 N   0  3  0  0  0  0  0  0  0  0  0  0
    2.6731   -0.1347   47.0208 C   0  0  1  0  0  0  0  0  0  0  0  0
    3.8042    0.3315   47.7533 O   0  0  0  0  0  0  0  0  0  0  0  0
    1.5090    0.8521   47.1962 C   0  0  2  0  0  0  0  0  0  0  0  0
    1.2283    1.0422   48.5794 O   0  0  0  0  0  0  0  0  0  0  0  0
    0.2706    0.3848   46.3998 C   0  0  2  0  0  0  0  0  0  0  0  0
    0.6530    0.3581   45.0083 O   0  0  0  0  0  0  0  0  0  0  0  0
   -0.9447    1.3007   46.5353 C   0  0  0  0  0  0  0  0  0  0  0  0
   -1.4321    1.3156   47.8705 O   0  0  0  0  0  0  0  0  0  0  0  0
    0.4399   -4.9182   41.8402 C   0  0  1  0  0  0  0  0  0  0  0  0
   -0.0790   -5.7270   40.7220 N   0  3  0  0  0  0  0  0  0  0  0  0
    1.2314   -3.6689   41.3478 C   0  0  2  0  0  0  0  0  0  0  0  0
    2.3327   -4.0663   40.5343 O   0  0  0  0  0  0  0  0  0  0  0  0
    1.7795   -2.8388   42.5454 C   0  0  1  0  0  0  0  0  0  0  0  0
    2.3581   -1.6033   42.0300 O   0  0  0  0  0  0  0  0  0  0  0  0
    0.6615   -2.4957   43.5835 C   0  0  1  0  0  0  0  0  0  0  0  0
   -0.1596   -3.7486   44.0271 C   0  0  1  0  0  0  0  0  0  0  0  0
   -1.2713   -3.3787   44.9309 N   0  3  0  0  0  0  0  0  0  0  0  0
   -0.7191   -4.5009   42.7921 C   0  0  0  0  0  0  0  0  0  0  0  0
    1.6854   -0.8738   40.9543 C   0  0  1  0  0  0  0  0  0  0  0  0
    2.4028    0.4734   40.7482 C   0  0  2  0  0  0  0  0  0  0  0  0
    1.5233    1.4403   40.1809 O   0  0  0  0  0  0  0  0  0  0  0  0
    3.4863    0.0204   39.7579 C   0  0  1  0  0  0  0  0  0  0  0  0
    2.7080   -0.8826   38.8153 C   0  0  2  0  0  0  0  0  0  0  0  0
    1.8412   -1.5696   39.7049 O   0  0  0  0  0  0  0  0  0  0  0  0
    3.5565   -1.8825   38.0191 C   0  0  0  0  0  0  0  0  0  0  0  0
    2.7201   -2.6940   37.2079 O   0  0  0  0  0  0  0  0  0  0  0  0
    2.4350    3.1243   35.6183 C   0  0  1  0  0  0  0  0  0  0  0  0
    2.6637    4.4385   36.1235 O   0  0  0  0  0  0  0  0  0  0  0  0
    3.7991    2.4148   35.3914 C   0  0  2  0  0  0  0  0  0  0  0  0
    3.5864    1.2796   34.5556 O   0  0  0  0  0  0  0  0  0  0  0  0
    4.5377    1.9520   36.6899 C   0  0  1  0  0  0  0  0  0  0  0  0
    5.3341    3.0646   37.2530 N   0  3  0  0  0  0  0  0  0  0  0  0
    3.5590    1.3320   37.7217 C   0  0  1  0  0  0  0  0  0  0  0  0
    4.1501    1.0838   39.0209 O   0  0  0  0  0  0  0  0  0  0  0  0
    1.5791    2.3061   36.6176 C   0  0  1  0  0  0  0  0  0  0  0  0
    2.3509    2.1565   37.8406 O   0  0  0  0  0  0  0  0  0  0  0  0
    0.1993    2.9253   36.9088 C   0  0  0  0  0  0  0  0  0  0  0  0
   -0.6705    2.9656   35.7171 N   0  3  0  0  0  0  0  0  0  0  0  0
  1  2  1  1  0  0  0
  1  3  1  0  0  0  0
  1 10  1  0  0  0  0
  3  4  1  1  0  0  0
  3  5  1  0  0  0  0
  5  6  1  1  0  0  0
  5  7  1  0  0  0  0
  7  8  1  1  0  0  0
  7  9  1  0  0  0  0
  9 10  1  0  0  0  0
  9 11  1  6  0  0  0
 11 12  1  0  0  0  0
 13 14  1  6  0  0  0
 13 15  1  0  0  0  0
 13 22  1  0  0  0  0
 15 16  1  6  0  0  0
 15 17  1  0  0  0  0
 17 18  1  6  0  0  0
 17 19  1  0  0  0  0
 19  2  1  1  0  0  0
 19 20  1  0  0  0  0
 20 21  1  1  0  0  0
 20 22  1  0  0  0  0
 23 18  1  1  0  0  0
 23 24  1  0  0  0  0
 23 28  1  0  0  0  0
 24 25  1  6  0  0  0
 24 26  1  0  0  0  0
 26 27  1  0  0  0  0
 26 38  1  6  0  0  0
 27 28  1  0  0  0  0
 27 29  1  1  0  0  0
 29 30  1  0  0  0  0
 31 32  1  1  0  0  0
 31 33  1  0  0  0  0
 31 39  1  0  0  0  0
 33 34  1  6  0  0  0
 33 35  1  0  0  0  0
 35 36  1  1  0  0  0
 35 37  1  0  0  0  0
 37 38  1  1  0  0  0
 37 40  1  0  0  0  0
 39 40  1  0  0  0  0
 39 41  1  1  0  0  0
 41 42  1  0  0  0  0
M  CHG  5   4   1  14   1  21   1  36   1  42   1
M  END
>  <CHROM.1>
-146.98372451,75.81889724,-170.10144264,57.00672425,40.08253603,-64.83933123
-57.49830473,58.33202239,66.07482124,40.81972735,172.25652146,-107.01187230
-68.86871738,-94.80319388,178.24802084,-60.60341488,57.66815524,173.88809407
-53.46664846,-154.36964072,64.29869696,-168.32012425,1.85059207,-0.28724745
41.32632184,-2.44183546,-1.32533440,-2.13824315

>  <Name>
1pbr

>  <RI>
0

>  <Rbt.Current_Directory>
/home/itssahil/PROJECTS/Mol_Feturizer/New_Systems/rnas/1pbr

>  <Rbt.Executable>
rbdock ($Id: //depot/dev/client3/rdock/2013.1/src/exe/rbdock.cxx#4 $)

>  <Rbt.Library>
libRbt.so (2013.1, Build901 2013/11/27)

>  <Rbt.Parameter_File>
/export/apps/rDock/src/rDock_2013.1_src/data/scripts/dock_solv.prm

>  <Rbt.Receptor>
prm/pocket_docking_4.prm

>  <SCORE>
-59.1015

>  <SCORE.INTER>
-60.9612

>  <SCORE.INTER.CONST>
1

>  <SCORE.INTER.POLAR>
-7.93707

>  <SCORE.INTER.ROT>
9

>  <SCORE.INTER.SOLV>
36.4261

>  <SCORE.INTER.VDW>
-35.9259

>  <SCORE.INTER.norm>
-1.45146

>  <SCORE.INTRA>
1.85965

>  <SCORE.INTRA.DIHEDRAL>
-7.67921

>  <SCORE.INTRA.DIHEDRAL.0>
29.7866

>  <SCORE.INTRA.POLAR>
0.644164

>  <SCORE.INTRA.POLAR.0>
-0.984091

>  <SCORE.INTRA.REPUL>
-0.274115

>  <SCORE.INTRA.REPUL.0>
0.274115

>  <SCORE.INTRA.SOLV>
-1.70355

>  <SCORE.INTRA.SOLV.lig_0>
-152.978

>  <SCORE.INTRA.VDW>
5.73145

>  <SCORE.INTRA.VDW.0>
-6.10719

>  <SCORE.INTRA.norm>
0.0442775

>  <SCORE.RESTR>
0

>  <SCORE.RESTR.CAVITY>
0

>  <SCORE.RESTR.norm>
0

>  <SCORE.SYSTEM>
0

>  <SCORE.SYSTEM.CONST>
0

>  <SCORE.SYSTEM.DIHEDRAL>
0

>  <SCORE.SYSTEM.SOLV>
0

>  <SCORE.SYSTEM.norm>
0

>  <SCORE.heavy>
42

>  <SCORE.norm>
-1.40718

>  <RMSD>
2.089

$$$$
1pbr
 OpenBabel11021811403D
libRbt.so/2013.1/901 2013/11/27
 42 45  0  0  0  0  0  0  0  0999 V2000
    1.5644   -0.5592   44.5041 C   0  0  2  0  0  0  0  0  0  0  0  0
    1.7480   -1.9978   44.5045 O   0  0  0  0  0  0  0  0  0  0  0  0
    2.8957    0.1746   44.9133 C   0  0  2  0  0  0  0  0  0  0  0  0
    4.1274   -0.4067   44.3190 N   0  3  0  0  0  0  0  0  0  0  0  0
    3.1052    0.1607   46.4392 C   0  0  1  0  0  0  0  0  0  0  0  0
    4.1593    1.0450   46.8135 O   0  0  0  0  0  0  0  0  0  0  0  0
    1.8180    0.5595   47.1766 C   0  0  2  0  0  0  0  0  0  0  0  0
    2.0428    0.5834   48.5827 O   0  0  0  0  0  0  0  0  0  0  0  0
    0.6495   -0.3699   46.7798 C   0  0  2  0  0  0  0  0  0  0  0  0
    0.4445   -0.2026   45.3609 O   0  0  0  0  0  0  0  0  0  0  0  0
   -0.6689   -0.0560   47.4850 C   0  0  0  0  0  0  0  0  0  0  0  0
   -1.0101    1.3175   47.3517 O   0  0  0  0  0  0  0  0  0  0  0  0
    0.4467   -5.0201   41.7880 C   0  0  1  0  0  0  0  0  0  0  0  0
   -0.3123   -5.9653   40.9486 N   0  3  0  0  0  0  0  0  0  0  0  0
    0.2658   -3.5428   41.3250 C   0  0  2  0  0  0  0  0  0  0  0  0
    0.6970   -3.3880   39.9749 O   0  0  0  0  0  0  0  0  0  0  0  0
    1.0860   -2.5662   42.2178 C   0  0  1  0  0  0  0  0  0  0  0  0
    0.7447   -1.1976   41.8469 O   0  0  0  0  0  0  0  0  0  0  0  0
    0.7985   -2.7791   43.7400 C   0  0  1  0  0  0  0  0  0  0  0  0
    0.9299   -4.2726   44.1791 C   0  0  1  0  0  0  0  0  0  0  0  0
    0.5559   -4.4577   45.5988 N   0  3  0  0  0  0  0  0  0  0  0  0
    0.0512   -5.1849   43.2846 C   0  0  0  0  0  0  0  0  0  0  0  0
    1.7851   -0.1689   41.8099 C   0  0  1  0  0  0  0  0  0  0  0  0
    2.8912   -0.6208   40.8381 C   0  0  2  0  0  0  0  0  0  0  0  0
    4.1394   -0.0173   41.1667 O   0  0  0  0  0  0  0  0  0  0  0  0
    2.3038   -0.0680   39.5307 C   0  0  1  0  0  0  0  0  0  0  0  0
    1.8063    1.3046   39.9527 C   0  0  2  0  0  0  0  0  0  0  0  0
    1.2669    1.0459   41.2398 O   0  0  0  0  0  0  0  0  0  0  0  0
    0.7378    1.9212   39.0407 C   0  0  0  0  0  0  0  0  0  0  0  0
   -0.4089    1.0847   38.9990 O   0  0  0  0  0  0  0  0  0  0  0  0
    2.5472    1.8750   34.5655 C   0  0  1  0  0  0  0  0  0  0  0  0
    3.8725    2.3828   34.4227 O   0  0  0  0  0  0  0  0  0  0  0  0
    2.5915    0.3218   34.6010 C   0  0  2  0  0  0  0  0  0  0  0  0
    1.2756   -0.1749   34.3679 O   0  0  0  0  0  0  0  0  0  0  0  0
    3.1372   -0.3027   35.9269 C   0  0  1  0  0  0  0  0  0  0  0  0
    4.6148   -0.3702   35.8937 N   0  3  0  0  0  0  0  0  0  0  0  0
    2.5981    0.4377   37.1792 C   0  0  1  0  0  0  0  0  0  0  0  0
    3.2347    0.0414   38.4189 O   0  0  0  0  0  0  0  0  0  0  0  0
    1.9044    2.4104   35.8697 C   0  0  1  0  0  0  0  0  0  0  0  0
    2.6752    1.8905   36.9874 O   0  0  0  0  0  0  0  0  0  0  0  0
    1.8096    3.9463   35.9326 C   0  0  0  0  0  0  0  0  0  0  0  0
    0.5317    4.4608   35.4028 N   0  3  0  0  0  0  0  0  0  0  0  0
  1  2  1  1  0  0  0
  1  3  1  0  0  0  0
  1 10  1  0  0  0  0
  3  4  1  6  0  0  0
  3  5  1  0  0  0  0
  5  6  1  6  0  0  0
  5  7  1  0  0  0  0
  7  8  1  1  0  0  0
  7  9  1  0  0  0  0
  9 10  1  0  0  0  0
  9 11  1  1  0  0  0
 11 12  1  0  0  0  0
 13 14  1  6  0  0  0
 13 15  1  0  0  0  0
 13 22  1  0  0  0  0
 15 16  1  6  0  0  0
 15 17  1  0  0  0  0
 17 18  1  6  0  0  0
 17 19  1  0  0  0  0
 19  2  1  1  0  0  0
 19 20  1  0  0  0  0
 20 21  1  1  0  0  0
 20 22  1  0  0  0  0
 23 18  1  6  0  0  0
 23 24  1  0  0  0  0
 23 28  1  0  0  0  0
 24 25  1  1  0  0  0
 24 26  1  0  0  0  0
 26 27  1  0  0  0  0
 26 38  1  6  0  0  0
 27 28  1  0  0  0  0
 27 29  1  6  0  0  0
 29 30  1  0  0  0  0
 31 32  1  1  0  0  0
 31 33  1  0  0  0  0
 31 39  1  0  0  0  0
 33 34  1  1  0  0  0
 33 35  1  0  0  0  0
 35 36  1  6  0  0  0
 35 37  1  0  0  0  0
 37 38  1  1  0  0  0
 37 40  1  0  0  0  0
 39 40  1  0  0  0  0
 39 41  1  6  0  0  0
 41 42  1  0  0  0  0
M  CHG  5   4   1  14   1  21   1  36   1  42   1
M  END
>  <CHROM.1>
-159.84668579,72.32114167,-172.63761755,-163.61995382,66.21853871,51.89900211
-68.34524790,-126.49334107,55.26800869,-141.38267241,57.33817841,69.31846991
-162.48949943,174.07483554,60.22442146,-175.07690973,171.62720640,-66.88064975
91.40597130,-140.02386526,91.44232661,57.87084902,1.70786432,-0.37588504
41.21368702,-2.01221740,-1.32135546,-1.74435910

>  <Name>
1pbr

>  <RI>
0

>  <Rbt.Current_Directory>
/home/itssahil/PROJECTS/Mol_Feturizer/New_Systems/rnas/1pbr

>  <Rbt.Executable>
rbdock ($Id: //depot/dev/client3/rdock/2013.1/src/exe/rbdock.cxx#4 $)

>  <Rbt.Library>
libRbt.so (2013.1, Build901 2013/11/27)

>  <Rbt.Parameter_File>
/export/apps/rDock/src/rDock_2013.1_src/data/scripts/dock_solv.prm

>  <Rbt.Receptor>
prm/pocket_docking_3.prm

>  <SCORE>
-46.248

>  <SCORE.INTER>
-45.5097

>  <SCORE.INTER.CONST>
1

>  <SCORE.INTER.POLAR>
-5.36998

>  <SCORE.INTER.ROT>
9

>  <SCORE.INTER.SOLV>
32.4587

>  <SCORE.INTER.VDW>
-32.8595

>  <SCORE.INTER.norm>
-1.08356

>  <SCORE.INTRA>
-0.738345

>  <SCORE.INTRA.DIHEDRAL>
-3.26348

>  <SCORE.INTRA.DIHEDRAL.0>
29.7866

>  <SCORE.INTRA.POLAR>
-0.205064

>  <SCORE.INTRA.POLAR.0>
-0.984091

>  <SCORE.INTRA.REPUL>
-0.210298

>  <SCORE.INTRA.REPUL.0>
0.274115

>  <SCORE.INTRA.SOLV>
-1.10972

>  <SCORE.INTRA.SOLV.lig_0>
-152.978

>  <SCORE.INTRA.VDW>
3.19696

>  <SCORE.INTRA.VDW.0>
-6.10719

>  <SCORE.INTRA.norm>
-0.0175796

>  <SCORE.RESTR>
0

>  <SCORE.RESTR.CAVITY>
0

>  <SCORE.RESTR.norm>
0

>  <SCORE.SYSTEM>
0

>  <SCORE.SYSTEM.CONST>
0

>  <SCORE.SYSTEM.DIHEDRAL>
0

>  <SCORE.SYSTEM.SOLV>
0

>  <SCORE.SYSTEM.norm>
0

>  <SCORE.heavy>
42

>  <SCORE.norm>
-1.10114

>  <RMSD>
2.126

$$$$
1pbr
 OpenBabel11021811403D
libRbt.so/2013.1/901 2013/11/27
 42 45  0  0  0  0  0  0  0  0999 V2000
    2.1539   -0.1182   44.4084 C   0  0  2  0  0  0  0  0  0  0  0  0
    2.0330   -1.5623   44.3536 O   0  0  0  0  0  0  0  0  0  0  0  0
    3.4792    0.3046   45.1451 C   0  0  2  0  0  0  0  0  0  0  0  0
    4.6672   -0.5171   44.7963 N   0  3  0  0  0  0  0  0  0  0  0  0
    3.3296    0.2182   46.6758 C   0  0  1  0  0  0  0  0  0  0  0  0
    4.4300    0.8483   47.3281 O   0  0  0  0  0  0  0  0  0  0  0  0
    2.0189    0.8711   47.1399 C   0  0  2  0  0  0  0  0  0  0  0  0
    1.9189    0.8206   48.5596 O   0  0  0  0  0  0  0  0  0  0  0  0
    0.8056    0.2222   46.4376 C   0  0  2  0  0  0  0  0  0  0  0  0
    0.9667    0.4553   45.0223 O   0  0  0  0  0  0  0  0  0  0  0  0
   -0.5450    0.7994   46.8579 C   0  0  0  0  0  0  0  0  0  0  0  0
   -0.9241    0.3367   48.1474 O   0  0  0  0  0  0  0  0  0  0  0  0
   -0.1254   -4.5697   42.2311 C   0  0  1  0  0  0  0  0  0  0  0  0
   -1.0832   -5.3526   41.4289 N   0  3  0  0  0  0  0  0  0  0  0  0
    0.6631   -3.5383   41.3684 C   0  0  2  0  0  0  0  0  0  0  0  0
    1.3843   -4.2031   40.3338 O   0  0  0  0  0  0  0  0  0  0  0  0
    1.6760   -2.7338   42.2346 C   0  0  1  0  0  0  0  0  0  0  0  0
    2.2554   -1.6772   41.4131 O   0  0  0  0  0  0  0  0  0  0  0  0
    0.9995   -2.1007   43.4943 C   0  0  1  0  0  0  0  0  0  0  0  0
    0.1677   -3.1338   44.3198 C   0  0  1  0  0  0  0  0  0  0  0  0
   -0.5400   -2.4867   45.4467 N   0  3  0  0  0  0  0  0  0  0  0  0
   -0.8552   -3.8632   43.4109 C   0  0  0  0  0  0  0  0  0  0  0  0
    2.2742   -0.2979   41.9021 C   0  0  1  0  0  0  0  0  0  0  0  0
    3.3542    0.4840   41.1312 C   0  0  2  0  0  0  0  0  0  0  0  0
    3.8285    1.5898   41.8945 O   0  0  0  0  0  0  0  0  0  0  0  0
    2.5147    0.9278   39.9237 C   0  0  1  0  0  0  0  0  0  0  0  0
    1.2084    1.3521   40.5743 C   0  0  2  0  0  0  0  0  0  0  0  0
    1.0384    0.3639   41.5789 O   0  0  0  0  0  0  0  0  0  0  0  0
   -0.0085    1.3779   39.6404 C   0  0  0  0  0  0  0  0  0  0  0  0
   -1.1856    1.6632   40.3816 O   0  0  0  0  0  0  0  0  0  0  0  0
    1.9812    3.1826   35.1181 C   0  0  1  0  0  0  0  0  0  0  0  0
    2.1457    4.5823   35.3388 O   0  0  0  0  0  0  0  0  0  0  0  0
    3.3516    2.4695   35.2889 C   0  0  2  0  0  0  0  0  0  0  0  0
    3.2608    1.1686   34.7127 O   0  0  0  0  0  0  0  0  0  0  0  0
    3.8564    2.3326   36.7628 C   0  0  1  0  0  0  0  0  0  0  0  0
    4.5675    3.5615   37.1791 N   0  3  0  0  0  0  0  0  0  0  0  0
    2.7096    1.9448   37.7329 C   0  0  1  0  0  0  0  0  0  0  0  0
    3.0727    2.0138   39.1337 O   0  0  0  0  0  0  0  0  0  0  0  0
    0.9574    2.5971   36.1229 C   0  0  1  0  0  0  0  0  0  0  0  0
    1.5130    2.7484   37.4579 O   0  0  0  0  0  0  0  0  0  0  0  0
   -0.4406    3.2368   36.0319 C   0  0  0  0  0  0  0  0  0  0  0  0
   -1.3267    2.8303   37.1401 N   0  3  0  0  0  0  0  0  0  0  0  0
  1  2  1  1  0  0  0
  1  3  1  0  0  0  0
  1 10  1  0  0  0  0
  3  4  1  6  0  0  0
  3  5  1  0  0  0  0
  5  6  1  1  0  0  0
  5  7  1  0  0  0  0
  7  8  1  1  0  0  0
  7  9  1  0  0  0  0
  9 10  1  0  0  0  0
  9 11  1  1  0  0  0
 11 12  1  0  0  0  0
 13 14  1  6  0  0  0
 13 15  1  0  0  0  0
 13 22  1  0  0  0  0
 15 16  1  6  0  0  0
 15 17  1  0  0  0  0
 17 18  1  6  0  0  0
 17 19  1  0  0  0  0
 19  2  1  1  0  0  0
 19 20  1  0  0  0  0
 20 21  1  1  0  0  0
 20 22  1  0  0  0  0
 23 18  1  6  0  0  0
 23 24  1  0  0  0  0
 23 28  1  0  0  0  0
 24 25  1  1  0  0  0
 24 26  1  0  0  0  0
 26 27  1  0  0  0  0
 26 38  1  1  0  0  0
 27 28  1  0  0  0  0
 27 29  1  6  0  0  0
 29 30  1  0  0  0  0
 31 32  1  1  0  0  0
 31 33  1  0  0  0  0
 31 39  1  0  0  0  0
 33 34  1  1  0  0  0
 33 35  1  0  0  0  0
 35 36  1  1  0  0  0
 35 37  1  0  0  0  0
 37 38  1  1  0  0  0
 37 40  1  0  0  0  0
 39 40  1  0  0  0  0
 39 41  1  1  0  0  0
 41 42  1  0  0  0  0
M  CHG  5   4   1  14   1  21   1  36   1  42   1
M  END
>  <CHROM.1>
-168.82549475,107.41124384,157.63385916,49.08976776,-54.00313279,-75.34989977
50.04603540,104.08040463,67.16680900,129.45733987,159.44157404,48.37564874
174.02788128,149.34610447,174.49466835,-159.01461812,55.25163218,-65.00768142
65.89496508,-140.70368440,-170.27691478,-175.67665506,1.60200718,0.23570018
41.57453512,-1.72569236,-1.04949093,-1.34384759

>  <Name>
1pbr

>  <RI>
0

>  <Rbt.Current_Directory>
/home/itssahil/PROJECTS/Mol_Feturizer/New_Systems/rnas/1pbr

>  <Rbt.Executable>
rbdock ($Id: //depot/dev/client3/rdock/2013.1/src/exe/rbdock.cxx#4 $)

>  <Rbt.Library>
libRbt.so (2013.1, Build901 2013/11/27)

>  <Rbt.Parameter_File>
/export/apps/rDock/src/rDock_2013.1_src/data/scripts/dock_solv.prm

>  <Rbt.Receptor>
prm/pocket_docking_3.prm

>  <SCORE>
-47.7326

>  <SCORE.INTER>
-60.2651

>  <SCORE.INTER.CONST>
1

>  <SCORE.INTER.POLAR>
-6.82351

>  <SCORE.INTER.ROT>
9

>  <SCORE.INTER.SOLV>
39.5222

>  <SCORE.INTER.VDW>
-40.2057

>  <SCORE.INTER.norm>
-1.43488

>  <SCORE.INTRA>
12.4372

>  <SCORE.INTRA.DIHEDRAL>
5.39372

>  <SCORE.INTRA.DIHEDRAL.0>
29.7866

>  <SCORE.INTRA.POLAR>
0.663885

>  <SCORE.INTRA.POLAR.0>
-0.984091

>  <SCORE.INTRA.REPUL>
-0.274115

>  <SCORE.INTRA.REPUL.0>
0.274115

>  <SCORE.INTRA.SOLV>
3.65473

>  <SCORE.INTRA.SOLV.lig_0>
-152.978

>  <SCORE.INTRA.VDW>
7.0263

>  <SCORE.INTRA.VDW.0>
-6.10719

>  <SCORE.INTRA.norm>
0.296123

>  <SCORE.RESTR>
0.0953402

>  <SCORE.RESTR.CAVITY>
0.0953402

>  <SCORE.RESTR.norm>
0.00227001

>  <SCORE.SYSTEM>
0

>  <SCORE.SYSTEM.CONST>
0

>  <SCORE.SYSTEM.DIHEDRAL>
0

>  <SCORE.SYSTEM.SOLV>
0

>  <SCORE.SYSTEM.norm>
0

>  <SCORE.heavy>
42

>  <SCORE.norm>
-1.13649

>  <RMSD>
2.132

$$$$
1pbr
 OpenBabel11021811403D
libRbt.so/2013.1/901 2013/11/27
 42 45  0  0  0  0  0  0  0  0999 V2000
    1.2771   -2.6717   44.1897 C   0  0  2  0  0  0  0  0  0  0  0  0
    2.0359   -3.2592   43.1025 O   0  0  0  0  0  0  0  0  0  0  0  0
    0.6016   -1.3240   43.7359 C   0  0  2  0  0  0  0  0  0  0  0  0
    0.0186   -1.3565   42.3694 N   0  3  0  0  0  0  0  0  0  0  0  0
    1.6041   -0.1545   43.7493 C   0  0  1  0  0  0  0  0  0  0  0  0
    0.9292    1.0922   43.5964 O   0  0  0  0  0  0  0  0  0  0  0  0
    2.4165   -0.1390   45.0529 C   0  0  2  0  0  0  0  0  0  0  0  0
    3.3060    0.9732   45.0659 O   0  0  0  0  0  0  0  0  0  0  0  0
    3.1478   -1.4842   45.2581 C   0  0  2  0  0  0  0  0  0  0  0  0
    2.1305   -2.5035   45.3553 O   0  0  0  0  0  0  0  0  0  0  0  0
    3.9994   -1.5483   46.5249 C   0  0  0  0  0  0  0  0  0  0  0  0
    3.2195   -1.2843   47.6837 O   0  0  0  0  0  0  0  0  0  0  0  0
    0.9357   -6.5430   40.6097 C   0  0  1  0  0  0  0  0  0  0  0  0
    0.3034   -7.4707   39.6539 N   0  3  0  0  0  0  0  0  0  0  0  0
    1.5873   -5.3176   39.9001 C   0  0  2  0  0  0  0  0  0  0  0  0
    2.5800   -5.7496   38.9725 O   0  0  0  0  0  0  0  0  0  0  0  0
    2.2586   -4.3604   40.9280 C   0  0  1  0  0  0  0  0  0  0  0  0
    2.6972   -3.1584   40.2281 O   0  0  0  0  0  0  0  0  0  0  0  0
    1.2839   -3.9621   42.0841 C   0  0  1  0  0  0  0  0  0  0  0  0
    0.5962   -5.1966   42.7502 C   0  0  1  0  0  0  0  0  0  0  0  0
   -0.3927   -4.7840   43.7707 N   0  3  0  0  0  0  0  0  0  0  0  0
   -0.0955   -6.0805   41.6803 C   0  0  0  0  0  0  0  0  0  0  0  0
    4.1245   -2.8517   40.1255 C   0  0  1  0  0  0  0  0  0  0  0  0
    4.3677   -2.0656   38.8235 C   0  0  2  0  0  0  0  0  0  0  0  0
    5.7070   -2.2329   38.3670 O   0  0  0  0  0  0  0  0  0  0  0  0
    4.1042   -0.6455   39.3466 C   0  0  1  0  0  0  0  0  0  0  0  0
    4.8185   -0.6555   40.6879 C   0  0  2  0  0  0  0  0  0  0  0  0
    4.5198   -1.9538   41.1777 O   0  0  0  0  0  0  0  0  0  0  0  0
    4.3500    0.4116   41.6857 C   0  0  0  0  0  0  0  0  0  0  0  0
    4.8578    0.1246   42.9803 O   0  0  0  0  0  0  0  0  0  0  0  0
    1.8314    2.8765   36.2562 C   0  0  1  0  0  0  0  0  0  0  0  0
    2.0960    4.0773   36.9792 O   0  0  0  0  0  0  0  0  0  0  0  0
    3.1225    2.4238   35.5188 C   0  0  2  0  0  0  0  0  0  0  0  0
    2.7650    1.4667   34.5245 O   0  0  0  0  0  0  0  0  0  0  0  0
    4.2348    1.8101   36.4309 C   0  0  1  0  0  0  0  0  0  0  0  0
    5.0732    2.8819   37.0116 N   0  3  0  0  0  0  0  0  0  0  0  0
    3.6421    0.8622   37.5066 C   0  0  1  0  0  0  0  0  0  0  0  0
    4.5977    0.4358   38.5087 O   0  0  0  0  0  0  0  0  0  0  0  0
    1.3617    1.7601   37.2225 C   0  0  1  0  0  0  0  0  0  0  0  0
    2.4605    1.4699   38.1292 O   0  0  0  0  0  0  0  0  0  0  0  0
    0.0808    2.1099   38.0029 C   0  0  0  0  0  0  0  0  0  0  0  0
    0.2373    3.3110   38.8464 N   0  3  0  0  0  0  0  0  0  0  0  0
  1  2  1  6  0  0  0
  1  3  1  0  0  0  0
  1 10  1  0  0  0  0
  3  4  1  6  0  0  0
  3  5  1  0  0  0  0
  5  6  1  1  0  0  0
  5  7  1  0  0  0  0
  7  8  1  6  0  0  0
  7  9  1  0  0  0  0
  9 10  1  0  0  0  0
  9 11  1  1  0  0  0
 11 12  1  0  0  0  0
 13 14  1  6  0  0  0
 13 15  1  0  0  0  0
 13 22  1  0  0  0  0
 15 16  1  6  0  0  0
 15 17  1  0  0  0  0
 17 18  1  6  0  0  0
 17 19  1  0  0  0  0
 19  2  1  1  0  0  0
 19 20  1  0  0  0  0
 20 21  1  1  0  0  0
 20 22  1  0  0  0  0
 23 18  1  1  0  0  0
 23 24  1  0  0  0  0
 23 28  1  0  0  0  0
 24 25  1  1  0  0  0
 24 26  1  0  0  0  0
 26 27  1  0  0  0  0
 26 38  1  6  0  0  0
 27 28  1  0  0  0  0
 27 29  1  1  0  0  0
 29 30  1  0  0  0  0
 31 32  1  1  0  0  0
 31 33  1  0  0  0  0
 31 39  1  0  0  0  0
 33 34  1  6  0  0  0
 33 35  1  0  0  0  0
 35 36  1  1  0  0  0
 35 37  1  0  0  0  0
 37 38  1  1  0  0  0
 37 40  1  0  0  0  0
 39 40  1  0  0  0  0
 39 41  1  1  0  0  0
 41 42  1  0  0  0  0
M  CHG  5   4   1  14   1  21   1  36   1  42   1
M  END
>  <CHROM.1>
-78.19078389,173.12128687,-170.37804288,-65.62620708,170.62231968,57.07626895
-61.33540218,-51.63864771,68.29721159,-114.73971321,150.44152532,155.88926528
69.67454125,88.56238728,166.98457201,96.74536902,-49.95335161,61.92299062
-161.08636006,-168.63862954,-60.26865606,125.77617859,2.49691735,-1.16929142
40.82692090,-2.33328798,-1.35815861,-1.64289938

>  <Name>
1pbr

>  <RI>
0

>  <Rbt.Current_Directory>
/home/itssahil/PROJECTS/Mol_Feturizer/New_Systems/rnas/1pbr

>  <Rbt.Executable>
rbdock ($Id: //depot/dev/client3/rdock/2013.1/src/exe/rbdock.cxx#4 $)

>  <Rbt.Library>
libRbt.so (2013.1, Build901 2013/11/27)

>  <Rbt.Parameter_File>
/export/apps/rDock/src/rDock_2013.1_src/data/scripts/dock_solv.prm

>  <Rbt.Receptor>
prm/pocket_docking_2.prm

>  <SCORE>
-16.9575

>  <SCORE.INTER>
-28.535

>  <SCORE.INTER.CONST>
1

>  <SCORE.INTER.POLAR>
-4.55663

>  <SCORE.INTER.ROT>
9

>  <SCORE.INTER.SOLV>
29.5509

>  <SCORE.INTER.VDW>
-23.2849

>  <SCORE.INTER.norm>
-0.679406

>  <SCORE.INTRA>
8.99027

>  <SCORE.INTRA.DIHEDRAL>
0.508225

>  <SCORE.INTRA.DIHEDRAL.0>
29.7866

>  <SCORE.INTRA.POLAR>
0.666348

>  <SCORE.INTRA.POLAR.0>
-0.984091

>  <SCORE.INTRA.REPUL>
-0.0320868

>  <SCORE.INTRA.REPUL.0>
0.274115

>  <SCORE.INTRA.SOLV>
7.0381

>  <SCORE.INTRA.SOLV.lig_0>
-152.978

>  <SCORE.INTRA.VDW>
3.11196

>  <SCORE.INTRA.VDW.0>
-6.10719

>  <SCORE.INTRA.norm>
0.214054

>  <SCORE.RESTR>
2.5873

>  <SCORE.RESTR.CAVITY>
2.5873

>  <SCORE.RESTR.norm>
0.0616024

>  <SCORE.SYSTEM>
0

>  <SCORE.SYSTEM.CONST>
0

>  <SCORE.SYSTEM.DIHEDRAL>
0

>  <SCORE.SYSTEM.SOLV>
0

>  <SCORE.SYSTEM.norm>
0

>  <SCORE.heavy>
42

>  <SCORE.norm>
-0.403749

>  <RMSD>
2.175

$$$$
1pbr
 OpenBabel11021811403D
libRbt.so/2013.1/901 2013/11/27
 42 45  0  0  0  0  0  0  0  0999 V2000
    1.4026   -1.7404   45.2671 C   0  0  2  0  0  0  0  0  0  0  0  0
    0.8058   -1.4241   43.9837 O   0  0  0  0  0  0  0  0  0  0  0  0
    1.1010   -0.6081   46.3184 C   0  0  2  0  0  0  0  0  0  0  0  0
   -0.2842   -0.0724   46.2667 N   0  3  0  0  0  0  0  0  0  0  0  0
    2.0378    0.6007   46.1346 C   0  0  1  0  0  0  0  0  0  0  0  0
    1.9359    1.4929   47.2423 O   0  0  0  0  0  0  0  0  0  0  0  0
    3.4973    0.1486   45.9756 C   0  0  2  0  0  0  0  0  0  0  0  0
    4.3529    1.2803   45.8508 O   0  0  0  0  0  0  0  0  0  0  0  0
    3.6399   -0.8344   44.7925 C   0  0  2  0  0  0  0  0  0  0  0  0
    2.8269   -1.9856   45.1041 O   0  0  0  0  0  0  0  0  0  0  0  0
    5.0679   -1.3200   44.5491 C   0  0  0  0  0  0  0  0  0  0  0  0
    5.9069   -1.0299   45.6593 O   0  0  0  0  0  0  0  0  0  0  0  0
    0.4727   -5.5006   42.7675 C   0  0  1  0  0  0  0  0  0  0  0  0
    0.1257   -6.7852   42.1325 N   0  3  0  0  0  0  0  0  0  0  0  0
    1.2165   -4.5407   41.7902 C   0  0  2  0  0  0  0  0  0  0  0  0
    2.4180   -5.1451   41.3174 O   0  0  0  0  0  0  0  0  0  0  0  0
    1.5832   -3.1977   42.4869 C   0  0  1  0  0  0  0  0  0  0  0  0
    2.1189   -2.2838   41.4845 O   0  0  0  0  0  0  0  0  0  0  0  0
    0.3470   -2.5394   43.1824 C   0  0  1  0  0  0  0  0  0  0  0  0
   -0.4212   -3.5281   44.1167 C   0  0  1  0  0  0  0  0  0  0  0  0
   -1.6399   -2.9076   44.6816 N   0  3  0  0  0  0  0  0  0  0  0  0
   -0.8011   -4.8213   43.3501 C   0  0  0  0  0  0  0  0  0  0  0  0
    3.5304   -2.3601   41.1053 C   0  0  1  0  0  0  0  0  0  0  0  0
    3.6570   -2.0304   39.6062 C   0  0  2  0  0  0  0  0  0  0  0  0
    4.8263   -2.6235   39.0485 O   0  0  0  0  0  0  0  0  0  0  0  0
    3.7702   -0.5016   39.7044 C   0  0  1  0  0  0  0  0  0  0  0  0
    4.7180   -0.3207   40.8786 C   0  0  2  0  0  0  0  0  0  0  0  0
    4.2839   -1.3330   41.7738 O   0  0  0  0  0  0  0  0  0  0  0  0
    4.6607    1.0532   41.5589 C   0  0  0  0  0  0  0  0  0  0  0  0
    3.4300    1.2032   42.2513 O   0  0  0  0  0  0  0  0  0  0  0  0
    1.8861    2.4272   35.7211 C   0  0  1  0  0  0  0  0  0  0  0  0
    2.7460    3.5651   35.6989 O   0  0  0  0  0  0  0  0  0  0  0  0
    2.6462    1.1958   35.1541 C   0  0  2  0  0  0  0  0  0  0  0  0
    1.6946    0.1836   34.8337 O   0  0  0  0  0  0  0  0  0  0  0  0
    3.7315    0.5846   36.0998 C   0  0  1  0  0  0  0  0  0  0  0  0
    5.0129    1.3083   35.9475 N   0  3  0  0  0  0  0  0  0  0  0  0
    3.2472    0.5247   37.5725 C   0  0  1  0  0  0  0  0  0  0  0  0
    4.2834    0.1692   38.5206 O   0  0  0  0  0  0  0  0  0  0  0  0
    1.4207    2.1338   37.1696 C   0  0  1  0  0  0  0  0  0  0  0  0
    2.5974    1.7853   37.9492 O   0  0  0  0  0  0  0  0  0  0  0  0
    0.6504    3.2959   37.8239 C   0  0  0  0  0  0  0  0  0  0  0  0
   -0.6106    3.6096   37.1240 N   0  3  0  0  0  0  0  0  0  0  0  0
  1  2  1  6  0  0  0
  1  3  1  0  0  0  0
  1 10  1  0  0  0  0
  3  4  1  6  0  0  0
  3  5  1  0  0  0  0
  5  6  1  1  0  0  0
  5  7  1  0  0  0  0
  7  8  1  6  0  0  0
  7  9  1  0  0  0  0
  9 10  1  0  0  0  0
  9 11  1  1  0  0  0
 11 12  1  0  0  0  0
 13 14  1  6  0  0  0
 13 15  1  0  0  0  0
 13 22  1  0  0  0  0
 15 16  1  1  0  0  0
 15 17  1  0  0  0  0
 17 18  1  6  0  0  0
 17 19  1  0  0  0  0
 19  2  1  1  0  0  0
 19 20  1  0  0  0  0
 20 21  1  6  0  0  0
 20 22  1  0  0  0  0
 23 18  1  1  0  0  0
 23 24  1  0  0  0  0
 23 28  1  0  0  0  0
 24 25  1  1  0  0  0
 24 26  1  0  0  0  0
 26 27  1  0  0  0  0
 26 38  1  6  0  0  0
 27 28  1  0  0  0  0
 27 29  1  1  0  0  0
 29 30  1  0  0  0  0
 31 32  1  1  0  0  0
 31 33  1  0  0  0  0
 31 39  1  0  0  0  0
 33 34  1  1  0  0  0
 33 35  1  0  0  0  0
 35 36  1  1  0  0  0
 35 37  1  0  0  0  0
 37 38  1  1  0  0  0
 37 40  1  0  0  0  0
 39 40  1  0  0  0  0
 39 41  1  1  0  0  0
 41 42  1  0  0  0  0
M  CHG  5   4   1  14   1  21   1  36   1  42   1
M  END
>  <CHROM.1>
-147.37948735,-78.52176843,65.55303421,178.46390222,68.16485605,14.63330153
-67.24880410,-49.58942907,67.60981443,-83.46649972,145.13893044,-153.06829230
-61.23513151,88.56187728,69.51604671,-179.15449245,55.46388188,178.05745582
-60.74192651,-151.87108165,62.98324057,49.91238180,2.38439089,-0.75041659
41.42733510,-1.86539657,-1.17312772,-1.44323289

>  <Name>
1pbr

>  <RI>
0

>  <Rbt.Current_Directory>
/home/itssahil/PROJECTS/Mol_Feturizer/New_Systems/rnas/1pbr

>  <Rbt.Executable>
rbdock ($Id: //depot/dev/client3/rdock/2013.1/src/exe/rbdock.cxx#4 $)

>  <Rbt.Library>
libRbt.so (2013.1, Build901 2013/11/27)

>  <Rbt.Parameter_File>
/export/apps/rDock/src/rDock_2013.1_src/data/scripts/dock_solv.prm

>  <Rbt.Receptor>
prm/pocket_docking_2.prm

>  <SCORE>
-25.7266

>  <SCORE.INTER>
-30.2787

>  <SCORE.INTER.CONST>
1

>  <SCORE.INTER.POLAR>
-4.08818

>  <SCORE.INTER.ROT>
9

>  <SCORE.INTER.SOLV>
21.5838

>  <SCORE.INTER.VDW>
-23.3531

>  <SCORE.INTER.norm>
-0.720922

>  <SCORE.INTRA>
2.3589

>  <SCORE.INTRA.DIHEDRAL>
-2.18749

>  <SCORE.INTRA.DIHEDRAL.0>
29.7866

>  <SCORE.INTRA.POLAR>
0.704387

>  <SCORE.INTRA.POLAR.0>
-0.984091

>  <SCORE.INTRA.REPUL>
-0.120642

>  <SCORE.INTRA.REPUL.0>
0.274115

>  <SCORE.INTRA.SOLV>
1.46955

>  <SCORE.INTRA.SOLV.lig_0>
-152.978

>  <SCORE.INTRA.VDW>
0.926168

>  <SCORE.INTRA.VDW.0>
-6.10719

>  <SCORE.INTRA.norm>
0.0561644

>  <SCORE.RESTR>
2.19321

>  <SCORE.RESTR.CAVITY>
2.19321

>  <SCORE.RESTR.norm>
0.0522192

>  <SCORE.SYSTEM>
0

>  <SCORE.SYSTEM.CONST>
0

>  <SCORE.SYSTEM.DIHEDRAL>
0

>  <SCORE.SYSTEM.SOLV>
0

>  <SCORE.SYSTEM.norm>
0

>  <SCORE.heavy>
42

>  <SCORE.norm>
-0.612539

>  <RMSD>
2.186

$$$$
1pbr
 OpenBabel11021811403D
libRbt.so/2013.1/901 2013/11/27
 42 45  0  0  0  0  0  0  0  0999 V2000
    1.5150   -0.5498   44.5846 C   0  0  2  0  0  0  0  0  0  0  0  0
    1.5937   -1.9959   44.6597 O   0  0  0  0  0  0  0  0  0  0  0  0
    2.9050    0.1046   44.9281 C   0  0  2  0  0  0  0  0  0  0  0  0
    4.0775   -0.5966   44.3433 N   0  3  0  0  0  0  0  0  0  0  0  0
    3.1475    0.1559   46.4484 C   0  0  1  0  0  0  0  0  0  0  0  0
    4.2713    0.9787   46.7541 O   0  0  0  0  0  0  0  0  0  0  0  0
    1.9098    0.6869   47.1870 C   0  0  2  0  0  0  0  0  0  0  0  0
    2.1676    0.7684   48.5853 O   0  0  0  0  0  0  0  0  0  0  0  0
    0.6682   -0.1735   46.8634 C   0  0  2  0  0  0  0  0  0  0  0  0
    0.4437   -0.0668   45.4416 O   0  0  0  0  0  0  0  0  0  0  0  0
   -0.6076    0.2735   47.5751 C   0  0  0  0  0  0  0  0  0  0  0  0
   -0.8722    1.6505   47.3416 O   0  0  0  0  0  0  0  0  0  0  0  0
    0.5979   -5.1951   42.0174 C   0  0  1  0  0  0  0  0  0  0  0  0
   -0.0472   -6.1436   41.0911 N   0  3  0  0  0  0  0  0  0  0  0  0
    0.8342   -3.7998   41.3639 C   0  0  2  0  0  0  0  0  0  0  0  0
    1.6577   -3.9253   40.2069 O   0  0  0  0  0  0  0  0  0  0  0  0
    1.5272   -2.8209   42.3564 C   0  0  1  0  0  0  0  0  0  0  0  0
    1.5662   -1.4943   41.7516 O   0  0  0  0  0  0  0  0  0  0  0  0
    0.7782   -2.7453   43.7269 C   0  0  1  0  0  0  0  0  0  0  0  0
    0.4993   -4.1530   44.3443 C   0  0  1  0  0  0  0  0  0  0  0  0
   -0.2961   -4.0542   45.5881 N   0  3  0  0  0  0  0  0  0  0  0  0
   -0.2362   -5.0611   43.3250 C   0  0  0  0  0  0  0  0  0  0  0  0
    2.5805   -1.1793   40.7447 C   0  0  1  0  0  0  0  0  0  0  0  0
    1.9022   -0.4408   39.5756 C   0  0  2  0  0  0  0  0  0  0  0  0
    2.6357   -0.6135   38.3664 O   0  0  0  0  0  0  0  0  0  0  0  0
    1.9944    0.9957   40.1120 C   0  0  1  0  0  0  0  0  0  0  0  0
    3.4052    1.0425   40.6750 C   0  0  2  0  0  0  0  0  0  0  0  0
    3.5331   -0.2390   41.2718 O   0  0  0  0  0  0  0  0  0  0  0  0
    3.6579    2.1423   41.7144 C   0  0  0  0  0  0  0  0  0  0  0  0
    5.0201    2.1306   42.1150 O   0  0  0  0  0  0  0  0  0  0  0  0
    3.9541    2.4918   35.4093 C   0  0  1  0  0  0  0  0  0  0  0  0
    2.8028    2.7982   34.6249 O   0  0  0  0  0  0  0  0  0  0  0  0
    4.1635    3.6046   36.4738 C   0  0  2  0  0  0  0  0  0  0  0  0
    5.4884    3.4957   36.9891 O   0  0  0  0  0  0  0  0  0  0  0  0
    3.1557    3.5861   37.6695 C   0  0  1  0  0  0  0  0  0  0  0  0
    1.9186    4.3141   37.3109 N   0  3  0  0  0  0  0  0  0  0  0  0
    2.8798    2.1440   38.1705 C   0  0  1  0  0  0  0  0  0  0  0  0
    1.7974    2.0489   39.1289 O   0  0  0  0  0  0  0  0  0  0  0  0
    3.7765    1.1221   36.1116 C   0  0  1  0  0  0  0  0  0  0  0  0
    2.6598    1.2410   37.0349 O   0  0  0  0  0  0  0  0  0  0  0  0
    3.5652   -0.0537   35.1396 C   0  0  0  0  0  0  0  0  0  0  0  0
    3.8433   -1.3636   35.7604 N   0  3  0  0  0  0  0  0  0  0  0  0
  1  2  1  1  0  0  0
  1  3  1  0  0  0  0
  1 10  1  0  0  0  0
  3  4  1  6  0  0  0
  3  5  1  0  0  0  0
  5  6  1  6  0  0  0
  5  7  1  0  0  0  0
  7  8  1  1  0  0  0
  7  9  1  0  0  0  0
  9 10  1  0  0  0  0
  9 11  1  1  0  0  0
 11 12  1  0  0  0  0
 13 14  1  6  0  0  0
 13 15  1  0  0  0  0
 13 22  1  0  0  0  0
 15 16  1  6  0  0  0
 15 17  1  0  0  0  0
 17 18  1  6  0  0  0
 17 19  1  0  0  0  0
 19  2  1  1  0  0  0
 19 20  1  0  0  0  0
 20 21  1  1  0  0  0
 20 22  1  0  0  0  0
 23 18  1  1  0  0  0
 23 24  1  0  0  0  0
 23 28  1  0  0  0  0
 24 25  1  6  0  0  0
 24 26  1  0  0  0  0
 26 27  1  0  0  0  0
 26 38  1  6  0  0  0
 27 28  1  0  0  0  0
 27 29  1  1  0  0  0
 29 30  1  0  0  0  0
 31 32  1  1  0  0  0
 31 33  1  0  0  0  0
 31 39  1  0  0  0  0
 33 34  1  1  0  0  0
 33 35  1  0  0  0  0
 35 36  1  6  0  0  0
 35 37  1  0  0  0  0
 37 38  1  1  0  0  0
 37 40  1  0  0  0  0
 39 40  1  0  0  0  0
 39 41  1  6  0  0  0
 41 42  1  0  0  0  0
M  CHG  5   4   1  14   1  21   1  36   1  42   1
M  END
>  <CHROM.1>
-146.13794751,82.12154263,174.34597423,-177.00234380,176.82107204,53.60590210
61.50923068,-41.59003965,64.99094194,-79.15648911,134.88514642,-48.59991063
-57.65393316,-69.13064498,-177.04816986,65.15580840,-64.84281335,-66.06023582
85.22959973,-147.38463258,160.93784670,172.29239660,2.22105659,-0.20034758
41.54136369,-2.28817708,-1.20495860,-1.91786581

>  <Name>
1pbr

>  <RI>
0

>  <Rbt.Current_Directory>
/home/itssahil/PROJECTS/Mol_Feturizer/New_Systems/rnas/1pbr

>  <Rbt.Executable>
rbdock ($Id: //depot/dev/client3/rdock/2013.1/src/exe/rbdock.cxx#4 $)

>  <Rbt.Library>
libRbt.so (2013.1, Build901 2013/11/27)

>  <Rbt.Parameter_File>
/export/apps/rDock/src/rDock_2013.1_src/data/scripts/dock_solv.prm

>  <Rbt.Receptor>
prm/pocket_docking_3.prm

>  <SCORE>
-42.5829

>  <SCORE.INTER>
-38.5177

>  <SCORE.INTER.CONST>
1

>  <SCORE.INTER.POLAR>
-3.75343

>  <SCORE.INTER.ROT>
9

>  <SCORE.INTER.SOLV>
31.876

>  <SCORE.INTER.VDW>
-33.3924

>  <SCORE.INTER.norm>
-0.917088

>  <SCORE.INTRA>
-4.13149

>  <SCORE.INTRA.DIHEDRAL>
-5.85618

>  <SCORE.INTRA.DIHEDRAL.0>
29.7866

>  <SCORE.INTRA.POLAR>
-1.29845

>  <SCORE.INTRA.POLAR.0>
-0.984091

>  <SCORE.INTRA.REPUL>
-0.274115

>  <SCORE.INTRA.REPUL.0>
0.274115

>  <SCORE.INTRA.SOLV>
2.6109

>  <SCORE.INTRA.SOLV.lig_0>
-152.978

>  <SCORE.INTRA.VDW>
3.27646

>  <SCORE.INTRA.VDW.0>
-6.10719

>  <SCORE.INTRA.norm>
-0.0983688

>  <SCORE.RESTR>
0.0662553

>  <SCORE.RESTR.CAVITY>
0.0662553

>  <SCORE.RESTR.norm>
0.00157751

>  <SCORE.SYSTEM>
0

>  <SCORE.SYSTEM.CONST>
0

>  <SCORE.SYSTEM.DIHEDRAL>
0

>  <SCORE.SYSTEM.SOLV>
0

>  <SCORE.SYSTEM.norm>
0

>  <SCORE.heavy>
42

>  <SCORE.norm>
-1.01388

>  <RMSD>
2.211

$$$$
1pbr
 OpenBabel11021811403D
libRbt.so/2013.1/901 2013/11/27
 42 45  0  0  0  0  0  0  0  0999 V2000
    3.3797   -1.5447   43.8769 C   0  0  2  0  0  0  0  0  0  0  0  0
    2.8216   -2.8710   44.0578 O   0  0  0  0  0  0  0  0  0  0  0  0
    4.9530   -1.5972   43.8625 C   0  0  2  0  0  0  0  0  0  0  0  0
    5.5245   -2.7418   43.1065 N   0  3  0  0  0  0  0  0  0  0  0  0
    5.5305   -1.6903   45.2874 C   0  0  1  0  0  0  0  0  0  0  0  0
    6.9395   -1.4713   45.2778 O   0  0  0  0  0  0  0  0  0  0  0  0
    4.8617   -0.6707   46.2217 C   0  0  2  0  0  0  0  0  0  0  0  0
    5.4382   -0.7416   47.5220 O   0  0  0  0  0  0  0  0  0  0  0  0
    3.3298   -0.8696   46.2419 C   0  0  2  0  0  0  0  0  0  0  0  0
    2.8606   -0.6456   44.8954 O   0  0  0  0  0  0  0  0  0  0  0  0
    2.5845    0.0928   47.1651 C   0  0  0  0  0  0  0  0  0  0  0  0
    2.7127    1.4367   46.7201 O   0  0  0  0  0  0  0  0  0  0  0  0
    0.4497   -5.5975   41.7890 C   0  0  1  0  0  0  0  0  0  0  0  0
   -0.5411   -6.2589   40.9201 N   0  3  0  0  0  0  0  0  0  0  0  0
    1.4268   -4.6878   40.9843 C   0  0  2  0  0  0  0  0  0  0  0  0
    2.1285   -5.4530   40.0073 O   0  0  0  0  0  0  0  0  0  0  0  0
    2.4702   -4.0114   41.9210 C   0  0  1  0  0  0  0  0  0  0  0  0
    3.2408   -3.0489   41.1420 O   0  0  0  0  0  0  0  0  0  0  0  0
    1.7921   -3.2807   43.1258 C   0  0  1  0  0  0  0  0  0  0  0  0
    0.7747   -4.1870   43.8901 C   0  0  1  0  0  0  0  0  0  0  0  0
    0.0773   -3.4400   44.9602 N   0  3  0  0  0  0  0  0  0  0  0  0
   -0.2657   -4.7882   42.9099 C   0  0  0  0  0  0  0  0  0  0  0  0
    4.0170   -3.4984   39.9855 C   0  0  1  0  0  0  0  0  0  0  0  0
    3.5189   -2.7487   38.7357 C   0  0  2  0  0  0  0  0  0  0  0  0
    3.7784   -3.4980   37.5519 O   0  0  0  0  0  0  0  0  0  0  0  0
    4.4030   -1.4966   38.8374 C   0  0  1  0  0  0  0  0  0  0  0  0
    5.7543   -2.0825   39.2121 C   0  0  2  0  0  0  0  0  0  0  0  0
    5.3944   -3.1076   40.1255 O   0  0  0  0  0  0  0  0  0  0  0  0
    6.7322   -1.1008   39.8706 C   0  0  0  0  0  0  0  0  0  0  0  0
    7.9493   -1.7617   40.1838 O   0  0  0  0  0  0  0  0  0  0  0  0
    1.2078    1.7814   36.3399 C   0  0  1  0  0  0  0  0  0  0  0  0
    1.8998    3.0177   36.5055 O   0  0  0  0  0  0  0  0  0  0  0  0
    1.9153    0.9376   35.2431 C   0  0  2  0  0  0  0  0  0  0  0  0
    1.0290   -0.0980   34.8254 O   0  0  0  0  0  0  0  0  0  0  0  0
    3.2764    0.2943   35.6666 C   0  0  1  0  0  0  0  0  0  0  0  0
    4.3816    1.2605   35.4820 N   0  3  0  0  0  0  0  0  0  0  0  0
    3.2192   -0.2847   37.1048 C   0  0  1  0  0  0  0  0  0  0  0  0
    4.5061   -0.6985   37.6262 O   0  0  0  0  0  0  0  0  0  0  0  0
    1.1876    0.9942   37.6743 C   0  0  1  0  0  0  0  0  0  0  0  0
    2.5623    0.6630   38.0123 O   0  0  0  0  0  0  0  0  0  0  0  0
    0.5015    1.7455   38.8306 C   0  0  0  0  0  0  0  0  0  0  0  0
   -0.9349    1.9801   38.5851 N   0  3  0  0  0  0  0  0  0  0  0  0
  1  2  1  1  0  0  0
  1  3  1  0  0  0  0
  1 10  1  0  0  0  0
  3  4  1  6  0  0  0
  3  5  1  0  0  0  0
  5  6  1  6  0  0  0
  5  7  1  0  0  0  0
  7  8  1  1  0  0  0
  7  9  1  0  0  0  0
  9 10  1  0  0  0  0
  9 11  1  1  0  0  0
 11 12  1  0  0  0  0
 13 14  1  6  0  0  0
 13 15  1  0  0  0  0
 13 22  1  0  0  0  0
 15 16  1  6  0  0  0
 15 17  1  0  0  0  0
 17 18  1  6  0  0  0
 17 19  1  0  0  0  0
 19  2  1  1  0  0  0
 19 20  1  0  0  0  0
 20 21  1  1  0  0  0
 20 22  1  0  0  0  0
 23 18  1  1  0  0  0
 23 24  1  0  0  0  0
 23 28  1  0  0  0  0
 24 25  1  6  0  0  0
 24 26  1  0  0  0  0
 26 27  1  0  0  0  0
 26 38  1  6  0  0  0
 27 28  1  0  0  0  0
 27 29  1  1  0  0  0
 29 30  1  0  0  0  0
 31 32  1  1  0  0  0
 31 33  1  0  0  0  0
 31 39  1  0  0  0  0
 33 34  1  1  0  0  0
 33 35  1  0  0  0  0
 35 36  1  1  0  0  0
 35 37  1  0  0  0  0
 37 38  1  1  0  0  0
 37 40  1  0  0  0  0
 39 40  1  0  0  0  0
 39 41  1  1  0  0  0
 41 42  1  0  0  0  0
M  CHG  5   4   1  14   1  21   1  36   1  42   1
M  END
>  <CHROM.1>
-129.88573057,91.33442160,-66.46394314,58.86742851,-60.08271747,64.64344737
-62.89123791,-168.02305845,-55.57987421,-59.78521312,121.08838238,61.19296969
65.02399936,55.21929617,179.52075034,62.21276505,178.99041472,74.55305700
-86.54655435,-167.37194493,64.16738212,159.21479607,3.07772505,-1.54819624
41.00268704,-1.38919883,-0.83587463,-1.17554139

>  <Name>
1pbr

>  <RI>
0

>  <Rbt.Current_Directory>
/home/itssahil/PROJECTS/Mol_Feturizer/New_Systems/rnas/1pbr

>  <Rbt.Executable>
rbdock ($Id: //depot/dev/client3/rdock/2013.1/src/exe/rbdock.cxx#4 $)

>  <Rbt.Library>
libRbt.so (2013.1, Build901 2013/11/27)

>  <Rbt.Parameter_File>
/export/apps/rDock/src/rDock_2013.1_src/data/scripts/dock_solv.prm

>  <Rbt.Receptor>
prm/pocket_docking_5.prm

>  <SCORE>
-32.718

>  <SCORE.INTER>
-26.5367

>  <SCORE.INTER.CONST>
1

>  <SCORE.INTER.POLAR>
-3.50911

>  <SCORE.INTER.ROT>
9

>  <SCORE.INTER.SOLV>
24.287

>  <SCORE.INTER.VDW>
-23.6898

>  <SCORE.INTER.norm>
-0.631826

>  <SCORE.INTRA>
-6.18129

>  <SCORE.INTRA.DIHEDRAL>
-6.17368

>  <SCORE.INTRA.DIHEDRAL.0>
29.7866

>  <SCORE.INTRA.POLAR>
-0.901257

>  <SCORE.INTRA.POLAR.0>
-0.984091

>  <SCORE.INTRA.REPUL>
-0.274115

>  <SCORE.INTRA.REPUL.0>
0.274115

>  <SCORE.INTRA.SOLV>
1.35324

>  <SCORE.INTRA.SOLV.lig_0>
-152.978

>  <SCORE.INTRA.VDW>
0.663775

>  <SCORE.INTRA.VDW.0>
-6.10719

>  <SCORE.INTRA.norm>
-0.147174

>  <SCORE.RESTR>
0

>  <SCORE.RESTR.CAVITY>
0

>  <SCORE.RESTR.norm>
0

>  <SCORE.SYSTEM>
0

>  <SCORE.SYSTEM.CONST>
0

>  <SCORE.SYSTEM.DIHEDRAL>
0

>  <SCORE.SYSTEM.SOLV>
0

>  <SCORE.SYSTEM.norm>
0

>  <SCORE.heavy>
42

>  <SCORE.norm>
-0.779

>  <RMSD>
2.223

$$$$
1pbr
 OpenBabel11021811403D
libRbt.so/2013.1/901 2013/11/27
 42 45  0  0  0  0  0  0  0  0999 V2000
    1.3760   -0.2956   44.5066 C   0  0  2  0  0  0  0  0  0  0  0  0
    1.5108   -1.7386   44.5584 O   0  0  0  0  0  0  0  0  0  0  0  0
    2.7561    0.4057   44.7922 C   0  0  2  0  0  0  0  0  0  0  0  0
    3.9238   -0.2447   44.1427 N   0  3  0  0  0  0  0  0  0  0  0  0
    3.0696    0.4482   46.2997 C   0  0  1  0  0  0  0  0  0  0  0  0
    4.1760    1.3084   46.5625 O   0  0  0  0  0  0  0  0  0  0  0  0
    1.8504    0.9243   47.1037 C   0  0  2  0  0  0  0  0  0  0  0  0
    2.1721    0.9990   48.4890 O   0  0  0  0  0  0  0  0  0  0  0  0
    0.6268    0.0224   46.8281 C   0  0  2  0  0  0  0  0  0  0  0  0
    0.3303    0.1373   45.4202 O   0  0  0  0  0  0  0  0  0  0  0  0
   -0.6286    0.4135   47.6058 C   0  0  0  0  0  0  0  0  0  0  0  0
   -1.1621    1.6449   47.1373 O   0  0  0  0  0  0  0  0  0  0  0  0
   -0.3144   -5.2599   42.9846 C   0  0  1  0  0  0  0  0  0  0  0  0
   -1.1763   -6.2571   42.3238 N   0  3  0  0  0  0  0  0  0  0  0  0
    0.4075   -4.3324   41.9607 C   0  0  2  0  0  0  0  0  0  0  0  0
    1.2143   -5.1034   41.0735 O   0  0  0  0  0  0  0  0  0  0  0  0
    1.3204   -3.2976   42.6813 C   0  0  1  0  0  0  0  0  0  0  0  0
    1.8307   -2.3568   41.6905 O   0  0  0  0  0  0  0  0  0  0  0  0
    0.5541   -2.5134   43.7961 C   0  0  1  0  0  0  0  0  0  0  0  0
   -0.2096   -3.4532   44.7831 C   0  0  1  0  0  0  0  0  0  0  0  0
   -1.0042   -2.6818   45.7645 N   0  3  0  0  0  0  0  0  0  0  0  0
   -1.1377   -4.4230   44.0068 C   0  0  0  0  0  0  0  0  0  0  0  0
    3.1719   -2.5373   41.1334 C   0  0  1  0  0  0  0  0  0  0  0  0
    3.0483   -2.7737   39.6166 C   0  0  2  0  0  0  0  0  0  0  0  0
    4.1654   -3.5053   39.1196 O   0  0  0  0  0  0  0  0  0  0  0  0
    3.0530   -1.3121   39.1437 C   0  0  1  0  0  0  0  0  0  0  0  0
    4.1470   -0.6969   40.0006 C   0  0  2  0  0  0  0  0  0  0  0  0
    3.9321   -1.3222   41.2566 O   0  0  0  0  0  0  0  0  0  0  0  0
    4.0822    0.8290   40.1467 C   0  0  0  0  0  0  0  0  0  0  0  0
    5.2633    1.3093   40.7716 O   0  0  0  0  0  0  0  0  0  0  0  0
    3.8642    2.5035   35.4171 C   0  0  1  0  0  0  0  0  0  0  0  0
    3.6784    1.8767   34.1493 O   0  0  0  0  0  0  0  0  0  0  0  0
    2.5530    2.3923   36.2441 C   0  0  2  0  0  0  0  0  0  0  0  0
    2.6174    3.3214   37.3235 O   0  0  0  0  0  0  0  0  0  0  0  0
    2.2430    0.9720   36.8207 C   0  0  1  0  0  0  0  0  0  0  0  0
    1.5461    0.1471   35.8093 N   0  3  0  0  0  0  0  0  0  0  0  0
    3.5162    0.2855   37.3816 C   0  0  1  0  0  0  0  0  0  0  0  0
    3.3302   -1.1083   37.7308 O   0  0  0  0  0  0  0  0  0  0  0  0
    5.0269    1.8267   36.1857 C   0  0  1  0  0  0  0  0  0  0  0  0
    4.6388    0.4509   36.4512 O   0  0  0  0  0  0  0  0  0  0  0  0
    6.3783    1.8858   35.4494 C   0  0  0  0  0  0  0  0  0  0  0  0
    7.4822    1.3018   36.2361 N   0  3  0  0  0  0  0  0  0  0  0  0
  1  2  1  1  0  0  0
  1  3  1  0  0  0  0
  1 10  1  0  0  0  0
  3  4  1  6  0  0  0
  3  5  1  0  0  0  0
  5  6  1  6  0  0  0
  5  7  1  0  0  0  0
  7  8  1  1  0  0  0
  7  9  1  0  0  0  0
  9 10  1  0  0  0  0
  9 11  1  1  0  0  0
 11 12  1  0  0  0  0
 13 14  1  6  0  0  0
 13 15  1  0  0  0  0
 13 22  1  0  0  0  0
 15 16  1  6  0  0  0
 15 17  1  0  0  0  0
 17 18  1  6  0  0  0
 17 19  1  0  0  0  0
 19  2  1  1  0  0  0
 19 20  1  0  0  0  0
 20 21  1  1  0  0  0
 20 22  1  0  0  0  0
 23 18  1  6  0  0  0
 23 24  1  0  0  0  0
 23 28  1  0  0  0  0
 24 25  1  6  0  0  0
 24 26  1  0  0  0  0
 26 27  1  0  0  0  0
 26 38  1  6  0  0  0
 27 28  1  0  0  0  0
 27 29  1  1  0  0  0
 29 30  1  0  0  0  0
 31 32  1  6  0  0  0
 31 33  1  0  0  0  0
 31 39  1  0  0  0  0
 33 34  1  1  0  0  0
 33 35  1  0  0  0  0
 35 36  1  6  0  0  0
 35 37  1  0  0  0  0
 37 38  1  6  0  0  0
 37 40  1  0  0  0  0
 39 40  1  0  0  0  0
 39 41  1  6  0  0  0
 41 42  1  0  0  0  0
M  CHG  5   4   1  14   1  21   1  36   1  42   1
M  END
>  <CHROM.1>
-154.49414563,116.30290159,52.14451972,-57.48679582,-56.70247427,69.43636754
-58.50590586,-48.82633873,175.65336632,-98.37987934,117.74125641,-133.21150473
-173.54595157,-171.45772345,-170.30636660,75.99814663,-168.80973101,-54.68031496
-58.06748531,-96.60438395,176.77389251,-143.63409596,2.38915774,-0.69706625
41.44033380,-2.34163366,-1.04173347,-2.02711787

>  <Name>
1pbr

>  <RI>
0

>  <Rbt.Current_Directory>
/home/itssahil/PROJECTS/Mol_Feturizer/New_Systems/rnas/1pbr

>  <Rbt.Executable>
rbdock ($Id: //depot/dev/client3/rdock/2013.1/src/exe/rbdock.cxx#4 $)

>  <Rbt.Library>
libRbt.so (2013.1, Build901 2013/11/27)

>  <Rbt.Parameter_File>
/export/apps/rDock/src/rDock_2013.1_src/data/scripts/dock_solv.prm

>  <Rbt.Receptor>
prm/pocket_docking_2.prm

>  <SCORE>
-35.6317

>  <SCORE.INTER>
-41.8227

>  <SCORE.INTER.CONST>
1

>  <SCORE.INTER.POLAR>
-4.00309

>  <SCORE.INTER.ROT>
9

>  <SCORE.INTER.SOLV>
31.6178

>  <SCORE.INTER.VDW>
-34.6774

>  <SCORE.INTER.norm>
-0.995779

>  <SCORE.INTRA>
3.98142

>  <SCORE.INTRA.DIHEDRAL>
7.22769

>  <SCORE.INTRA.DIHEDRAL.0>
29.7866

>  <SCORE.INTRA.POLAR>
-0.604885

>  <SCORE.INTRA.POLAR.0>
-0.984091

>  <SCORE.INTRA.REPUL>
-0.274115

>  <SCORE.INTRA.REPUL.0>
0.274115

>  <SCORE.INTRA.SOLV>
1.27038

>  <SCORE.INTRA.SOLV.lig_0>
-152.978

>  <SCORE.INTRA.VDW>
3.15957

>  <SCORE.INTRA.VDW.0>
-6.10719

>  <SCORE.INTRA.norm>
0.0947957

>  <SCORE.RESTR>
2.20963

>  <SCORE.RESTR.CAVITY>
2.20963

>  <SCORE.RESTR.norm>
0.0526102

>  <SCORE.SYSTEM>
0

>  <SCORE.SYSTEM.CONST>
0

>  <SCORE.SYSTEM.DIHEDRAL>
0

>  <SCORE.SYSTEM.SOLV>
0

>  <SCORE.SYSTEM.norm>
0

>  <SCORE.heavy>
42

>  <SCORE.norm>
-0.848373

>  <RMSD>
2.231

$$$$
1pbr
 OpenBabel11021811403D
libRbt.so/2013.1/901 2013/11/27
 42 45  0  0  0  0  0  0  0  0999 V2000
    0.7455   -1.1352   45.6391 C   0  0  2  0  0  0  0  0  0  0  0  0
    0.6234   -0.8068   44.2318 O   0  0  0  0  0  0  0  0  0  0  0  0
    0.3268    0.0881   46.5372 C   0  0  2  0  0  0  0  0  0  0  0  0
   -0.8727    0.8226   46.0578 N   0  3  0  0  0  0  0  0  0  0  0  0
    1.4573    1.1293   46.6401 C   0  0  1  0  0  0  0  0  0  0  0  0
    1.1706    2.0888   47.6553 O   0  0  0  0  0  0  0  0  0  0  0  0
    2.8038    0.4541   46.9412 C   0  0  2  0  0  0  0  0  0  0  0  0
    3.8276    1.4347   47.0760 O   0  0  0  0  0  0  0  0  0  0  0  0
    3.1368   -0.6056   45.8676 C   0  0  2  0  0  0  0  0  0  0  0  0
    2.0934   -1.6013   45.9239 O   0  0  0  0  0  0  0  0  0  0  0  0
    4.4738   -1.3140   46.0791 C   0  0  0  0  0  0  0  0  0  0  0  0
    4.5506   -1.8931   47.3749 O   0  0  0  0  0  0  0  0  0  0  0  0
    0.6863   -4.8210   42.7860 C   0  0  1  0  0  0  0  0  0  0  0  0
    0.4954   -6.0853   42.0517 N   0  3  0  0  0  0  0  0  0  0  0  0
    1.4781   -3.7681   41.9529 C   0  0  2  0  0  0  0  0  0  0  0  0
    2.7615   -4.2774   41.5979 O   0  0  0  0  0  0  0  0  0  0  0  0
    1.6776   -2.4479   42.7534 C   0  0  1  0  0  0  0  0  0  0  0  0
    2.2690   -1.4510   41.8682 O   0  0  0  0  0  0  0  0  0  0  0  0
    0.3306   -1.8993   43.3276 C   0  0  1  0  0  0  0  0  0  0  0  0
   -0.4786   -2.9798   44.1139 C   0  0  1  0  0  0  0  0  0  0  0  0
   -1.7908   -2.4605   44.5588 N   0  3  0  0  0  0  0  0  0  0  0  0
   -0.6862   -4.2471   43.2448 C   0  0  0  0  0  0  0  0  0  0  0  0
    3.5890   -1.6854   41.2813 C   0  0  1  0  0  0  0  0  0  0  0  0
    3.4940   -1.4837   39.7573 C   0  0  2  0  0  0  0  0  0  0  0  0
    4.5060   -2.2225   39.0790 O   0  0  0  0  0  0  0  0  0  0  0  0
    3.7415    0.0313   39.6989 C   0  0  1  0  0  0  0  0  0  0  0  0
    4.8799    0.2130   40.6892 C   0  0  2  0  0  0  0  0  0  0  0  0
    4.5200   -0.6840   41.7286 O   0  0  0  0  0  0  0  0  0  0  0  0
    5.0427    1.6341   41.2439 C   0  0  0  0  0  0  0  0  0  0  0  0
    3.9642    1.9442   42.1139 O   0  0  0  0  0  0  0  0  0  0  0  0
    1.2121    2.0378   35.5427 C   0  0  1  0  0  0  0  0  0  0  0  0
    1.8185    3.3201   35.3920 O   0  0  0  0  0  0  0  0  0  0  0  0
    2.1920    0.9419   35.0381 C   0  0  2  0  0  0  0  0  0  0  0  0
    1.4599   -0.2656   34.8420 O   0  0  0  0  0  0  0  0  0  0  0  0
    3.4075    0.6465   35.9766 C   0  0  1  0  0  0  0  0  0  0  0  0
    4.5076    1.5989   35.7089 N   0  3  0  0  0  0  0  0  0  0  0  0
    2.9901    0.6159   37.4705 C   0  0  1  0  0  0  0  0  0  0  0  0
    4.1051    0.5600   38.3939 O   0  0  0  0  0  0  0  0  0  0  0  0
    0.8605    1.7812   37.0297 C   0  0  1  0  0  0  0  0  0  0  0  0
    2.1064    1.7462   37.7782 O   0  0  0  0  0  0  0  0  0  0  0  0
   -0.1125    2.8148   37.6271 C   0  0  0  0  0  0  0  0  0  0  0  0
   -1.3105    3.0204   36.7898 N   0  3  0  0  0  0  0  0  0  0  0  0
  1  2  1  6  0  0  0
  1  3  1  0  0  0  0
  1 10  1  0  0  0  0
  3  4  1  6  0  0  0
  3  5  1  0  0  0  0
  5  6  1  1  0  0  0
  5  7  1  0  0  0  0
  7  8  1  6  0  0  0
  7  9  1  0  0  0  0
  9 10  1  0  0  0  0
  9 11  1  1  0  0  0
 11 12  1  0  0  0  0
 13 14  1  6  0  0  0
 13 15  1  0  0  0  0
 13 22  1  0  0  0  0
 15 16  1  1  0  0  0
 15 17  1  0  0  0  0
 17 18  1  6  0  0  0
 17 19  1  0  0  0  0
 19  2  1  1  0  0  0
 19 20  1  0  0  0  0
 20 21  1  6  0  0  0
 20 22  1  0  0  0  0
 23 18  1  1  0  0  0
 23 24  1  0  0  0  0
 23 28  1  0  0  0  0
 24 25  1  6  0  0  0
 24 26  1  0  0  0  0
 26 27  1  0  0  0  0
 26 38  1  6  0  0  0
 27 28  1  0  0  0  0
 27 29  1  1  0  0  0
 29 30  1  0  0  0  0
 31 32  1  1  0  0  0
 31 33  1  0  0  0  0
 31 39  1  0  0  0  0
 33 34  1  1  0  0  0
 33 35  1  0  0  0  0
 35 36  1  1  0  0  0
 35 37  1  0  0  0  0
 37 38  1  1  0  0  0
 37 40  1  0  0  0  0
 39 40  1  0  0  0  0
 39 41  1  1  0  0  0
 41 42  1  0  0  0  0
M  CHG  5   4   1  14   1  21   1  36   1  42   1
M  END
>  <CHROM.1>
-150.84141205,-94.05573156,-164.45917619,-69.92902119,-66.71684026,54.68993882
173.55599367,-49.26572362,60.08549843,-61.94088863,127.98533274,-24.14302043
-179.52173744,73.72986193,70.06453893,66.38944719,71.29049313,-67.67248545
-76.59717575,-157.96140147,50.23750643,-67.62201413,2.09412172,-0.43491909
41.60129014,-1.77607412,-1.25705173,-1.50958413

>  <Name>
1pbr

>  <RI>
0

>  <Rbt.Current_Directory>
/home/itssahil/PROJECTS/Mol_Feturizer/New_Systems/rnas/1pbr

>  <Rbt.Executable>
rbdock ($Id: //depot/dev/client3/rdock/2013.1/src/exe/rbdock.cxx#4 $)

>  <Rbt.Library>
libRbt.so (2013.1, Build901 2013/11/27)

>  <Rbt.Parameter_File>
/export/apps/rDock/src/rDock_2013.1_src/data/scripts/dock_solv.prm

>  <Rbt.Receptor>
prm/pocket_docking_3.prm

>  <SCORE>
-29.1052

>  <SCORE.INTER>
-31.593

>  <SCORE.INTER.CONST>
1

>  <SCORE.INTER.POLAR>
-3.62291

>  <SCORE.INTER.ROT>
9

>  <SCORE.INTER.SOLV>
30.9039

>  <SCORE.INTER.VDW>
-28.8869

>  <SCORE.INTER.norm>
-0.752213

>  <SCORE.INTRA>
2.4878

>  <SCORE.INTRA.DIHEDRAL>
-4.79901

>  <SCORE.INTRA.DIHEDRAL.0>
29.7866

>  <SCORE.INTRA.POLAR>
0.844801

>  <SCORE.INTRA.POLAR.0>
-0.984091

>  <SCORE.INTRA.REPUL>
-0.274115

>  <SCORE.INTRA.REPUL.0>
0.274115

>  <SCORE.INTRA.SOLV>
0.0373707

>  <SCORE.INTRA.SOLV.lig_0>
-152.978

>  <SCORE.INTRA.VDW>
3.36687

>  <SCORE.INTRA.VDW.0>
-6.10719

>  <SCORE.INTRA.norm>
0.0592333

>  <SCORE.RESTR>
0

>  <SCORE.RESTR.CAVITY>
0

>  <SCORE.RESTR.norm>
0

>  <SCORE.SYSTEM>
0

>  <SCORE.SYSTEM.CONST>
0

>  <SCORE.SYSTEM.DIHEDRAL>
0

>  <SCORE.SYSTEM.SOLV>
0

>  <SCORE.SYSTEM.norm>
0

>  <SCORE.heavy>
42

>  <SCORE.norm>
-0.69298

>  <RMSD>
2.243

$$$$
1pbr
 OpenBabel11021811403D
libRbt.so/2013.1/901 2013/11/27
 42 45  0  0  0  0  0  0  0  0999 V2000
    1.2041   -1.6339   45.1670 C   0  0  2  0  0  0  0  0  0  0  0  0
    0.8710   -1.1330   43.8474 O   0  0  0  0  0  0  0  0  0  0  0  0
    1.0063   -0.5148   46.2564 C   0  0  2  0  0  0  0  0  0  0  0  0
   -0.2135    0.3141   46.0739 N   0  3  0  0  0  0  0  0  0  0  0  0
    2.1938    0.4659   46.2842 C   0  0  1  0  0  0  0  0  0  0  0  0
    2.1307    1.3045   47.4358 O   0  0  0  0  0  0  0  0  0  0  0  0
    3.5323   -0.2877   46.2740 C   0  0  2  0  0  0  0  0  0  0  0  0
    4.6167    0.6329   46.3441 O   0  0  0  0  0  0  0  0  0  0  0  0
    3.6260   -1.2202   45.0459 C   0  0  2  0  0  0  0  0  0  0  0  0
    2.5529   -2.1781   45.1644 O   0  0  0  0  0  0  0  0  0  0  0  0
    4.9386   -1.9954   44.9457 C   0  0  0  0  0  0  0  0  0  0  0  0
    5.9765   -1.1842   44.4116 O   0  0  0  0  0  0  0  0  0  0  0  0
    0.0711   -4.9529   42.1222 C   0  0  1  0  0  0  0  0  0  0  0  0
   -0.4228   -6.0966   41.3337 N   0  3  0  0  0  0  0  0  0  0  0  0
    0.9143   -3.9631   41.2626 C   0  0  2  0  0  0  0  0  0  0  0  0
    2.0371   -4.6314   40.6922 O   0  0  0  0  0  0  0  0  0  0  0  0
    1.4346   -2.7720   42.1194 C   0  0  1  0  0  0  0  0  0  0  0  0
    2.0658   -1.8010   41.2329 O   0  0  0  0  0  0  0  0  0  0  0  0
    0.2846   -2.0758   42.9180 C   0  0  1  0  0  0  0  0  0  0  0  0
   -0.5864   -3.0856   43.7319 C   0  0  1  0  0  0  0  0  0  0  0  0
   -1.7241   -2.4114   44.3959 N   0  3  0  0  0  0  0  0  0  0  0  0
   -1.1146   -4.2170   42.8124 C   0  0  0  0  0  0  0  0  0  0  0  0
    3.4122   -2.0498   40.7160 C   0  0  1  0  0  0  0  0  0  0  0  0
    3.5276   -1.4179   39.3162 C   0  0  2  0  0  0  0  0  0  0  0  0
    4.5240   -2.0754   38.5383 O   0  0  0  0  0  0  0  0  0  0  0  0
    3.9516    0.0005   39.7263 C   0  0  1  0  0  0  0  0  0  0  0  0
    4.9738   -0.2688   40.8182 C   0  0  2  0  0  0  0  0  0  0  0  0
    4.3897   -1.3592   41.5142 O   0  0  0  0  0  0  0  0  0  0  0  0
    5.2287    0.9010   41.7775 C   0  0  0  0  0  0  0  0  0  0  0  0
    4.0496    1.1944   42.5124 O   0  0  0  0  0  0  0  0  0  0  0  0
    1.8056    3.0682   36.1825 C   0  0  1  0  0  0  0  0  0  0  0  0
    2.0922    4.3302   36.7825 O   0  0  0  0  0  0  0  0  0  0  0  0
    3.0878    2.5213   35.4950 C   0  0  2  0  0  0  0  0  0  0  0  0
    2.7123    1.4764   34.6008 O   0  0  0  0  0  0  0  0  0  0  0  0
    4.1897    1.9818   36.4648 C   0  0  1  0  0  0  0  0  0  0  0  0
    5.0476    3.0910   36.9366 N   0  3  0  0  0  0  0  0  0  0  0  0
    3.5811    1.1565   37.6291 C   0  0  1  0  0  0  0  0  0  0  0  0
    4.5298    0.8152   38.6695 O   0  0  0  0  0  0  0  0  0  0  0  0
    1.3168    2.0622   37.2548 C   0  0  1  0  0  0  0  0  0  0  0  0
    2.4111    1.8443   38.1869 O   0  0  0  0  0  0  0  0  0  0  0  0
    0.0431    2.5109   37.9954 C   0  0  0  0  0  0  0  0  0  0  0  0
   -1.1297    2.6085   37.1046 N   0  3  0  0  0  0  0  0  0  0  0  0
  1  2  1  6  0  0  0
  1  3  1  0  0  0  0
  1 10  1  0  0  0  0
  3  4  1  6  0  0  0
  3  5  1  0  0  0  0
  5  6  1  1  0  0  0
  5  7  1  0  0  0  0
  7  8  1  6  0  0  0
  7  9  1  0  0  0  0
  9 10  1  0  0  0  0
  9 11  1  1  0  0  0
 11 12  1  0  0  0  0
 13 14  1  6  0  0  0
 13 15  1  0  0  0  0
 13 22  1  0  0  0  0
 15 16  1  1  0  0  0
 15 17  1  0  0  0  0
 17 18  1  6  0  0  0
 17 19  1  0  0  0  0
 19  2  1  1  0  0  0
 19 20  1  0  0  0  0
 20 21  1  6  0  0  0
 20 22  1  0  0  0  0
 23 18  1  1  0  0  0
 23 24  1  0  0  0  0
 23 28  1  0  0  0  0
 24 25  1  6  0  0  0
 24 26  1  0  0  0  0
 26 27  1  0  0  0  0
 26 38  1  6  0  0  0
 27 28  1  0  0  0  0
 27 29  1  1  0  0  0
 29 30  1  0  0  0  0
 31 32  1  1  0  0  0
 31 33  1  0  0  0  0
 31 39  1  0  0  0  0
 33 34  1  6  0  0  0
 33 35  1  0  0  0  0
 35 36  1  1  0  0  0
 35 37  1  0  0  0  0
 37 38  1  1  0  0  0
 37 40  1  0  0  0  0
 39 40  1  0  0  0  0
 39 41  1  1  0  0  0
 41 42  1  0  0  0  0
M  CHG  5   4   1  14   1  21   1  36   1  42   1
M  END
>  <CHROM.1>
-146.53287761,-89.82450372,-48.51873215,-170.16067617,-62.96374069,-79.81897567
175.94712975,81.70447000,71.81023813,-77.57143078,148.27744423,-132.15263959
66.63513717,66.88593387,64.23453499,56.44576527,65.51664767,60.76885051,-56.33072442
-177.86751678,64.26980493,168.34360265,2.36225524,-0.47285548,41.37751655
1.75919345,0.85185549,1.87035050

>  <Name>
1pbr

>  <RI>
0

>  <Rbt.Current_Directory>
/home/itssahil/PROJECTS/Mol_Feturizer/New_Systems/rnas/1pbr

>  <Rbt.Executable>
rbdock ($Id: //depot/dev/client3/rdock/2013.1/src/exe/rbdock.cxx#4 $)

>  <Rbt.Library>
libRbt.so (2013.1, Build901 2013/11/27)

>  <Rbt.Parameter_File>
/export/apps/rDock/src/rDock_2013.1_src/data/scripts/dock_solv.prm

>  <Rbt.Receptor>
prm/pocket_docking_2.prm

>  <SCORE>
-34.6128

>  <SCORE.INTER>
-36.905

>  <SCORE.INTER.CONST>
1

>  <SCORE.INTER.POLAR>
-4.95795

>  <SCORE.INTER.ROT>
9

>  <SCORE.INTER.SOLV>
30.2506

>  <SCORE.INTER.VDW>
-27.7604

>  <SCORE.INTER.norm>
-0.878691

>  <SCORE.INTRA>
-0.796547

>  <SCORE.INTRA.DIHEDRAL>
-7.79865

>  <SCORE.INTRA.DIHEDRAL.0>
29.7866

>  <SCORE.INTRA.POLAR>
0.919932

>  <SCORE.INTRA.POLAR.0>
-0.984091

>  <SCORE.INTRA.REPUL>
-0.274115

>  <SCORE.INTRA.REPUL.0>
0.274115

>  <SCORE.INTRA.SOLV>
1.77329

>  <SCORE.INTRA.SOLV.lig_0>
-152.978

>  <SCORE.INTRA.VDW>
0.458936

>  <SCORE.INTRA.VDW.0>
-6.10719

>  <SCORE.INTRA.norm>
-0.0189654

>  <SCORE.RESTR>
3.08878

>  <SCORE.RESTR.CAVITY>
3.08878

>  <SCORE.RESTR.norm>
0.0735423

>  <SCORE.SYSTEM>
0

>  <SCORE.SYSTEM.CONST>
0

>  <SCORE.SYSTEM.DIHEDRAL>
0

>  <SCORE.SYSTEM.SOLV>
0

>  <SCORE.SYSTEM.norm>
0

>  <SCORE.heavy>
42

>  <SCORE.norm>
-0.824114

>  <RMSD>
2.270

$$$$
1pbr
 OpenBabel11021811403D
libRbt.so/2013.1/901 2013/11/27
 42 45  0  0  0  0  0  0  0  0999 V2000
    1.4089   -0.8455   44.9062 C   0  0  2  0  0  0  0  0  0  0  0  0
    0.7696   -2.1313   45.1093 O   0  0  0  0  0  0  0  0  0  0  0  0
    2.7061   -0.7203   45.7893 C   0  0  2  0  0  0  0  0  0  0  0  0
    3.5369   -1.9512   45.8421 N   0  3  0  0  0  0  0  0  0  0  0  0
    2.3662   -0.3667   47.2495 C   0  0  1  0  0  0  0  0  0  0  0  0
    3.5418    0.0011   47.9679 O   0  0  0  0  0  0  0  0  0  0  0  0
    1.3470    0.7806   47.3166 C   0  0  2  0  0  0  0  0  0  0  0  0
    1.0784    1.1226   48.6727 O   0  0  0  0  0  0  0  0  0  0  0  0
    0.0657    0.4210   46.5320 C   0  0  2  0  0  0  0  0  0  0  0  0
    0.4576    0.2258   45.1567 O   0  0  0  0  0  0  0  0  0  0  0  0
   -1.0135    1.5019   46.5639 C   0  0  0  0  0  0  0  0  0  0  0  0
   -1.8647    1.4135   45.4289 O   0  0  0  0  0  0  0  0  0  0  0  0
    0.1267   -5.0983   42.1106 C   0  0  1  0  0  0  0  0  0  0  0  0
   -0.3612   -5.9280   40.9938 N   0  3  0  0  0  0  0  0  0  0  0  0
    0.6922   -3.7290   41.6258 C   0  0  2  0  0  0  0  0  0  0  0  0
    1.7696   -3.9303   40.7141 O   0  0  0  0  0  0  0  0  0  0  0  0
    1.2123   -2.8772   42.8206 C   0  0  1  0  0  0  0  0  0  0  0  0
    1.5678   -1.5514   42.3279 O   0  0  0  0  0  0  0  0  0  0  0  0
    0.1441   -2.7411   43.9545 C   0  0  1  0  0  0  0  0  0  0  0  0
   -0.4541   -4.1161   44.3927 C   0  0  1  0  0  0  0  0  0  0  0  0
   -1.5307   -3.9473   45.3937 N   0  3  0  0  0  0  0  0  0  0  0  0
   -0.9993   -4.8913   43.1654 C   0  0  0  0  0  0  0  0  0  0  0  0
    2.3649   -1.4141   41.1082 C   0  0  1  0  0  0  0  0  0  0  0  0
    1.5724   -0.5688   40.0936 C   0  0  2  0  0  0  0  0  0  0  0  0
    1.9726   -0.8635   38.7582 O   0  0  0  0  0  0  0  0  0  0  0  0
    2.0232    0.8300   40.5409 C   0  0  1  0  0  0  0  0  0  0  0  0
    3.5124    0.6332   40.7715 C   0  0  2  0  0  0  0  0  0  0  0  0
    3.5560   -0.6519   41.3726 O   0  0  0  0  0  0  0  0  0  0  0  0
    4.1750    1.6721   41.6854 C   0  0  0  0  0  0  0  0  0  0  0  0
    3.9022    1.3693   43.0456 O   0  0  0  0  0  0  0  0  0  0  0  0
    3.2317    1.9661   35.5142 C   0  0  1  0  0  0  0  0  0  0  0  0
    1.9810    2.3357   34.9364 O   0  0  0  0  0  0  0  0  0  0  0  0
    3.7255    3.1068   36.4473 C   0  0  2  0  0  0  0  0  0  0  0  0
    5.1109    2.9049   36.7163 O   0  0  0  0  0  0  0  0  0  0  0  0
    2.9630    3.2377   37.8065 C   0  0  1  0  0  0  0  0  0  0  0  0
    1.7419    4.0552   37.6346 N   0  3  0  0  0  0  0  0  0  0  0  0
    2.6736    1.8526   38.4425 C   0  0  1  0  0  0  0  0  0  0  0  0
    1.7873    1.9024   39.5875 O   0  0  0  0  0  0  0  0  0  0  0  0
    3.0822    0.6542   36.3248 C   0  0  1  0  0  0  0  0  0  0  0  0
    2.1727    0.9182   37.4280 O   0  0  0  0  0  0  0  0  0  0  0  0
    2.5990   -0.5443   35.4869 C   0  0  0  0  0  0  0  0  0  0  0  0
    3.5366   -0.8969   34.4029 N   0  3  0  0  0  0  0  0  0  0  0  0
  1  2  1  1  0  0  0
  1  3  1  0  0  0  0
  1 10  1  0  0  0  0
  3  4  1  1  0  0  0
  3  5  1  0  0  0  0
  5  6  1  1  0  0  0
  5  7  1  0  0  0  0
  7  8  1  1  0  0  0
  7  9  1  0  0  0  0
  9 10  1  0  0  0  0
  9 11  1  6  0  0  0
 11 12  1  0  0  0  0
 13 14  1  6  0  0  0
 13 15  1  0  0  0  0
 13 22  1  0  0  0  0
 15 16  1  6  0  0  0
 15 17  1  0  0  0  0
 17 18  1  6  0  0  0
 17 19  1  0  0  0  0
 19  2  1  1  0  0  0
 19 20  1  0  0  0  0
 20 21  1  1  0  0  0
 20 22  1  0  0  0  0
 23 18  1  1  0  0  0
 23 24  1  0  0  0  0
 23 28  1  0  0  0  0
 24 25  1  6  0  0  0
 24 26  1  0  0  0  0
 26 27  1  0  0  0  0
 26 38  1  6  0  0  0
 27 28  1  0  0  0  0
 27 29  1  1  0  0  0
 29 30  1  0  0  0  0
 31 32  1  1  0  0  0
 31 33  1  0  0  0  0
 31 39  1  0  0  0  0
 33 34  1  1  0  0  0
 33 35  1  0  0  0  0
 35 36  1  6  0  0  0
 35 37  1  0  0  0  0
 37 38  1  1  0  0  0
 37 40  1  0  0  0  0
 39 40  1  0  0  0  0
 39 41  1  6  0  0  0
 41 42  1  0  0  0  0
M  CHG  5   4   1  14   1  21   1  36   1  42   1
M  END
>  <CHROM.1>
-144.19994244,56.20424982,53.82587581,-175.67928777,-68.71746060,154.62494026
-55.76473364,69.80469503,-67.78570899,-46.40802407,122.09782184,-167.20373878
-52.05984107,-72.27301390,79.04793635,46.33685022,68.51506834,93.37090249
-42.85026651,-151.32987693,61.72885242,138.39459626,1.77443658,-0.39400585
41.70743013,-2.24717091,-1.20172871,-1.92417214

>  <Name>
1pbr

>  <RI>
0

>  <Rbt.Current_Directory>
/home/itssahil/PROJECTS/Mol_Feturizer/New_Systems/rnas/1pbr

>  <Rbt.Executable>
rbdock ($Id: //depot/dev/client3/rdock/2013.1/src/exe/rbdock.cxx#4 $)

>  <Rbt.Library>
libRbt.so (2013.1, Build901 2013/11/27)

>  <Rbt.Parameter_File>
/export/apps/rDock/src/rDock_2013.1_src/data/scripts/dock_solv.prm

>  <Rbt.Receptor>
prm/pocket_docking_3.prm

>  <SCORE>
-47.4975

>  <SCORE.INTER>
-55.3327

>  <SCORE.INTER.CONST>
1

>  <SCORE.INTER.POLAR>
-8.29037

>  <SCORE.INTER.ROT>
9

>  <SCORE.INTER.SOLV>
39.9388

>  <SCORE.INTER.VDW>
-32.1668

>  <SCORE.INTER.norm>
-1.31744

>  <SCORE.INTRA>
7.83519

>  <SCORE.INTRA.DIHEDRAL>
1.33933

>  <SCORE.INTRA.DIHEDRAL.0>
29.7866

>  <SCORE.INTRA.POLAR>
0.664187

>  <SCORE.INTRA.POLAR.0>
-0.984091

>  <SCORE.INTRA.REPUL>
-0.274115

>  <SCORE.INTRA.REPUL.0>
0.274115

>  <SCORE.INTRA.SOLV>
-2.9258

>  <SCORE.INTRA.SOLV.lig_0>
-152.978

>  <SCORE.INTRA.VDW>
7.74077

>  <SCORE.INTRA.VDW.0>
-6.10719

>  <SCORE.INTRA.norm>
0.186552

>  <SCORE.RESTR>
0

>  <SCORE.RESTR.CAVITY>
0

>  <SCORE.RESTR.norm>
0

>  <SCORE.SYSTEM>
0

>  <SCORE.SYSTEM.CONST>
0

>  <SCORE.SYSTEM.DIHEDRAL>
0

>  <SCORE.SYSTEM.SOLV>
0

>  <SCORE.SYSTEM.norm>
0

>  <SCORE.heavy>
42

>  <SCORE.norm>
-1.13089

>  <RMSD>
2.274

$$$$
1pbr
 OpenBabel11021811403D
libRbt.so/2013.1/901 2013/11/27
 42 45  0  0  0  0  0  0  0  0999 V2000
    1.1041   -1.5087   45.0959 C   0  0  2  0  0  0  0  0  0  0  0  0
    0.8180   -1.0692   43.7438 O   0  0  0  0  0  0  0  0  0  0  0  0
    0.8492   -0.3470   46.1272 C   0  0  2  0  0  0  0  0  0  0  0  0
   -0.3724    0.4563   45.8611 N   0  3  0  0  0  0  0  0  0  0  0  0
    2.0225    0.6505   46.1595 C   0  0  1  0  0  0  0  0  0  0  0  0
    1.9032    1.5365   47.2704 O   0  0  0  0  0  0  0  0  0  0  0  0
    3.3695   -0.0842   46.2347 C   0  0  2  0  0  0  0  0  0  0  0  0
    4.4389    0.8536   46.3077 O   0  0  0  0  0  0  0  0  0  0  0  0
    3.5237   -1.0668   45.0527 C   0  0  2  0  0  0  0  0  0  0  0  0
    2.4585   -2.0336   45.1700 O   0  0  0  0  0  0  0  0  0  0  0  0
    4.8486   -1.8273   45.0380 C   0  0  0  0  0  0  0  0  0  0  0  0
    4.9699   -2.6282   43.8700 O   0  0  0  0  0  0  0  0  0  0  0  0
    0.1400   -4.9468   42.0967 C   0  0  1  0  0  0  0  0  0  0  0  0
   -0.3229   -6.1227   41.3373 N   0  3  0  0  0  0  0  0  0  0  0  0
    0.9226   -3.9375   41.2031 C   0  0  2  0  0  0  0  0  0  0  0  0
    2.0596   -4.5684   40.6183 O   0  0  0  0  0  0  0  0  0  0  0  0
    1.4115   -2.7120   42.0293 C   0  0  1  0  0  0  0  0  0  0  0  0
    1.9826   -1.7307   41.1140 O   0  0  0  0  0  0  0  0  0  0  0  0
    0.2512   -2.0506   42.8425 C   0  0  1  0  0  0  0  0  0  0  0  0
   -0.5593   -3.0818   43.6913 C   0  0  1  0  0  0  0  0  0  0  0  0
   -1.7093   -2.4441   44.3699 N   0  3  0  0  0  0  0  0  0  0  0  0
   -1.0599   -4.2490   42.8016 C   0  0  0  0  0  0  0  0  0  0  0  0
    3.2702   -1.9938   40.4700 C   0  0  1  0  0  0  0  0  0  0  0  0
    3.3841   -1.1083   39.2150 C   0  0  2  0  0  0  0  0  0  0  0  0
    4.2695   -1.6858   38.2596 O   0  0  0  0  0  0  0  0  0  0  0  0
    3.9711    0.1545   39.8636 C   0  0  1  0  0  0  0  0  0  0  0  0
    5.0104   -0.4203   40.8118 C   0  0  2  0  0  0  0  0  0  0  0  0
    4.3503   -1.5694   41.3202 O   0  0  0  0  0  0  0  0  0  0  0  0
    5.4297    0.5058   41.9608 C   0  0  0  0  0  0  0  0  0  0  0  0
    6.3609   -0.1554   42.8046 O   0  0  0  0  0  0  0  0  0  0  0  0
    2.3214    3.2473   35.9486 C   0  0  1  0  0  0  0  0  0  0  0  0
    2.7007    4.5463   36.3996 O   0  0  0  0  0  0  0  0  0  0  0  0
    3.5830    2.4830   35.4588 C   0  0  2  0  0  0  0  0  0  0  0  0
    3.1623    1.3650   34.6806 O   0  0  0  0  0  0  0  0  0  0  0  0
    4.5408    1.9784   36.5875 C   0  0  1  0  0  0  0  0  0  0  0  0
    5.4789    3.0516   36.9839 N   0  3  0  0  0  0  0  0  0  0  0  0
    3.7572    1.3913   37.7908 C   0  0  1  0  0  0  0  0  0  0  0  0
    4.5799    1.1072   38.9490 O   0  0  0  0  0  0  0  0  0  0  0  0
    1.6432    2.4571   37.0960 C   0  0  1  0  0  0  0  0  0  0  0  0
    2.6322    2.2647   38.1442 O   0  0  0  0  0  0  0  0  0  0  0  0
    0.3750    3.1313   37.6520 C   0  0  0  0  0  0  0  0  0  0  0  0
   -0.4916    2.1931   38.3919 N   0  3  0  0  0  0  0  0  0  0  0  0
  1  2  1  6  0  0  0
  1  3  1  0  0  0  0
  1 10  1  0  0  0  0
  3  4  1  6  0  0  0
  3  5  1  0  0  0  0
  5  6  1  1  0  0  0
  5  7  1  0  0  0  0
  7  8  1  6  0  0  0
  7  9  1  0  0  0  0
  9 10  1  0  0  0  0
  9 11  1  1  0  0  0
 11 12  1  0  0  0  0
 13 14  1  6  0  0  0
 13 15  1  0  0  0  0
 13 22  1  0  0  0  0
 15 16  1  1  0  0  0
 15 17  1  0  0  0  0
 17 18  1  6  0  0  0
 17 19  1  0  0  0  0
 19  2  1  1  0  0  0
 19 20  1  0  0  0  0
 20 21  1  6  0  0  0
 20 22  1  0  0  0  0
 23 18  1  1  0  0  0
 23 24  1  0  0  0  0
 23 28  1  0  0  0  0
 24 25  1  6  0  0  0
 24 26  1  0  0  0  0
 26 27  1  0  0  0  0
 26 38  1  6  0  0  0
 27 28  1  0  0  0  0
 27 29  1  1  0  0  0
 29 30  1  0  0  0  0
 31 32  1  1  0  0  0
 31 33  1  0  0  0  0
 31 39  1  0  0  0  0
 33 34  1  1  0  0  0
 33 35  1  0  0  0  0
 35 36  1  1  0  0  0
 35 37  1  0  0  0  0
 37 38  1  1  0  0  0
 37 40  1  0  0  0  0
 39 40  1  0  0  0  0
 39 41  1  1  0  0  0
 41 42  1  0  0  0  0
M  CHG  5   4   1  14   1  21   1  36   1  42   1
M  END
>  <CHROM.1>
-145.11022085,-94.45731350,-45.92041986,-66.20367858,-48.01700028,-175.20166949
64.32933590,-43.97044348,73.08766871,-71.64811321,159.22525615,-16.60910191
59.74792242,47.13141332,177.77521383,66.21963682,-59.36389349,179.43943199
-154.12079833,-159.59673740,160.68701368,62.13765584,2.47100450,-0.46088158
41.35161048,-1.90724398,-0.91220143,-1.36961821

>  <Name>
1pbr

>  <RI>
0

>  <Rbt.Current_Directory>
/home/itssahil/PROJECTS/Mol_Feturizer/New_Systems/rnas/1pbr

>  <Rbt.Executable>
rbdock ($Id: //depot/dev/client3/rdock/2013.1/src/exe/rbdock.cxx#4 $)

>  <Rbt.Library>
libRbt.so (2013.1, Build901 2013/11/27)

>  <Rbt.Parameter_File>
/export/apps/rDock/src/rDock_2013.1_src/data/scripts/dock_solv.prm

>  <Rbt.Receptor>
prm/pocket_docking_2.prm

>  <SCORE>
-36.0092

>  <SCORE.INTER>
-37.1667

>  <SCORE.INTER.CONST>
1

>  <SCORE.INTER.POLAR>
-4.71248

>  <SCORE.INTER.ROT>
9

>  <SCORE.INTER.SOLV>
33.8134

>  <SCORE.INTER.VDW>
-29.9407

>  <SCORE.INTER.norm>
-0.884922

>  <SCORE.INTRA>
-1.59631

>  <SCORE.INTRA.DIHEDRAL>
-6.40777

>  <SCORE.INTRA.DIHEDRAL.0>
29.7866

>  <SCORE.INTRA.POLAR>
-0.201114

>  <SCORE.INTRA.POLAR.0>
-0.984091

>  <SCORE.INTRA.REPUL>
-0.274115

>  <SCORE.INTRA.REPUL.0>
0.274115

>  <SCORE.INTRA.SOLV>
1.21161

>  <SCORE.INTRA.SOLV.lig_0>
-152.978

>  <SCORE.INTRA.VDW>
3.05613

>  <SCORE.INTRA.VDW.0>
-6.10719

>  <SCORE.INTRA.norm>
-0.0380074

>  <SCORE.RESTR>
2.75387

>  <SCORE.RESTR.CAVITY>
2.75387

>  <SCORE.RESTR.norm>
0.0655683

>  <SCORE.SYSTEM>
0

>  <SCORE.SYSTEM.CONST>
0

>  <SCORE.SYSTEM.DIHEDRAL>
0

>  <SCORE.SYSTEM.SOLV>
0

>  <SCORE.SYSTEM.norm>
0

>  <SCORE.heavy>
42

>  <SCORE.norm>
-0.857361

>  <RMSD>
2.283

$$$$
1pbr
 OpenBabel11021811403D
libRbt.so/2013.1/901 2013/11/27
 42 45  0  0  0  0  0  0  0  0999 V2000
    2.3737   -1.8330   43.7291 C   0  0  2  0  0  0  0  0  0  0  0  0
    1.8570   -3.0664   44.2904 O   0  0  0  0  0  0  0  0  0  0  0  0
    3.7996   -1.5077   44.3116 C   0  0  2  0  0  0  0  0  0  0  0  0
    4.6960   -2.6859   44.4407 N   0  3  0  0  0  0  0  0  0  0  0  0
    3.7091   -0.8791   45.7149 C   0  0  1  0  0  0  0  0  0  0  0  0
    4.9718   -0.3514   46.1154 O   0  0  0  0  0  0  0  0  0  0  0  0
    2.6541    0.2368   45.7527 C   0  0  2  0  0  0  0  0  0  0  0  0
    2.6155    0.8349   47.0446 O   0  0  0  0  0  0  0  0  0  0  0  0
    1.2752   -0.2983   45.3068 C   0  0  2  0  0  0  0  0  0  0  0  0
    1.4230   -0.7538   43.9453 O   0  0  0  0  0  0  0  0  0  0  0  0
    0.1589    0.7443   45.3347 C   0  0  0  0  0  0  0  0  0  0  0  0
   -1.1163    0.1381   45.1704 O   0  0  0  0  0  0  0  0  0  0  0  0
   -1.0812   -5.9974   43.2986 C   0  0  1  0  0  0  0  0  0  0  0  0
   -2.2717   -6.7406   42.8465 N   0  3  0  0  0  0  0  0  0  0  0  0
   -0.2835   -5.3808   42.1098 C   0  0  2  0  0  0  0  0  0  0  0  0
    0.1417   -6.4035   41.2121 O   0  0  0  0  0  0  0  0  0  0  0  0
    0.9745   -4.6128   42.6111 C   0  0  1  0  0  0  0  0  0  0  0  0
    1.5796   -3.9205   41.4791 O   0  0  0  0  0  0  0  0  0  0  0  0
    0.6239   -3.5757   43.7276 C   0  0  1  0  0  0  0  0  0  0  0  0
   -0.2223   -4.1941   44.8861 C   0  0  1  0  0  0  0  0  0  0  0  0
   -0.6224   -3.1690   45.8753 N   0  3  0  0  0  0  0  0  0  0  0  0
   -1.4845   -4.8989   44.3252 C   0  0  0  0  0  0  0  0  0  0  0  0
    2.1525   -4.6890   40.3732 C   0  0  1  0  0  0  0  0  0  0  0  0
    2.0848   -3.8360   39.0927 C   0  0  2  0  0  0  0  0  0  0  0  0
    2.0650   -4.6590   37.9297 O   0  0  0  0  0  0  0  0  0  0  0  0
    3.4089   -3.0715   39.2420 C   0  0  1  0  0  0  0  0  0  0  0  0
    4.3637   -4.1617   39.6996 C   0  0  2  0  0  0  0  0  0  0  0  0
    3.5565   -4.9121   40.5940 O   0  0  0  0  0  0  0  0  0  0  0  0
    5.6289   -3.6657   40.4116 C   0  0  0  0  0  0  0  0  0  0  0  0
    5.2777   -2.9421   41.5818 O   0  0  0  0  0  0  0  0  0  0  0  0
    2.8482    1.6997   37.3023 C   0  0  1  0  0  0  0  0  0  0  0  0
    4.1565    2.2151   37.5422 O   0  0  0  0  0  0  0  0  0  0  0  0
    2.8839    0.7584   36.0660 C   0  0  2  0  0  0  0  0  0  0  0  0
    1.5475    0.5527   35.6140 O   0  0  0  0  0  0  0  0  0  0  0  0
    3.5547   -0.6342   36.3035 C   0  0  1  0  0  0  0  0  0  0  0  0
    5.0210   -0.5346   36.1331 N   0  3  0  0  0  0  0  0  0  0  0  0
    3.1492   -1.2453   37.6706 C   0  0  1  0  0  0  0  0  0  0  0  0
    3.9035   -2.4271   38.0359 O   0  0  0  0  0  0  0  0  0  0  0  0
    2.3433    0.9181   38.5411 C   0  0  1  0  0  0  0  0  0  0  0  0
    3.2179   -0.2284   38.7263 O   0  0  0  0  0  0  0  0  0  0  0  0
    2.2671    1.7662   39.8244 C   0  0  0  0  0  0  0  0  0  0  0  0
    1.1080    2.6799   39.8359 N   0  3  0  0  0  0  0  0  0  0  0  0
  1  2  1  1  0  0  0
  1  3  1  0  0  0  0
  1 10  1  0  0  0  0
  3  4  1  1  0  0  0
  3  5  1  0  0  0  0
  5  6  1  6  0  0  0
  5  7  1  0  0  0  0
  7  8  1  1  0  0  0
  7  9  1  0  0  0  0
  9 10  1  0  0  0  0
  9 11  1  6  0  0  0
 11 12  1  0  0  0  0
 13 14  1  6  0  0  0
 13 15  1  0  0  0  0
 13 22  1  0  0  0  0
 15 16  1  6  0  0  0
 15 17  1  0  0  0  0
 17 18  1  6  0  0  0
 17 19  1  0  0  0  0
 19  2  1  1  0  0  0
 19 20  1  0  0  0  0
 20 21  1  1  0  0  0
 20 22  1  0  0  0  0
 23 18  1  1  0  0  0
 23 24  1  0  0  0  0
 23 28  1  0  0  0  0
 24 25  1  6  0  0  0
 24 26  1  0  0  0  0
 26 27  1  0  0  0  0
 26 38  1  6  0  0  0
 27 28  1  0  0  0  0
 27 29  1  1  0  0  0
 29 30  1  0  0  0  0
 31 32  1  1  0  0  0
 31 33  1  0  0  0  0
 31 39  1  0  0  0  0
 33 34  1  1  0  0  0
 33 35  1  0  0  0  0
 35 36  1  1  0  0  0
 35 37  1  0  0  0  0
 37 38  1  1  0  0  0
 37 40  1  0  0  0  0
 39 40  1  0  0  0  0
 39 41  1  1  0  0  0
 41 42  1  0  0  0  0
M  CHG  5   4   1  14   1  21   1  36   1  42   1
M  END
>  <CHROM.1>
-172.81200003,94.29139833,-57.74441269,50.75363902,-60.34503989,-168.58118622
57.43830062,-56.62545721,153.61569789,-65.09069490,152.82766431,72.88721628
88.86659593,73.32553849,60.45947680,-60.08888926,70.54466701,-179.41722043
-178.71227524,-173.41500966,75.83994588,162.24466373,2.15491721,-1.99603502
41.52777354,-2.46427117,-1.16512481,-2.09607281

>  <Name>
1pbr

>  <RI>
0

>  <Rbt.Current_Directory>
/home/itssahil/PROJECTS/Mol_Feturizer/New_Systems/rnas/1pbr

>  <Rbt.Executable>
rbdock ($Id: //depot/dev/client3/rdock/2013.1/src/exe/rbdock.cxx#4 $)

>  <Rbt.Library>
libRbt.so (2013.1, Build901 2013/11/27)

>  <Rbt.Parameter_File>
/export/apps/rDock/src/rDock_2013.1_src/data/scripts/dock_solv.prm

>  <Rbt.Receptor>
prm/pocket_docking_3.prm

>  <SCORE>
-47.6428

>  <SCORE.INTER>
-40.63

>  <SCORE.INTER.CONST>
1

>  <SCORE.INTER.POLAR>
-6.35203

>  <SCORE.INTER.ROT>
9

>  <SCORE.INTER.SOLV>
25.6991

>  <SCORE.INTER.VDW>
-24.0796

>  <SCORE.INTER.norm>
-0.967381

>  <SCORE.INTRA>
-7.01277

>  <SCORE.INTRA.DIHEDRAL>
-10.6282

>  <SCORE.INTRA.DIHEDRAL.0>
29.7866

>  <SCORE.INTRA.POLAR>
-0.182576

>  <SCORE.INTRA.POLAR.0>
-0.984091

>  <SCORE.INTRA.REPUL>
-0.274115

>  <SCORE.INTRA.REPUL.0>
0.274115

>  <SCORE.INTRA.SOLV>
0.341028

>  <SCORE.INTRA.SOLV.lig_0>
-152.978

>  <SCORE.INTRA.VDW>
0.122152

>  <SCORE.INTRA.VDW.0>
-6.10719

>  <SCORE.INTRA.norm>
-0.166971

>  <SCORE.RESTR>
0

>  <SCORE.RESTR.CAVITY>
0

>  <SCORE.RESTR.norm>
0

>  <SCORE.SYSTEM>
0

>  <SCORE.SYSTEM.CONST>
0

>  <SCORE.SYSTEM.DIHEDRAL>
0

>  <SCORE.SYSTEM.SOLV>
0

>  <SCORE.SYSTEM.norm>
0

>  <SCORE.heavy>
42

>  <SCORE.norm>
-1.13435

>  <RMSD>
2.304

$$$$
1pbr
 OpenBabel11021811403D
libRbt.so/2013.1/901 2013/11/27
 42 45  0  0  0  0  0  0  0  0999 V2000
    1.1903   -0.5924   44.6075 C   0  0  2  0  0  0  0  0  0  0  0  0
    0.9385   -1.9972   44.8649 O   0  0  0  0  0  0  0  0  0  0  0  0
    2.6879   -0.2253   44.9247 C   0  0  2  0  0  0  0  0  0  0  0  0
    3.6784   -1.2403   44.4810 N   0  3  0  0  0  0  0  0  0  0  0  0
    2.9166   -0.0315   46.4356 C   0  0  1  0  0  0  0  0  0  0  0  0
    4.1936    0.5527   46.6833 O   0  0  0  0  0  0  0  0  0  0  0  0
    1.8221    0.8538   47.0504 C   0  0  2  0  0  0  0  0  0  0  0  0
    2.0741    1.0574   48.4372 O   0  0  0  0  0  0  0  0  0  0  0  0
    0.4222    0.2571   46.7846 C   0  0  2  0  0  0  0  0  0  0  0  0
    0.2455    0.2248   45.3525 O   0  0  0  0  0  0  0  0  0  0  0  0
   -0.7281    1.0662   47.3815 C   0  0  0  0  0  0  0  0  0  0  0  0
   -1.3900    0.3401   48.4087 O   0  0  0  0  0  0  0  0  0  0  0  0
    0.2497   -5.2379   42.1758 C   0  0  1  0  0  0  0  0  0  0  0  0
   -0.2745   -6.1882   41.1778 N   0  3  0  0  0  0  0  0  0  0  0  0
    0.6623   -3.8777   41.5361 C   0  0  2  0  0  0  0  0  0  0  0  0
    1.6633   -4.0790   40.5412 O   0  0  0  0  0  0  0  0  0  0  0  0
    1.2239   -2.8968   42.6067 C   0  0  1  0  0  0  0  0  0  0  0  0
    1.4307   -1.5948   41.9830 O   0  0  0  0  0  0  0  0  0  0  0  0
    0.2575   -2.7413   43.8261 C   0  0  1  0  0  0  0  0  0  0  0  0
   -0.1915   -4.1134   44.4232 C   0  0  1  0  0  0  0  0  0  0  0  0
   -1.1810   -3.9369   45.5092 N   0  3  0  0  0  0  0  0  0  0  0  0
   -0.7869   -5.0224   43.3171 C   0  0  0  0  0  0  0  0  0  0  0  0
    2.5786   -1.3806   41.1008 C   0  0  1  0  0  0  0  0  0  0  0  0
    2.0635   -0.9216   39.7238 C   0  0  2  0  0  0  0  0  0  0  0  0
    2.9946   -1.2452   38.6950 O   0  0  0  0  0  0  0  0  0  0  0  0
    1.9882    0.5901   39.9862 C   0  0  1  0  0  0  0  0  0  0  0  0
    3.2823    0.8542   40.7380 C   0  0  2  0  0  0  0  0  0  0  0  0
    3.3791   -0.2851   41.5790 O   0  0  0  0  0  0  0  0  0  0  0  0
    3.3004    2.1389   41.5764 C   0  0  0  0  0  0  0  0  0  0  0  0
    4.5074    2.2184   42.3202 O   0  0  0  0  0  0  0  0  0  0  0  0
    5.1288    2.0351   35.9943 C   0  0  1  0  0  0  0  0  0  0  0  0
    4.3550    1.7290   34.8358 O   0  0  0  0  0  0  0  0  0  0  0  0
    4.5521    3.3061   36.6782 C   0  0  2  0  0  0  0  0  0  0  0  0
    5.5255    3.8126   37.5885 O   0  0  0  0  0  0  0  0  0  0  0  0
    3.2047    3.1013   37.4452 C   0  0  1  0  0  0  0  0  0  0  0  0
    2.0604    3.2160   36.5144 N   0  3  0  0  0  0  0  0  0  0  0  0
    3.1935    1.7748   38.2497 C   0  0  1  0  0  0  0  0  0  0  0  0
    1.8995    1.4310   38.8032 O   0  0  0  0  0  0  0  0  0  0  0  0
    5.1005    0.8471   36.9885 C   0  0  1  0  0  0  0  0  0  0  0  0
    3.7271    0.6775   37.4346 O   0  0  0  0  0  0  0  0  0  0  0  0
    5.6571   -0.4657   36.4065 C   0  0  0  0  0  0  0  0  0  0  0  0
    4.7069   -1.1335   35.4955 N   0  3  0  0  0  0  0  0  0  0  0  0
  1  2  1  1  0  0  0
  1  3  1  0  0  0  0
  1 10  1  0  0  0  0
  3  4  1  1  0  0  0
  3  5  1  0  0  0  0
  5  6  1  6  0  0  0
  5  7  1  0  0  0  0
  7  8  1  1  0  0  0
  7  9  1  0  0  0  0
  9 10  1  0  0  0  0
  9 11  1  1  0  0  0
 11 12  1  0  0  0  0
 13 14  1  6  0  0  0
 13 15  1  0  0  0  0
 13 22  1  0  0  0  0
 15 16  1  6  0  0  0
 15 17  1  0  0  0  0
 17 18  1  6  0  0  0
 17 19  1  0  0  0  0
 19  2  1  1  0  0  0
 19 20  1  0  0  0  0
 20 21  1  1  0  0  0
 20 22  1  0  0  0  0
 23 18  1  1  0  0  0
 23 24  1  0  0  0  0
 23 28  1  0  0  0  0
 24 25  1  6  0  0  0
 24 26  1  0  0  0  0
 26 27  1  0  0  0  0
 26 38  1  6  0  0  0
 27 28  1  0  0  0  0
 27 29  1  1  0  0  0
 29 30  1  0  0  0  0
 31 32  1  6  0  0  0
 31 33  1  0  0  0  0
 31 39  1  0  0  0  0
 33 34  1  1  0  0  0
 33 35  1  0  0  0  0
 35 36  1  6  0  0  0
 35 37  1  0  0  0  0
 37 38  1  6  0  0  0
 37 40  1  0  0  0  0
 39 40  1  0  0  0  0
 39 41  1  6  0  0  0
 41 42  1  0  0  0  0
M  CHG  5   4   1  14   1  21   1  36   1  42   1
M  END
>  <CHROM.1>
-131.38404287,69.64179688,-165.29884784,69.98939113,-177.49275916,-114.03854220
-34.57742703,88.70282714,69.93925649,-75.96661488,122.50349147,151.05910828
-56.30881548,-86.82883065,174.91531304,-158.91324453,163.21602505,-47.97625814
-178.71211315,-154.14657546,-76.73014820,88.88641039,2.25521888,-0.40521783
41.67498176,-2.44388453,-1.09212347,-2.07764359

>  <Name>
1pbr

>  <RI>
0

>  <Rbt.Current_Directory>
/home/itssahil/PROJECTS/Mol_Feturizer/New_Systems/rnas/1pbr

>  <Rbt.Executable>
rbdock ($Id: //depot/dev/client3/rdock/2013.1/src/exe/rbdock.cxx#4 $)

>  <Rbt.Library>
libRbt.so (2013.1, Build901 2013/11/27)

>  <Rbt.Parameter_File>
/export/apps/rDock/src/rDock_2013.1_src/data/scripts/dock_solv.prm

>  <Rbt.Receptor>
prm/pocket_docking_3.prm

>  <SCORE>
-39.3881

>  <SCORE.INTER>
-48.7533

>  <SCORE.INTER.CONST>
1

>  <SCORE.INTER.POLAR>
-5.05031

>  <SCORE.INTER.ROT>
9

>  <SCORE.INTER.SOLV>
30.3817

>  <SCORE.INTER.VDW>
-35.3951

>  <SCORE.INTER.norm>
-1.16079

>  <SCORE.INTRA>
9.07409

>  <SCORE.INTRA.DIHEDRAL>
11.6162

>  <SCORE.INTRA.DIHEDRAL.0>
29.7866

>  <SCORE.INTRA.POLAR>
-0.328805

>  <SCORE.INTRA.POLAR.0>
-0.984091

>  <SCORE.INTRA.REPUL>
-0.274115

>  <SCORE.INTRA.REPUL.0>
0.274115

>  <SCORE.INTRA.SOLV>
2.85208

>  <SCORE.INTRA.SOLV.lig_0>
-152.978

>  <SCORE.INTRA.VDW>
4.32845

>  <SCORE.INTRA.VDW.0>
-6.10719

>  <SCORE.INTRA.norm>
0.21605

>  <SCORE.RESTR>
0.291123

>  <SCORE.RESTR.CAVITY>
0.291123

>  <SCORE.RESTR.norm>
0.00693151

>  <SCORE.SYSTEM>
0

>  <SCORE.SYSTEM.CONST>
0

>  <SCORE.SYSTEM.DIHEDRAL>
0

>  <SCORE.SYSTEM.SOLV>
0

>  <SCORE.SYSTEM.norm>
0

>  <SCORE.heavy>
42

>  <SCORE.norm>
-0.937811

>  <RMSD>
2.304

$$$$
1pbr
 OpenBabel11021811403D
libRbt.so/2013.1/901 2013/11/27
 42 45  0  0  0  0  0  0  0  0999 V2000
    1.5670   -0.8334   44.8038 C   0  0  2  0  0  0  0  0  0  0  0  0
    0.9163   -2.1142   45.0021 O   0  0  0  0  0  0  0  0  0  0  0  0
    2.8395   -0.7045   45.7217 C   0  0  2  0  0  0  0  0  0  0  0  0
    3.6627   -1.9385   45.8105 N   0  3  0  0  0  0  0  0  0  0  0  0
    2.4604   -0.3342   47.1680 C   0  0  1  0  0  0  0  0  0  0  0  0
    3.6170    0.0360   47.9153 O   0  0  0  0  0  0  0  0  0  0  0  0
    1.4450    0.8182   47.1944 C   0  0  2  0  0  0  0  0  0  0  0  0
    1.1400    1.1755   48.5389 O   0  0  0  0  0  0  0  0  0  0  0  0
    0.1846    0.4559   46.3779 C   0  0  2  0  0  0  0  0  0  0  0  0
    0.6140    0.2445   45.0162 O   0  0  0  0  0  0  0  0  0  0  0  0
   -0.8901    1.5418   46.3682 C   0  0  0  0  0  0  0  0  0  0  0  0
   -1.9273    1.2317   45.4470 O   0  0  0  0  0  0  0  0  0  0  0  0
    0.3968   -5.2317   42.1352 C   0  0  1  0  0  0  0  0  0  0  0  0
   -0.0259   -6.1045   41.0245 N   0  3  0  0  0  0  0  0  0  0  0  0
    1.0946   -3.9319   41.6320 C   0  0  2  0  0  0  0  0  0  0  0  0
    2.2447   -4.2540   40.8535 O   0  0  0  0  0  0  0  0  0  0  0  0
    1.5426   -3.0339   42.8221 C   0  0  1  0  0  0  0  0  0  0  0  0
    2.0301   -1.7659   42.2914 O   0  0  0  0  0  0  0  0  0  0  0  0
    0.3748   -2.7625   43.8260 C   0  0  1  0  0  0  0  0  0  0  0  0
   -0.3510   -4.0693   44.2798 C   0  0  1  0  0  0  0  0  0  0  0  0
   -1.5115   -3.7737   45.1490 N   0  3  0  0  0  0  0  0  0  0  0  0
   -0.8159   -4.8918   43.0502 C   0  0  0  0  0  0  0  0  0  0  0  0
    2.9117   -1.7526   41.1233 C   0  0  1  0  0  0  0  0  0  0  0  0
    2.0772   -1.3929   39.8797 C   0  0  2  0  0  0  0  0  0  0  0  0
    2.6775   -1.9071   38.6942 O   0  0  0  0  0  0  0  0  0  0  0  0
    2.1699    0.1382   39.9619 C   0  0  1  0  0  0  0  0  0  0  0  0
    3.6317    0.3569   40.3153 C   0  0  2  0  0  0  0  0  0  0  0  0
    3.8779   -0.6931   41.2382 O   0  0  0  0  0  0  0  0  0  0  0  0
    3.9537    1.7143   40.9536 C   0  0  0  0  0  0  0  0  0  0  0  0
    5.3530    1.8348   41.1628 O   0  0  0  0  0  0  0  0  0  0  0  0
    4.7605    2.2785   35.9143 C   0  0  1  0  0  0  0  0  0  0  0  0
    4.1940    1.6094   34.7890 O   0  0  0  0  0  0  0  0  0  0  0  0
    3.7478    3.3266   36.4542 C   0  0  2  0  0  0  0  0  0  0  0  0
    4.4425    4.2281   37.3128 O   0  0  0  0  0  0  0  0  0  0  0  0
    2.5230    2.7379   37.2282 C   0  0  1  0  0  0  0  0  0  0  0  0
    1.4530    2.3530   36.2817 N   0  3  0  0  0  0  0  0  0  0  0  0
    2.9381    1.5766   38.1695 C   0  0  1  0  0  0  0  0  0  0  0  0
    1.8212    0.8564   38.7465 O   0  0  0  0  0  0  0  0  0  0  0  0
    5.1029    1.2586   37.0293 C   0  0  1  0  0  0  0  0  0  0  0  0
    3.8559    0.6623   37.4803 O   0  0  0  0  0  0  0  0  0  0  0  0
    6.1068    0.1743   36.5950 C   0  0  0  0  0  0  0  0  0  0  0  0
    5.4513   -0.9949   35.9770 N   0  3  0  0  0  0  0  0  0  0  0  0
  1  2  1  1  0  0  0
  1  3  1  0  0  0  0
  1 10  1  0  0  0  0
  3  4  1  1  0  0  0
  3  5  1  0  0  0  0
  5  6  1  1  0  0  0
  5  7  1  0  0  0  0
  7  8  1  1  0  0  0
  7  9  1  0  0  0  0
  9 10  1  0  0  0  0
  9 11  1  6  0  0  0
 11 12  1  0  0  0  0
 13 14  1  6  0  0  0
 13 15  1  0  0  0  0
 13 22  1  0  0  0  0
 15 16  1  1  0  0  0
 15 17  1  0  0  0  0
 17 18  1  6  0  0  0
 17 19  1  0  0  0  0
 19  2  1  1  0  0  0
 19 20  1  0  0  0  0
 20 21  1  1  0  0  0
 20 22  1  0  0  0  0
 23 18  1  1  0  0  0
 23 24  1  0  0  0  0
 23 28  1  0  0  0  0
 24 25  1  6  0  0  0
 24 26  1  0  0  0  0
 26 27  1  0  0  0  0
 26 38  1  6  0  0  0
 27 28  1  0  0  0  0
 27 29  1  1  0  0  0
 29 30  1  0  0  0  0
 31 32  1  6  0  0  0
 31 33  1  0  0  0  0
 31 39  1  0  0  0  0
 33 34  1  1  0  0  0
 33 35  1  0  0  0  0
 35 36  1  6  0  0  0
 35 37  1  0  0  0  0
 37 38  1  6  0  0  0
 37 40  1  0  0  0  0
 39 40  1  0  0  0  0
 39 41  1  6  0  0  0
 41 42  1  0  0  0  0
M  CHG  5   4   1  14   1  21   1  36   1  42   1
M  END
>  <CHROM.1>
-141.42870530,60.64861033,173.31058005,61.22365288,-68.29988250,171.36762427
77.38966403,56.71418030,-178.38127039,-43.91849596,100.94202341,-163.50196612
-21.65240598,-115.00474739,-176.44746150,64.20883202,173.57064928,59.18808082
-173.85913734,-158.40203364,-87.67106329,93.94305596,2.24004874,-0.52090418
41.59671174,-2.54020248,-1.14899286,-2.18685046

>  <Name>
1pbr

>  <RI>
0

>  <Rbt.Current_Directory>
/home/itssahil/PROJECTS/Mol_Feturizer/New_Systems/rnas/1pbr

>  <Rbt.Executable>
rbdock ($Id: //depot/dev/client3/rdock/2013.1/src/exe/rbdock.cxx#4 $)

>  <Rbt.Library>
libRbt.so (2013.1, Build901 2013/11/27)

>  <Rbt.Parameter_File>
/export/apps/rDock/src/rDock_2013.1_src/data/scripts/dock_solv.prm

>  <Rbt.Receptor>
prm/pocket_docking_2.prm

>  <SCORE>
-32.5897

>  <SCORE.INTER>
-56.6066

>  <SCORE.INTER.CONST>
1

>  <SCORE.INTER.POLAR>
-7.70958

>  <SCORE.INTER.ROT>
9

>  <SCORE.INTER.SOLV>
29.1778

>  <SCORE.INTER.VDW>
-31.3651

>  <SCORE.INTER.norm>
-1.34778

>  <SCORE.INTRA>
21.2204

>  <SCORE.INTRA.DIHEDRAL>
4.3952

>  <SCORE.INTRA.DIHEDRAL.0>
29.7866

>  <SCORE.INTRA.POLAR>
0.723808

>  <SCORE.INTRA.POLAR.0>
-0.984091

>  <SCORE.INTRA.REPUL>
-0.274115

>  <SCORE.INTRA.REPUL.0>
0.274115

>  <SCORE.INTRA.SOLV>
-0.912024

>  <SCORE.INTRA.SOLV.lig_0>
-152.978

>  <SCORE.INTRA.VDW>
18.3884

>  <SCORE.INTRA.VDW.0>
-6.10719

>  <SCORE.INTRA.norm>
0.505246

>  <SCORE.RESTR>
2.79648

>  <SCORE.RESTR.CAVITY>
2.79648

>  <SCORE.RESTR.norm>
0.0665828

>  <SCORE.SYSTEM>
0

>  <SCORE.SYSTEM.CONST>
0

>  <SCORE.SYSTEM.DIHEDRAL>
0

>  <SCORE.SYSTEM.SOLV>
0

>  <SCORE.SYSTEM.norm>
0

>  <SCORE.heavy>
42

>  <SCORE.norm>
-0.775946

>  <RMSD>
2.308

$$$$
1pbr
 OpenBabel11021811403D
libRbt.so/2013.1/901 2013/11/27
 42 45  0  0  0  0  0  0  0  0999 V2000
    1.8744   -0.4667   44.5876 C   0  0  2  0  0  0  0  0  0  0  0  0
    1.8590   -1.9117   44.7094 O   0  0  0  0  0  0  0  0  0  0  0  0
    3.2259    0.1264   45.1354 C   0  0  2  0  0  0  0  0  0  0  0  0
    4.4358   -0.6529   44.7650 N   0  3  0  0  0  0  0  0  0  0  0  0
    3.2243    0.2151   46.6732 C   0  0  1  0  0  0  0  0  0  0  0  0
    4.3289    0.9887   47.1366 O   0  0  0  0  0  0  0  0  0  0  0  0
    1.9160    0.8330   47.1890 C   0  0  2  0  0  0  0  0  0  0  0  0
    1.9507    0.9471   48.6081 O   0  0  0  0  0  0  0  0  0  0  0  0
    0.6961    0.0273   46.6897 C   0  0  2  0  0  0  0  0  0  0  0  0
    0.7085    0.0986   45.2482 O   0  0  0  0  0  0  0  0  0  0  0  0
   -0.6502    0.5624   47.1748 C   0  0  0  0  0  0  0  0  0  0  0  0
   -1.0012    1.7627   46.4990 O   0  0  0  0  0  0  0  0  0  0  0  0
    1.4692   -5.0513   41.8461 C   0  0  1  0  0  0  0  0  0  0  0  0
    1.0358   -5.9877   40.7928 N   0  3  0  0  0  0  0  0  0  0  0  0
    1.7726   -3.6296   41.2838 C   0  0  2  0  0  0  0  0  0  0  0  0
    2.7963   -3.6940   40.2936 O   0  0  0  0  0  0  0  0  0  0  0  0
    2.2400   -2.6636   42.4116 C   0  0  1  0  0  0  0  0  0  0  0  0
    2.3430   -1.3176   41.8594 O   0  0  0  0  0  0  0  0  0  0  0  0
    1.2525   -2.6537   43.6240 C   0  0  1  0  0  0  0  0  0  0  0  0
    0.9143   -4.0881   44.1426 C   0  0  1  0  0  0  0  0  0  0  0  0
   -0.0967   -4.0522   45.2225 N   0  3  0  0  0  0  0  0  0  0  0  0
    0.4075   -4.9835   42.9826 C   0  0  0  0  0  0  0  0  0  0  0  0
    1.4543   -0.9030   40.7730 C   0  0  1  0  0  0  0  0  0  0  0  0
    1.5340    0.6282   40.6278 C   0  0  2  0  0  0  0  0  0  0  0  0
    0.3427    1.1501   40.0460 O   0  0  0  0  0  0  0  0  0  0  0  0
    2.7350    0.7177   39.6741 C   0  0  1  0  0  0  0  0  0  0  0  0
    2.4435   -0.3937   38.6794 C   0  0  2  0  0  0  0  0  0  0  0  0
    1.9276   -1.4178   39.5159 O   0  0  0  0  0  0  0  0  0  0  0  0
    3.6597   -0.9062   37.8973 C   0  0  0  0  0  0  0  0  0  0  0  0
    4.4819   -1.7000   38.7400 O   0  0  0  0  0  0  0  0  0  0  0  0
    0.6923    3.6130   35.6487 C   0  0  1  0  0  0  0  0  0  0  0  0
    0.9498    4.9785   35.9710 O   0  0  0  0  0  0  0  0  0  0  0  0
    2.0330    2.8999   35.3179 C   0  0  2  0  0  0  0  0  0  0  0  0
    1.7421    1.6753   34.6482 O   0  0  0  0  0  0  0  0  0  0  0  0
    2.9509    2.5954   36.5469 C   0  0  1  0  0  0  0  0  0  0  0  0
    3.7842    3.7742   36.8711 N   0  3  0  0  0  0  0  0  0  0  0  0
    2.1364    2.0830   37.7637 C   0  0  1  0  0  0  0  0  0  0  0  0
    2.9024    1.9899   38.9899 O   0  0  0  0  0  0  0  0  0  0  0  0
    0.0005    2.9015   36.8386 C   0  0  1  0  0  0  0  0  0  0  0  0
    0.9326    2.9002   37.9545 O   0  0  0  0  0  0  0  0  0  0  0  0
   -1.3446    3.5320   37.2449 C   0  0  0  0  0  0  0  0  0  0  0  0
   -2.4756    3.0302   36.4402 N   0  3  0  0  0  0  0  0  0  0  0  0
  1  2  1  1  0  0  0
  1  3  1  0  0  0  0
  1 10  1  0  0  0  0
  3  4  1  1  0  0  0
  3  5  1  0  0  0  0
  5  6  1  6  0  0  0
  5  7  1  0  0  0  0
  7  8  1  1  0  0  0
  7  9  1  0  0  0  0
  9 10  1  0  0  0  0
  9 11  1  1  0  0  0
 11 12  1  0  0  0  0
 13 14  1  6  0  0  0
 13 15  1  0  0  0  0
 13 22  1  0  0  0  0
 15 16  1  6  0  0  0
 15 17  1  0  0  0  0
 17 18  1  6  0  0  0
 17 19  1  0  0  0  0
 19  2  1  1  0  0  0
 19 20  1  0  0  0  0
 20 21  1  1  0  0  0
 20 22  1  0  0  0  0
 23 18  1  1  0  0  0
 23 24  1  0  0  0  0
 23 28  1  0  0  0  0
 24 25  1  6  0  0  0
 24 26  1  0  0  0  0
 26 27  1  0  0  0  0
 26 38  1  6  0  0  0
 27 28  1  0  0  0  0
 27 29  1  1  0  0  0
 29 30  1  0  0  0  0
 31 32  1  1  0  0  0
 31 33  1  0  0  0  0
 31 39  1  0  0  0  0
 33 34  1  1  0  0  0
 33 35  1  0  0  0  0
 35 36  1  1  0  0  0
 35 37  1  0  0  0  0
 37 38  1  1  0  0  0
 37 40  1  0  0  0  0
 39 40  1  0  0  0  0
 39 41  1  1  0  0  0
 41 42  1  0  0  0  0
M  CHG  5   4   1  14   1  21   1  36   1  42   1
M  END
>  <CHROM.1>
-141.54107804,75.59956706,-69.44104111,51.67481839,-49.57879798,73.56145635
60.21228856,-170.10442494,-55.99476789,30.95281715,166.17703584,-174.42213991
70.34941362,-86.22562251,73.81704061,58.87613726,70.92744754,-177.73730373
90.61365899,-131.66574539,84.78215293,-156.74224208,1.65836580,-0.04193441
41.30437103,1.33921435,-1.45480998,1.73910303

>  <Name>
1pbr

>  <RI>
0

>  <Rbt.Current_Directory>
/home/itssahil/PROJECTS/Mol_Feturizer/New_Systems/rnas/1pbr

>  <Rbt.Executable>
rbdock ($Id: //depot/dev/client3/rdock/2013.1/src/exe/rbdock.cxx#4 $)

>  <Rbt.Library>
libRbt.so (2013.1, Build901 2013/11/27)

>  <Rbt.Parameter_File>
/export/apps/rDock/src/rDock_2013.1_src/data/scripts/dock_solv.prm

>  <Rbt.Receptor>
prm/pocket_docking_4.prm

>  <SCORE>
-34.1682

>  <SCORE.INTER>
-34.8792

>  <SCORE.INTER.CONST>
1

>  <SCORE.INTER.POLAR>
-3.47274

>  <SCORE.INTER.ROT>
9

>  <SCORE.INTER.SOLV>
31.6925

>  <SCORE.INTER.VDW>
-31.8412

>  <SCORE.INTER.norm>
-0.830458

>  <SCORE.INTRA>
0.711044

>  <SCORE.INTRA.DIHEDRAL>
-0.338101

>  <SCORE.INTRA.DIHEDRAL.0>
29.7866

>  <SCORE.INTRA.POLAR>
-0.110011

>  <SCORE.INTRA.POLAR.0>
-0.984091

>  <SCORE.INTRA.REPUL>
-0.274115

>  <SCORE.INTRA.REPUL.0>
0.274115

>  <SCORE.INTRA.SOLV>
-2.58137

>  <SCORE.INTRA.SOLV.lig_0>
-152.978

>  <SCORE.INTRA.VDW>
3.91539

>  <SCORE.INTRA.VDW.0>
-6.10719

>  <SCORE.INTRA.norm>
0.0169296

>  <SCORE.RESTR>
0

>  <SCORE.RESTR.CAVITY>
0

>  <SCORE.RESTR.norm>
0

>  <SCORE.SYSTEM>
0

>  <SCORE.SYSTEM.CONST>
0

>  <SCORE.SYSTEM.DIHEDRAL>
0

>  <SCORE.SYSTEM.SOLV>
0

>  <SCORE.SYSTEM.norm>
0

>  <SCORE.heavy>
42

>  <SCORE.norm>
-0.813528

>  <RMSD>
2.332

$$$$
1pbr
 OpenBabel11021811403D
libRbt.so/2013.1/901 2013/11/27
 42 45  0  0  0  0  0  0  0  0999 V2000
    1.0776   -1.4701   45.1823 C   0  0  2  0  0  0  0  0  0  0  0  0
    0.7340   -0.9812   43.8609 O   0  0  0  0  0  0  0  0  0  0  0  0
    1.0108   -0.3088   46.2431 C   0  0  2  0  0  0  0  0  0  0  0  0
   -0.1462    0.6093   46.0797 N   0  3  0  0  0  0  0  0  0  0  0  0
    2.2719    0.5745   46.1973 C   0  0  1  0  0  0  0  0  0  0  0  0
    2.3197    1.4472   47.3240 O   0  0  0  0  0  0  0  0  0  0  0  0
    3.5456   -0.2835   46.1616 C   0  0  2  0  0  0  0  0  0  0  0  0
    4.7009    0.5493   46.1636 O   0  0  0  0  0  0  0  0  0  0  0  0
    3.5180   -1.2543   44.9603 C   0  0  2  0  0  0  0  0  0  0  0  0
    2.3783   -2.1199   45.1473 O   0  0  0  0  0  0  0  0  0  0  0  0
    4.7607   -2.1343   44.8363 C   0  0  0  0  0  0  0  0  0  0  0  0
    4.5324   -3.2270   43.9562 O   0  0  0  0  0  0  0  0  0  0  0  0
    0.2406   -4.8128   42.0489 C   0  0  1  0  0  0  0  0  0  0  0  0
   -0.1675   -5.9764   41.2407 N   0  3  0  0  0  0  0  0  0  0  0  0
    0.9665   -3.7277   41.1972 C   0  0  2  0  0  0  0  0  0  0  0  0
    2.1300   -4.2748   40.5811 O   0  0  0  0  0  0  0  0  0  0  0  0
    1.3985   -2.5162   42.0742 C   0  0  1  0  0  0  0  0  0  0  0  0
    1.9143   -1.4687   41.2003 O   0  0  0  0  0  0  0  0  0  0  0  0
    0.2115   -1.9497   42.9199 C   0  0  1  0  0  0  0  0  0  0  0  0
   -0.5414   -3.0561   43.7260 C   0  0  1  0  0  0  0  0  0  0  0  0
   -1.7177   -2.5070   44.4361 N   0  3  0  0  0  0  0  0  0  0  0  0
   -0.9883   -4.2073   42.7881 C   0  0  0  0  0  0  0  0  0  0  0  0
    3.2932   -1.5350   40.7144 C   0  0  1  0  0  0  0  0  0  0  0  0
    3.4038   -0.6949   39.4283 C   0  0  2  0  0  0  0  0  0  0  0  0
    4.4763   -1.1517   38.6090 O   0  0  0  0  0  0  0  0  0  0  0  0
    3.6964    0.6747   40.0595 C   0  0  1  0  0  0  0  0  0  0  0  0
    4.6997    0.3243   41.1459 C   0  0  2  0  0  0  0  0  0  0  0  0
    4.1835   -0.8988   41.6483 O   0  0  0  0  0  0  0  0  0  0  0  0
    4.8257    1.3542   42.2759 C   0  0  0  0  0  0  0  0  0  0  0  0
    4.1993    2.5713   41.8981 O   0  0  0  0  0  0  0  0  0  0  0  0
    1.9196    3.2654   35.8775 C   0  0  1  0  0  0  0  0  0  0  0  0
    1.9302    4.6123   36.3472 O   0  0  0  0  0  0  0  0  0  0  0  0
    3.3734    2.8213   35.5533 C   0  0  2  0  0  0  0  0  0  0  0  0
    3.3196    1.6443   34.7506 O   0  0  0  0  0  0  0  0  0  0  0  0
    4.2813    2.5419   36.7955 C   0  0  1  0  0  0  0  0  0  0  0  0
    4.8903    3.7999   37.2809 N   0  3  0  0  0  0  0  0  0  0  0  0
    3.5186    1.7758   37.9082 C   0  0  1  0  0  0  0  0  0  0  0  0
    4.2414    1.6791   39.1602 O   0  0  0  0  0  0  0  0  0  0  0  0
    1.3126    2.3271   36.9506 C   0  0  1  0  0  0  0  0  0  0  0  0
    2.1877    2.3594   38.1113 O   0  0  0  0  0  0  0  0  0  0  0  0
   -0.1344    2.6814   37.3414 C   0  0  0  0  0  0  0  0  0  0  0  0
   -0.2038    3.6668   38.4381 N   0  3  0  0  0  0  0  0  0  0  0  0
  1  2  1  6  0  0  0
  1  3  1  0  0  0  0
  1 10  1  0  0  0  0
  3  4  1  6  0  0  0
  3  5  1  0  0  0  0
  5  6  1  1  0  0  0
  5  7  1  0  0  0  0
  7  8  1  6  0  0  0
  7  9  1  0  0  0  0
  9 10  1  0  0  0  0
  9 11  1  1  0  0  0
 11 12  1  0  0  0  0
 13 14  1  6  0  0  0
 13 15  1  0  0  0  0
 13 22  1  0  0  0  0
 15 16  1  1  0  0  0
 15 17  1  0  0  0  0
 17 18  1  6  0  0  0
 17 19  1  0  0  0  0
 19  2  1  1  0  0  0
 19 20  1  0  0  0  0
 20 21  1  6  0  0  0
 20 22  1  0  0  0  0
 23 18  1  1  0  0  0
 23 24  1  0  0  0  0
 23 28  1  0  0  0  0
 24 25  1  6  0  0  0
 24 26  1  0  0  0  0
 26 27  1  0  0  0  0
 26 38  1  6  0  0  0
 27 28  1  0  0  0  0
 27 29  1  1  0  0  0
 29 30  1  0  0  0  0
 31 32  1  1  0  0  0
 31 33  1  0  0  0  0
 31 39  1  0  0  0  0
 33 34  1  6  0  0  0
 33 35  1  0  0  0  0
 35 36  1  1  0  0  0
 35 37  1  0  0  0  0
 37 38  1  1  0  0  0
 37 40  1  0  0  0  0
 39 40  1  0  0  0  0
 39 41  1  1  0  0  0
 41 42  1  0  0  0  0
M  CHG  5   4   1  14   1  21   1  36   1  42   1
M  END
>  <CHROM.1>
-154.96107278,-93.13175385,-175.46205155,62.09339482,61.01214623,164.42093140
-61.48173962,-54.85315576,-60.12043026,-81.55824899,157.38965947,23.61048156
65.95971124,47.39005144,-13.81096221,155.33093429,-74.30480558,63.68043764
-62.56373628,-164.39172129,-88.12732618,126.32907855,2.32625823,-0.19287453
41.40228649,-1.87260078,-1.05406990,-1.30199749

>  <Name>
1pbr

>  <RI>
0

>  <Rbt.Current_Directory>
/home/itssahil/PROJECTS/Mol_Feturizer/New_Systems/rnas/1pbr

>  <Rbt.Executable>
rbdock ($Id: //depot/dev/client3/rdock/2013.1/src/exe/rbdock.cxx#4 $)

>  <Rbt.Library>
libRbt.so (2013.1, Build901 2013/11/27)

>  <Rbt.Parameter_File>
/export/apps/rDock/src/rDock_2013.1_src/data/scripts/dock_solv.prm

>  <Rbt.Receptor>
prm/pocket_docking_3.prm

>  <SCORE>
-35.6281

>  <SCORE.INTER>
-41.3121

>  <SCORE.INTER.CONST>
1

>  <SCORE.INTER.POLAR>
-5.00259

>  <SCORE.INTER.ROT>
9

>  <SCORE.INTER.SOLV>
36.7202

>  <SCORE.INTER.VDW>
-32.7062

>  <SCORE.INTER.norm>
-0.983622

>  <SCORE.INTRA>
5.65247

>  <SCORE.INTRA.DIHEDRAL>
1.80629

>  <SCORE.INTRA.DIHEDRAL.0>
29.7866

>  <SCORE.INTRA.POLAR>
0.811948

>  <SCORE.INTRA.POLAR.0>
-0.984091

>  <SCORE.INTRA.REPUL>
-0.238226

>  <SCORE.INTRA.REPUL.0>
0.274115

>  <SCORE.INTRA.SOLV>
1.18238

>  <SCORE.INTRA.SOLV.lig_0>
-152.978

>  <SCORE.INTRA.VDW>
2.58864

>  <SCORE.INTRA.VDW.0>
-6.10719

>  <SCORE.INTRA.norm>
0.134583

>  <SCORE.RESTR>
0.0315457

>  <SCORE.RESTR.CAVITY>
0.0315457

>  <SCORE.RESTR.norm>
0.000751089

>  <SCORE.SYSTEM>
0

>  <SCORE.SYSTEM.CONST>
0

>  <SCORE.SYSTEM.DIHEDRAL>
0

>  <SCORE.SYSTEM.SOLV>
0

>  <SCORE.SYSTEM.norm>
0

>  <SCORE.heavy>
42

>  <SCORE.norm>
-0.848289

>  <RMSD>
2.343

$$$$
1pbr
 OpenBabel11021811403D
libRbt.so/2013.1/901 2013/11/27
 42 45  0  0  0  0  0  0  0  0999 V2000
    1.9402   -0.7719   44.6521 C   0  0  2  0  0  0  0  0  0  0  0  0
    1.2823   -2.0639   44.6855 O   0  0  0  0  0  0  0  0  0  0  0  0
    3.1723   -0.7462   45.6317 C   0  0  2  0  0  0  0  0  0  0  0  0
    3.9917   -1.9859   45.6240 N   0  3  0  0  0  0  0  0  0  0  0  0
    2.7316   -0.5297   47.0917 C   0  0  1  0  0  0  0  0  0  0  0  0
    3.8551   -0.2455   47.9225 O   0  0  0  0  0  0  0  0  0  0  0  0
    1.7154    0.6174   47.1971 C   0  0  2  0  0  0  0  0  0  0  0  0
    1.3532    0.8313   48.5577 O   0  0  0  0  0  0  0  0  0  0  0  0
    0.4912    0.3488   46.2940 C   0  0  2  0  0  0  0  0  0  0  0  0
    0.9785    0.2812   44.9370 O   0  0  0  0  0  0  0  0  0  0  0  0
   -0.5826    1.4338   46.3539 C   0  0  0  0  0  0  0  0  0  0  0  0
   -1.6269    1.1770   45.4243 O   0  0  0  0  0  0  0  0  0  0  0  0
    0.5582   -5.2722   41.9670 C   0  0  1  0  0  0  0  0  0  0  0  0
    0.2469   -6.1290   40.8082 N   0  3  0  0  0  0  0  0  0  0  0  0
    1.8930   -4.4891   41.7806 C   0  0  2  0  0  0  0  0  0  0  0  0
    2.9781   -5.3937   41.5886 O   0  0  0  0  0  0  0  0  0  0  0  0
    2.2062   -3.6024   43.0213 C   0  0  1  0  0  0  0  0  0  0  0  0
    3.3664   -2.7718   42.7195 O   0  0  0  0  0  0  0  0  0  0  0  0
    0.9990   -2.6876   43.4098 C   0  0  1  0  0  0  0  0  0  0  0  0
   -0.3430   -3.4767   43.5399 C   0  0  1  0  0  0  0  0  0  0  0  0
   -1.4825   -2.5721   43.8097 N   0  3  0  0  0  0  0  0  0  0  0  0
   -0.6213   -4.2977   42.2542 C   0  0  0  0  0  0  0  0  0  0  0  0
    3.1801   -1.4169   42.1985 C   0  0  1  0  0  0  0  0  0  0  0  0
    4.5638   -0.8031   41.9147 C   0  0  2  0  0  0  0  0  0  0  0  0
    4.5142    0.6198   41.9718 O   0  0  0  0  0  0  0  0  0  0  0  0
    4.7683   -1.3212   40.4830 C   0  0  1  0  0  0  0  0  0  0  0  0
    3.4002   -1.1006   39.8591 C   0  0  2  0  0  0  0  0  0  0  0  0
    2.5258   -1.4593   40.9180 O   0  0  0  0  0  0  0  0  0  0  0  0
    3.1056   -1.9474   38.6142 C   0  0  0  0  0  0  0  0  0  0  0  0
    1.9135   -1.4959   37.9886 O   0  0  0  0  0  0  0  0  0  0  0  0
    5.5029    1.1467   35.7903 C   0  0  1  0  0  0  0  0  0  0  0  0
    6.4990    2.1406   36.0241 O   0  0  0  0  0  0  0  0  0  0  0  0
    6.1538   -0.2627   35.8647 C   0  0  2  0  0  0  0  0  0  0  0  0
    5.2628   -1.2055   35.2732 O   0  0  0  0  0  0  0  0  0  0  0  0
    6.5244   -0.7543   37.3023 C   0  0  1  0  0  0  0  0  0  0  0  0
    7.8547   -0.2393   37.6950 N   0  3  0  0  0  0  0  0  0  0  0  0
    5.4185   -0.4093   38.3341 C   0  0  1  0  0  0  0  0  0  0  0  0
    5.8006   -0.6480   39.7111 O   0  0  0  0  0  0  0  0  0  0  0  0
    4.3742    1.2586   36.8458 C   0  0  1  0  0  0  0  0  0  0  0  0
    4.9562    0.9707   38.1466 O   0  0  0  0  0  0  0  0  0  0  0  0
    3.6595    2.6229   36.8515 C   0  0  0  0  0  0  0  0  0  0  0  0
    4.5687    3.7414   37.1690 N   0  3  0  0  0  0  0  0  0  0  0  0
  1  2  1  1  0  0  0
  1  3  1  0  0  0  0
  1 10  1  0  0  0  0
  3  4  1  1  0  0  0
  3  5  1  0  0  0  0
  5  6  1  1  0  0  0
  5  7  1  0  0  0  0
  7  8  1  1  0  0  0
  7  9  1  0  0  0  0
  9 10  1  0  0  0  0
  9 11  1  6  0  0  0
 11 12  1  0  0  0  0
 13 14  1  6  0  0  0
 13 15  1  0  0  0  0
 13 22  1  0  0  0  0
 15 16  1  1  0  0  0
 15 17  1  0  0  0  0
 17 18  1  6  0  0  0
 17 19  1  0  0  0  0
 19  2  1  1  0  0  0
 19 20  1  0  0  0  0
 20 21  1  6  0  0  0
 20 22  1  0  0  0  0
 23 18  1  6  0  0  0
 23 24  1  0  0  0  0
 23 28  1  0  0  0  0
 24 25  1  6  0  0  0
 24 26  1  0  0  0  0
 26 27  1  0  0  0  0
 26 38  1  6  0  0  0
 27 28  1  0  0  0  0
 27 29  1  6  0  0  0
 29 30  1  0  0  0  0
 31 32  1  1  0  0  0
 31 33  1  0  0  0  0
 31 39  1  0  0  0  0
 33 34  1  1  0  0  0
 33 35  1  0  0  0  0
 35 36  1  1  0  0  0
 35 37  1  0  0  0  0
 37 38  1  1  0  0  0
 37 40  1  0  0  0  0
 39 40  1  0  0  0  0
 39 41  1  1  0  0  0
 41 42  1  0  0  0  0
M  CHG  5   4   1  14   1  21   1  36   1  42   1
M  END
>  <CHROM.1>
-131.07095157,91.39771580,-75.51665506,-173.87937930,156.27810868,175.40413857
81.29250339,141.76483520,86.97841873,94.07079877,-177.50057055,72.16605508
61.21813420,-138.92164796,-169.88535271,170.21435995,66.28119523,61.04451680
-164.60813926,-135.20913237,-61.40744544,-66.79931932,2.95075165,-0.99950900
41.61649262,-2.51207533,-0.98872876,-2.24788172

>  <Name>
1pbr

>  <RI>
0

>  <Rbt.Current_Directory>
/home/itssahil/PROJECTS/Mol_Feturizer/New_Systems/rnas/1pbr

>  <Rbt.Executable>
rbdock ($Id: //depot/dev/client3/rdock/2013.1/src/exe/rbdock.cxx#4 $)

>  <Rbt.Library>
libRbt.so (2013.1, Build901 2013/11/27)

>  <Rbt.Parameter_File>
/export/apps/rDock/src/rDock_2013.1_src/data/scripts/dock_solv.prm

>  <Rbt.Receptor>
prm/pocket_docking_3.prm

>  <SCORE>
-47.2169

>  <SCORE.INTER>
-55.5678

>  <SCORE.INTER.CONST>
1

>  <SCORE.INTER.POLAR>
-8.37369

>  <SCORE.INTER.ROT>
9

>  <SCORE.INTER.SOLV>
34.3952

>  <SCORE.INTER.VDW>
-30.1979

>  <SCORE.INTER.norm>
-1.32304

>  <SCORE.INTRA>
7.85654

>  <SCORE.INTRA.DIHEDRAL>
10.2455

>  <SCORE.INTRA.DIHEDRAL.0>
29.7866

>  <SCORE.INTRA.POLAR>
-0.542794

>  <SCORE.INTRA.POLAR.0>
-0.984091

>  <SCORE.INTRA.REPUL>
-0.206714

>  <SCORE.INTRA.REPUL.0>
0.274115

>  <SCORE.INTRA.SOLV>
1.42657

>  <SCORE.INTRA.SOLV.lig_0>
-152.978

>  <SCORE.INTRA.VDW>
4.89958

>  <SCORE.INTRA.VDW.0>
-6.10719

>  <SCORE.INTRA.norm>
0.187061

>  <SCORE.RESTR>
0.494345

>  <SCORE.RESTR.CAVITY>
0.494345

>  <SCORE.RESTR.norm>
0.0117701

>  <SCORE.SYSTEM>
0

>  <SCORE.SYSTEM.CONST>
0

>  <SCORE.SYSTEM.DIHEDRAL>
0

>  <SCORE.SYSTEM.SOLV>
0

>  <SCORE.SYSTEM.norm>
0

>  <SCORE.heavy>
42

>  <SCORE.norm>
-1.12421

>  <RMSD>
2.383

$$$$
1pbr
 OpenBabel11021811403D
libRbt.so/2013.1/901 2013/11/27
 42 45  0  0  0  0  0  0  0  0999 V2000
    1.5188   -1.5417   45.3149 C   0  0  2  0  0  0  0  0  0  0  0  0
    1.1078   -0.9771   44.0439 O   0  0  0  0  0  0  0  0  0  0  0  0
    2.0205   -0.4138   46.2918 C   0  0  2  0  0  0  0  0  0  0  0  0
    1.2035    0.8274   46.2714 N   0  3  0  0  0  0  0  0  0  0  0  0
    3.4643    0.0152   45.9690 C   0  0  1  0  0  0  0  0  0  0  0  0
    3.9938    0.8335   47.0098 O   0  0  0  0  0  0  0  0  0  0  0  0
    4.3718   -1.2081   45.7695 C   0  0  2  0  0  0  0  0  0  0  0  0
    5.7101   -0.7926   45.5155 O   0  0  0  0  0  0  0  0  0  0  0  0
    3.8163   -2.1263   44.6583 C   0  0  2  0  0  0  0  0  0  0  0  0
    2.5172   -2.5767   45.0976 O   0  0  0  0  0  0  0  0  0  0  0  0
    4.6716   -3.3609   44.3789 C   0  0  0  0  0  0  0  0  0  0  0  0
    4.9431   -4.0807   45.5742 O   0  0  0  0  0  0  0  0  0  0  0  0
    0.1090   -4.7053   42.2243 C   0  0  1  0  0  0  0  0  0  0  0  0
   -0.4601   -5.8048   41.4236 N   0  3  0  0  0  0  0  0  0  0  0  0
    0.9245   -3.7018   41.3539 C   0  0  2  0  0  0  0  0  0  0  0  0
    1.9938   -4.3726   40.6913 O   0  0  0  0  0  0  0  0  0  0  0  0
    1.5252   -2.5583   42.2229 C   0  0  1  0  0  0  0  0  0  0  0  0
    2.1271   -1.5676   41.3379 O   0  0  0  0  0  0  0  0  0  0  0  0
    0.4430   -1.8681   43.1161 C   0  0  1  0  0  0  0  0  0  0  0  0
   -0.4034   -2.8892   43.9416 C   0  0  1  0  0  0  0  0  0  0  0  0
   -1.4818   -2.2160   44.6988 N   0  3  0  0  0  0  0  0  0  0  0  0
   -1.0142   -3.9704   43.0129 C   0  0  0  0  0  0  0  0  0  0  0  0
    3.4220   -1.8373   40.7116 C   0  0  1  0  0  0  0  0  0  0  0  0
    3.4916   -1.0750   39.3751 C   0  0  2  0  0  0  0  0  0  0  0  0
    4.3969   -1.7050   38.4729 O   0  0  0  0  0  0  0  0  0  0  0  0
    4.0262    0.2692   39.8918 C   0  0  1  0  0  0  0  0  0  0  0  0
    5.0937   -0.1648   40.8826 C   0  0  2  0  0  0  0  0  0  0  0  0
    4.4865   -1.2857   41.5066 O   0  0  0  0  0  0  0  0  0  0  0  0
    5.4776    0.8866   41.9318 C   0  0  0  0  0  0  0  0  0  0  0  0
    5.9581    2.0600   41.2928 O   0  0  0  0  0  0  0  0  0  0  0  0
    1.8717    3.4154   36.3970 C   0  0  1  0  0  0  0  0  0  0  0  0
    2.1473    4.6731   37.0109 O   0  0  0  0  0  0  0  0  0  0  0  0
    3.1618    2.8815   35.7141 C   0  0  2  0  0  0  0  0  0  0  0  0
    2.7985    1.8432   34.8072 O   0  0  0  0  0  0  0  0  0  0  0  0
    4.2592    2.3385   36.6870 C   0  0  1  0  0  0  0  0  0  0  0  0
    5.1079    3.4475   37.1756 N   0  3  0  0  0  0  0  0  0  0  0  0
    3.6462    1.4992   37.8388 C   0  0  1  0  0  0  0  0  0  0  0  0
    4.5888    1.1529   38.8832 O   0  0  0  0  0  0  0  0  0  0  0  0
    1.3801    2.3969   37.4560 C   0  0  1  0  0  0  0  0  0  0  0  0
    2.4685    2.1757   38.3943 O   0  0  0  0  0  0  0  0  0  0  0  0
    0.0986    2.8321   38.1911 C   0  0  0  0  0  0  0  0  0  0  0  0
   -0.3186    1.8686   39.2286 N   0  3  0  0  0  0  0  0  0  0  0  0
  1  2  1  6  0  0  0
  1  3  1  0  0  0  0
  1 10  1  0  0  0  0
  3  4  1  6  0  0  0
  3  5  1  0  0  0  0
  5  6  1  1  0  0  0
  5  7  1  0  0  0  0
  7  8  1  6  0  0  0
  7  9  1  0  0  0  0
  9 10  1  0  0  0  0
  9 11  1  1  0  0  0
 11 12  1  0  0  0  0
 13 14  1  6  0  0  0
 13 15  1  0  0  0  0
 13 22  1  0  0  0  0
 15 16  1  1  0  0  0
 15 17  1  0  0  0  0
 17 18  1  6  0  0  0
 17 19  1  0  0  0  0
 19  2  1  1  0  0  0
 19 20  1  0  0  0  0
 20 21  1  6  0  0  0
 20 22  1  0  0  0  0
 23 18  1  1  0  0  0
 23 24  1  0  0  0  0
 23 28  1  0  0  0  0
 24 25  1  6  0  0  0
 24 26  1  0  0  0  0
 26 27  1  0  0  0  0
 26 38  1  6  0  0  0
 27 28  1  0  0  0  0
 27 29  1  1  0  0  0
 29 30  1  0  0  0  0
 31 32  1  1  0  0  0
 31 33  1  0  0  0  0
 31 39  1  0  0  0  0
 33 34  1  6  0  0  0
 33 35  1  0  0  0  0
 35 36  1  1  0  0  0
 35 37  1  0  0  0  0
 37 38  1  1  0  0  0
 37 40  1  0  0  0  0
 39 40  1  0  0  0  0
 39 41  1  1  0  0  0
 41 42  1  0  0  0  0
M  CHG  5   4   1  14   1  21   1  36   1  42   1
M  END
>  <CHROM.1>
-171.31525297,-89.18894664,-175.85036490,-166.25486250,65.20101041,52.16212453
67.13246323,74.84949581,67.12615202,-76.43708363,151.53822027,-1.37429316
-56.81405839,58.73036761,-58.98352659,46.87495012,-61.59324457,60.44183156
77.65845982,-174.89181943,-177.84074953,75.92125698,2.64848161,-0.48988470
41.47717244,-1.70554142,-0.71296841,-1.09532918

>  <Name>
1pbr

>  <RI>
0

>  <Rbt.Current_Directory>
/home/itssahil/PROJECTS/Mol_Feturizer/New_Systems/rnas/1pbr

>  <Rbt.Executable>
rbdock ($Id: //depot/dev/client3/rdock/2013.1/src/exe/rbdock.cxx#4 $)

>  <Rbt.Library>
libRbt.so (2013.1, Build901 2013/11/27)

>  <Rbt.Parameter_File>
/export/apps/rDock/src/rDock_2013.1_src/data/scripts/dock_solv.prm

>  <Rbt.Receptor>
prm/pocket_docking_4.prm

>  <SCORE>
-45.4028

>  <SCORE.INTER>
-40.3537

>  <SCORE.INTER.CONST>
1

>  <SCORE.INTER.POLAR>
-5.67004

>  <SCORE.INTER.ROT>
9

>  <SCORE.INTER.SOLV>
36.5176

>  <SCORE.INTER.VDW>
-29.7749

>  <SCORE.INTER.norm>
-0.960803

>  <SCORE.INTRA>
-5.0491

>  <SCORE.INTRA.DIHEDRAL>
-12.3412

>  <SCORE.INTRA.DIHEDRAL.0>
29.7866

>  <SCORE.INTRA.POLAR>
0.326152

>  <SCORE.INTRA.POLAR.0>
-0.984091

>  <SCORE.INTRA.REPUL>
-0.256057

>  <SCORE.INTRA.REPUL.0>
0.274115

>  <SCORE.INTRA.SOLV>
-3.31039

>  <SCORE.INTRA.SOLV.lig_0>
-152.978

>  <SCORE.INTRA.VDW>
2.94805

>  <SCORE.INTRA.VDW.0>
-6.10719

>  <SCORE.INTRA.norm>
-0.120217

>  <SCORE.RESTR>
0

>  <SCORE.RESTR.CAVITY>
0

>  <SCORE.RESTR.norm>
0

>  <SCORE.SYSTEM>
0

>  <SCORE.SYSTEM.CONST>
0

>  <SCORE.SYSTEM.DIHEDRAL>
0

>  <SCORE.SYSTEM.SOLV>
0

>  <SCORE.SYSTEM.norm>
0

>  <SCORE.heavy>
42

>  <SCORE.norm>
-1.08102

>  <RMSD>
2.388

$$$$
1pbr
 OpenBabel11021811403D
libRbt.so/2013.1/901 2013/11/27
 42 45  0  0  0  0  0  0  0  0999 V2000
    2.8658   -1.3466   44.3189 C   0  0  2  0  0  0  0  0  0  0  0  0
    2.5157   -2.7396   44.5186 O   0  0  0  0  0  0  0  0  0  0  0  0
    4.1903   -0.9867   45.0900 C   0  0  2  0  0  0  0  0  0  0  0  0
    5.2494   -2.0264   45.0140 N   0  3  0  0  0  0  0  0  0  0  0  0
    3.9271   -0.7482   46.5888 C   0  0  1  0  0  0  0  0  0  0  0  0
    5.0694   -0.1709   47.2176 O   0  0  0  0  0  0  0  0  0  0  0  0
    2.7121    0.1684   46.7967 C   0  0  2  0  0  0  0  0  0  0  0  0
    2.5109    0.4127   48.1852 O   0  0  0  0  0  0  0  0  0  0  0  0
    1.4588   -0.4203   46.1117 C   0  0  2  0  0  0  0  0  0  0  0  0
    1.7495   -0.4957   44.6999 O   0  0  0  0  0  0  0  0  0  0  0  0
    0.1951    0.4202   46.2868 C   0  0  0  0  0  0  0  0  0  0  0  0
   -0.9465   -0.4022   46.4894 O   0  0  0  0  0  0  0  0  0  0  0  0
    0.9766   -5.5118   41.6630 C   0  0  1  0  0  0  0  0  0  0  0  0
    0.1588   -6.2907   40.7152 N   0  3  0  0  0  0  0  0  0  0  0  0
    1.2628   -4.0685   41.1485 C   0  0  2  0  0  0  0  0  0  0  0  0
    1.9469   -4.1124   39.8984 O   0  0  0  0  0  0  0  0  0  0  0  0
    2.1377   -3.2711   42.1596 C   0  0  1  0  0  0  0  0  0  0  0  0
    2.2276   -1.8873   41.7079 O   0  0  0  0  0  0  0  0  0  0  0  0
    1.5455   -3.3081   43.6064 C   0  0  1  0  0  0  0  0  0  0  0  0
    1.2123   -4.7562   44.0886 C   0  0  1  0  0  0  0  0  0  0  0  0
    0.5627   -4.7513   45.4181 N   0  3  0  0  0  0  0  0  0  0  0  0
    0.2986   -5.4771   43.0639 C   0  0  0  0  0  0  0  0  0  0  0  0
    3.0800   -1.5437   40.5690 C   0  0  1  0  0  0  0  0  0  0  0  0
    2.1942   -1.3915   39.3182 C   0  0  2  0  0  0  0  0  0  0  0  0
    2.9410   -1.6345   38.1293 O   0  0  0  0  0  0  0  0  0  0  0  0
    1.8112    0.0881   39.4727 C   0  0  1  0  0  0  0  0  0  0  0  0
    3.1299    0.7243   39.8799 C   0  0  2  0  0  0  0  0  0  0  0  0
    3.6726   -0.2470   40.7612 O   0  0  0  0  0  0  0  0  0  0  0  0
    3.0102    2.0796   40.5887 C   0  0  0  0  0  0  0  0  0  0  0  0
    2.2233    1.9475   41.7633 O   0  0  0  0  0  0  0  0  0  0  0  0
    3.9532    2.1621   35.2043 C   0  0  1  0  0  0  0  0  0  0  0  0
    3.5231    1.2325   34.2116 O   0  0  0  0  0  0  0  0  0  0  0  0
    2.7683    3.0921   35.5873 C   0  0  2  0  0  0  0  0  0  0  0  0
    3.2870    4.2268   36.2772 O   0  0  0  0  0  0  0  0  0  0  0  0
    1.6567    2.4328   36.4679 C   0  0  1  0  0  0  0  0  0  0  0  0
    0.6795    1.7210   35.6151 N   0  3  0  0  0  0  0  0  0  0  0  0
    2.2578    1.5283   37.5758 C   0  0  1  0  0  0  0  0  0  0  0  0
    1.2773    0.7281   38.2811 O   0  0  0  0  0  0  0  0  0  0  0  0
    4.4564    1.4103   36.4622 C   0  0  1  0  0  0  0  0  0  0  0  0
    3.3275    0.6878   37.0257 O   0  0  0  0  0  0  0  0  0  0  0  0
    5.6378    0.4607   36.1895 C   0  0  0  0  0  0  0  0  0  0  0  0
    6.9260    1.1719   36.0740 N   0  3  0  0  0  0  0  0  0  0  0  0
  1  2  1  1  0  0  0
  1  3  1  0  0  0  0
  1 10  1  0  0  0  0
  3  4  1  1  0  0  0
  3  5  1  0  0  0  0
  5  6  1  6  0  0  0
  5  7  1  0  0  0  0
  7  8  1  1  0  0  0
  7  9  1  0  0  0  0
  9 10  1  0  0  0  0
  9 11  1  6  0  0  0
 11 12  1  0  0  0  0
 13 14  1  6  0  0  0
 13 15  1  0  0  0  0
 13 22  1  0  0  0  0
 15 16  1  6  0  0  0
 15 17  1  0  0  0  0
 17 18  1  6  0  0  0
 17 19  1  0  0  0  0
 19  2  1  1  0  0  0
 19 20  1  0  0  0  0
 20 21  1  1  0  0  0
 20 22  1  0  0  0  0
 23 18  1  1  0  0  0
 23 24  1  0  0  0  0
 23 28  1  0  0  0  0
 24 25  1  6  0  0  0
 24 26  1  0  0  0  0
 26 27  1  0  0  0  0
 26 38  1  6  0  0  0
 27 28  1  0  0  0  0
 27 29  1  1  0  0  0
 29 30  1  0  0  0  0
 31 32  1  6  0  0  0
 31 33  1  0  0  0  0
 31 39  1  0  0  0  0
 33 34  1  1  0  0  0
 33 35  1  0  0  0  0
 35 36  1  6  0  0  0
 35 37  1  0  0  0  0
 37 38  1  6  0  0  0
 37 40  1  0  0  0  0
 39 40  1  0  0  0  0
 39 41  1  6  0  0  0
 41 42  1  0  0  0  0
M  CHG  5   4   1  14   1  21   1  36   1  42   1
M  END
>  <CHROM.1>
-163.98755925,62.80699803,63.64174109,179.76170317,-54.28113528,-140.95090952
-171.95663278,-47.09395250,64.99659884,-74.62933418,100.51823285,-40.92678563
-175.10832314,-99.99968465,58.47799462,165.05137377,65.25479166,70.20915072
81.28801265,-168.84535356,78.36135915,-168.05912399,2.51826754,-0.72683701
41.19173721,-1.97578157,-1.21014387,-1.57956031

>  <Name>
1pbr

>  <RI>
0

>  <Rbt.Current_Directory>
/home/itssahil/PROJECTS/Mol_Feturizer/New_Systems/rnas/1pbr

>  <Rbt.Executable>
rbdock ($Id: //depot/dev/client3/rdock/2013.1/src/exe/rbdock.cxx#4 $)

>  <Rbt.Library>
libRbt.so (2013.1, Build901 2013/11/27)

>  <Rbt.Parameter_File>
/export/apps/rDock/src/rDock_2013.1_src/data/scripts/dock_solv.prm

>  <Rbt.Receptor>
prm/pocket_docking_3.prm

>  <SCORE>
-38.077

>  <SCORE.INTER>
-41.981

>  <SCORE.INTER.CONST>
1

>  <SCORE.INTER.POLAR>
-6.38111

>  <SCORE.INTER.ROT>
9

>  <SCORE.INTER.SOLV>
27.727

>  <SCORE.INTER.VDW>
-25.5593

>  <SCORE.INTER.norm>
-0.999548

>  <SCORE.INTRA>
3.90406

>  <SCORE.INTRA.DIHEDRAL>
-5.52705

>  <SCORE.INTRA.DIHEDRAL.0>
29.7866

>  <SCORE.INTRA.POLAR>
0.980697

>  <SCORE.INTRA.POLAR.0>
-0.984091

>  <SCORE.INTRA.REPUL>
0.185773

>  <SCORE.INTRA.REPUL.0>
0.274115

>  <SCORE.INTRA.SOLV>
-3.93971

>  <SCORE.INTRA.SOLV.lig_0>
-152.978

>  <SCORE.INTRA.VDW>
4.37421

>  <SCORE.INTRA.VDW.0>
-6.10719

>  <SCORE.INTRA.norm>
0.0929537

>  <SCORE.RESTR>
0

>  <SCORE.RESTR.CAVITY>
0

>  <SCORE.RESTR.norm>
0

>  <SCORE.SYSTEM>
0

>  <SCORE.SYSTEM.CONST>
0

>  <SCORE.SYSTEM.DIHEDRAL>
0

>  <SCORE.SYSTEM.SOLV>
0

>  <SCORE.SYSTEM.norm>
0

>  <SCORE.heavy>
42

>  <SCORE.norm>
-0.906595

>  <RMSD>
2.395

$$$$
1pbr
 OpenBabel11021811403D
libRbt.so/2013.1/901 2013/11/27
 42 45  0  0  0  0  0  0  0  0999 V2000
    1.4892   -1.0378   44.8260 C   0  0  2  0  0  0  0  0  0  0  0  0
    0.8568   -2.3213   45.0623 O   0  0  0  0  0  0  0  0  0  0  0  0
    2.7257   -0.8395   45.7799 C   0  0  2  0  0  0  0  0  0  0  0  0
    3.5691   -2.0504   45.9552 N   0  3  0  0  0  0  0  0  0  0  0  0
    2.2888   -0.4101   47.1931 C   0  0  1  0  0  0  0  0  0  0  0  0
    3.4110    0.0188   47.9613 O   0  0  0  0  0  0  0  0  0  0  0  0
    1.2509    0.7206   47.1301 C   0  0  2  0  0  0  0  0  0  0  0  0
    0.8919    1.1338   48.4449 O   0  0  0  0  0  0  0  0  0  0  0  0
    0.0274    0.2942   46.2889 C   0  0  2  0  0  0  0  0  0  0  0  0
    0.5086    0.0286   44.9543 O   0  0  0  0  0  0  0  0  0  0  0  0
   -1.0671    1.3556   46.1910 C   0  0  0  0  0  0  0  0  0  0  0  0
   -2.0384    1.0052   45.2141 O   0  0  0  0  0  0  0  0  0  0  0  0
   -0.0352   -5.2514   42.0913 C   0  0  1  0  0  0  0  0  0  0  0  0
   -0.6125   -6.0651   41.0056 N   0  3  0  0  0  0  0  0  0  0  0  0
    0.5069   -3.8827   41.5790 C   0  0  2  0  0  0  0  0  0  0  0  0
    1.5122   -4.0849   40.5885 O   0  0  0  0  0  0  0  0  0  0  0  0
    1.1222   -3.0481   42.7403 C   0  0  1  0  0  0  0  0  0  0  0  0
    1.4539   -1.7207   42.2352 O   0  0  0  0  0  0  0  0  0  0  0  0
    0.1418   -2.9133   43.9510 C   0  0  1  0  0  0  0  0  0  0  0  0
   -0.4364   -4.2871   44.4192 C   0  0  1  0  0  0  0  0  0  0  0  0
   -1.4346   -4.1183   45.4984 N   0  3  0  0  0  0  0  0  0  0  0  0
   -1.0784   -5.0445   43.2281 C   0  0  0  0  0  0  0  0  0  0  0  0
    2.6090   -1.5410   41.3547 C   0  0  1  0  0  0  0  0  0  0  0  0
    2.1023   -1.2442   39.9309 C   0  0  2  0  0  0  0  0  0  0  0  0
    3.0680   -1.6235   38.9543 O   0  0  0  0  0  0  0  0  0  0  0  0
    1.9540    0.2809   40.0408 C   0  0  1  0  0  0  0  0  0  0  0  0
    3.2192    0.6777   40.7834 C   0  0  2  0  0  0  0  0  0  0  0  0
    3.3496   -0.3677   41.7347 O   0  0  0  0  0  0  0  0  0  0  0  0
    3.1624    2.0380   41.4905 C   0  0  0  0  0  0  0  0  0  0  0  0
    2.1231    2.8318   40.9373 O   0  0  0  0  0  0  0  0  0  0  0  0
    5.0763    2.0552   36.1020 C   0  0  1  0  0  0  0  0  0  0  0  0
    4.3377    1.8173   34.9052 O   0  0  0  0  0  0  0  0  0  0  0  0
    4.4156    3.2187   36.8928 C   0  0  2  0  0  0  0  0  0  0  0  0
    5.3447    3.6912   37.8654 O   0  0  0  0  0  0  0  0  0  0  0  0
    3.0728    2.8628   37.6112 C   0  0  1  0  0  0  0  0  0  0  0  0
    1.9361    2.9996   36.6740 N   0  3  0  0  0  0  0  0  0  0  0  0
    3.1304    1.4667   38.2853 C   0  0  1  0  0  0  0  0  0  0  0  0
    1.8521    0.9963   38.7789 O   0  0  0  0  0  0  0  0  0  0  0  0
    5.1060    0.7774   36.9779 C   0  0  1  0  0  0  0  0  0  0  0  0
    3.7395    0.4858   37.3797 O   0  0  0  0  0  0  0  0  0  0  0  0
    5.7479   -0.4386   36.2842 C   0  0  0  0  0  0  0  0  0  0  0  0
    4.8055   -1.1553   35.4029 N   0  3  0  0  0  0  0  0  0  0  0  0
  1  2  1  1  0  0  0
  1  3  1  0  0  0  0
  1 10  1  0  0  0  0
  3  4  1  1  0  0  0
  3  5  1  0  0  0  0
  5  6  1  1  0  0  0
  5  7  1  0  0  0  0
  7  8  1  1  0  0  0
  7  9  1  0  0  0  0
  9 10  1  0  0  0  0
  9 11  1  6  0  0  0
 11 12  1  0  0  0  0
 13 14  1  6  0  0  0
 13 15  1  0  0  0  0
 13 22  1  0  0  0  0
 15 16  1  6  0  0  0
 15 17  1  0  0  0  0
 17 18  1  6  0  0  0
 17 19  1  0  0  0  0
 19  2  1  1  0  0  0
 19 20  1  0  0  0  0
 20 21  1  1  0  0  0
 20 22  1  0  0  0  0
 23 18  1  1  0  0  0
 23 24  1  0  0  0  0
 23 28  1  0  0  0  0
 24 25  1  6  0  0  0
 24 26  1  0  0  0  0
 26 27  1  0  0  0  0
 26 38  1  6  0  0  0
 27 28  1  0  0  0  0
 27 29  1  1  0  0  0
 29 30  1  0  0  0  0
 31 32  1  6  0  0  0
 31 33  1  0  0  0  0
 31 39  1  0  0  0  0
 33 34  1  1  0  0  0
 33 35  1  0  0  0  0
 35 36  1  6  0  0  0
 35 37  1  0  0  0  0
 37 38  1  6  0  0  0
 37 40  1  0  0  0  0
 39 40  1  0  0  0  0
 39 41  1  6  0  0  0
 41 42  1  0  0  0  0
M  CHG  5   4   1  14   1  21   1  36   1  42   1
M  END
>  <CHROM.1>
-153.13356316,56.38070960,56.49124318,-177.04799818,-60.15029291,169.16261233
178.07982541,95.13924191,66.77969430,-73.67638766,108.52318568,-48.48630472
65.96667471,-92.92992244,-19.72858011,90.29086877,58.25257482,-45.19923698
-58.13772019,-142.05681589,-82.81273204,-158.36670525,2.02103267,-0.53462335
41.66854587,-2.58270002,-1.13375267,-2.20828630

>  <Name>
1pbr

>  <RI>
0

>  <Rbt.Current_Directory>
/home/itssahil/PROJECTS/Mol_Feturizer/New_Systems/rnas/1pbr

>  <Rbt.Executable>
rbdock ($Id: //depot/dev/client3/rdock/2013.1/src/exe/rbdock.cxx#4 $)

>  <Rbt.Library>
libRbt.so (2013.1, Build901 2013/11/27)

>  <Rbt.Parameter_File>
/export/apps/rDock/src/rDock_2013.1_src/data/scripts/dock_solv.prm

>  <Rbt.Receptor>
prm/pocket_docking_3.prm

>  <SCORE>
-44.9856

>  <SCORE.INTER>
-54.2129

>  <SCORE.INTER.CONST>
1

>  <SCORE.INTER.POLAR>
-7.21609

>  <SCORE.INTER.ROT>
9

>  <SCORE.INTER.SOLV>
34.5538

>  <SCORE.INTER.VDW>
-33.2062

>  <SCORE.INTER.norm>
-1.29078

>  <SCORE.INTRA>
8.94062

>  <SCORE.INTRA.DIHEDRAL>
5.30428

>  <SCORE.INTRA.DIHEDRAL.0>
29.7866

>  <SCORE.INTRA.POLAR>
0.823113

>  <SCORE.INTRA.POLAR.0>
-0.984091

>  <SCORE.INTRA.REPUL>
-0.134639

>  <SCORE.INTRA.REPUL.0>
0.274115

>  <SCORE.INTRA.SOLV>
-0.613875

>  <SCORE.INTRA.SOLV.lig_0>
-152.978

>  <SCORE.INTRA.VDW>
4.47002

>  <SCORE.INTRA.VDW.0>
-6.10719

>  <SCORE.INTRA.norm>
0.212872

>  <SCORE.RESTR>
0.28669

>  <SCORE.RESTR.CAVITY>
0.28669

>  <SCORE.RESTR.norm>
0.00682594

>  <SCORE.SYSTEM>
0

>  <SCORE.SYSTEM.CONST>
0

>  <SCORE.SYSTEM.DIHEDRAL>
0

>  <SCORE.SYSTEM.SOLV>
0

>  <SCORE.SYSTEM.norm>
0

>  <SCORE.heavy>
42

>  <SCORE.norm>
-1.07109

>  <RMSD>
2.409

$$$$
1pbr
 OpenBabel11021811403D
libRbt.so/2013.1/901 2013/11/27
 42 45  0  0  0  0  0  0  0  0999 V2000
    1.3427   -0.7730   44.5878 C   0  0  2  0  0  0  0  0  0  0  0  0
    0.9686   -2.0882   45.0710 O   0  0  0  0  0  0  0  0  0  0  0  0
    2.7775   -0.3764   45.0999 C   0  0  2  0  0  0  0  0  0  0  0  0
    3.7717   -1.4802   45.0636 N   0  3  0  0  0  0  0  0  0  0  0  0
    2.7417    0.1240   46.5562 C   0  0  1  0  0  0  0  0  0  0  0  0
    3.9847    0.7227   46.9163 O   0  0  0  0  0  0  0  0  0  0  0  0
    1.6071    1.1386   46.7634 C   0  0  2  0  0  0  0  0  0  0  0  0
    1.6171    1.6223   48.1029 O   0  0  0  0  0  0  0  0  0  0  0  0
    0.2458    0.5264   46.3654 C   0  0  2  0  0  0  0  0  0  0  0  0
    0.3279    0.1993   44.9620 O   0  0  0  0  0  0  0  0  0  0  0  0
   -0.9446    1.4638   46.5604 C   0  0  0  0  0  0  0  0  0  0  0  0
   -1.8927    1.3175   45.5114 O   0  0  0  0  0  0  0  0  0  0  0  0
   -0.0545   -5.7876   43.2066 C   0  0  1  0  0  0  0  0  0  0  0  0
   -0.6311   -6.8737   42.3931 N   0  3  0  0  0  0  0  0  0  0  0  0
    0.7655   -4.7780   42.3475 C   0  0  2  0  0  0  0  0  0  0  0  0
    1.8300   -5.4466   41.6749 O   0  0  0  0  0  0  0  0  0  0  0  0
    1.3741   -3.6489   43.2298 C   0  0  1  0  0  0  0  0  0  0  0  0
    1.9804   -2.6507   42.3563 O   0  0  0  0  0  0  0  0  0  0  0  0
    0.2973   -2.9637   44.1332 C   0  0  1  0  0  0  0  0  0  0  0  0
   -0.5538   -3.9902   44.9473 C   0  0  1  0  0  0  0  0  0  0  0  0
   -1.6272   -3.3202   45.7145 N   0  3  0  0  0  0  0  0  0  0  0  0
   -1.1722   -5.0561   44.0060 C   0  0  0  0  0  0  0  0  0  0  0  0
    3.3273   -2.8648   41.8254 C   0  0  1  0  0  0  0  0  0  0  0  0
    3.2221   -3.1581   40.3171 C   0  0  2  0  0  0  0  0  0  0  0  0
    4.3387   -3.9186   39.8643 O   0  0  0  0  0  0  0  0  0  0  0  0
    3.2476   -1.7158   39.7888 C   0  0  1  0  0  0  0  0  0  0  0  0
    4.3356   -1.0783   40.6369 C   0  0  2  0  0  0  0  0  0  0  0  0
    4.0976   -1.6530   41.9127 O   0  0  0  0  0  0  0  0  0  0  0  0
    4.2838    0.4525   40.7235 C   0  0  0  0  0  0  0  0  0  0  0  0
    5.5608    0.9643   41.0750 O   0  0  0  0  0  0  0  0  0  0  0  0
    4.8601    1.8994   36.1536 C   0  0  1  0  0  0  0  0  0  0  0  0
    4.1866    1.5467   34.9467 O   0  0  0  0  0  0  0  0  0  0  0  0
    3.8128    2.1448   37.2755 C   0  0  2  0  0  0  0  0  0  0  0  0
    4.4474    2.8449   38.3431 O   0  0  0  0  0  0  0  0  0  0  0  0
    3.1336    0.8589   37.8508 C   0  0  1  0  0  0  0  0  0  0  0  0
    1.9804    0.4667   37.0109 N   0  3  0  0  0  0  0  0  0  0  0  0
    4.1526   -0.2941   38.0477 C   0  0  1  0  0  0  0  0  0  0  0  0
    3.5460   -1.5689   38.3732 O   0  0  0  0  0  0  0  0  0  0  0  0
    5.8278    0.7668   36.5795 C   0  0  1  0  0  0  0  0  0  0  0  0
    5.0270   -0.4102   36.8750 O   0  0  0  0  0  0  0  0  0  0  0  0
    6.9119    0.4473   35.5331 C   0  0  0  0  0  0  0  0  0  0  0  0
    7.5727    1.6585   35.0088 N   0  3  0  0  0  0  0  0  0  0  0  0
  1  2  1  1  0  0  0
  1  3  1  0  0  0  0
  1 10  1  0  0  0  0
  3  4  1  1  0  0  0
  3  5  1  0  0  0  0
  5  6  1  6  0  0  0
  5  7  1  0  0  0  0
  7  8  1  1  0  0  0
  7  9  1  0  0  0  0
  9 10  1  0  0  0  0
  9 11  1  6  0  0  0
 11 12  1  0  0  0  0
 13 14  1  6  0  0  0
 13 15  1  0  0  0  0
 13 22  1  0  0  0  0
 15 16  1  1  0  0  0
 15 17  1  0  0  0  0
 17 18  1  6  0  0  0
 17 19  1  0  0  0  0
 19  2  1  1  0  0  0
 19 20  1  0  0  0  0
 20 21  1  6  0  0  0
 20 22  1  0  0  0  0
 23 18  1  6  0  0  0
 23 24  1  0  0  0  0
 23 28  1  0  0  0  0
 24 25  1  6  0  0  0
 24 26  1  0  0  0  0
 26 27  1  0  0  0  0
 26 38  1  6  0  0  0
 27 28  1  0  0  0  0
 27 29  1  1  0  0  0
 29 30  1  0  0  0  0
 31 32  1  6  0  0  0
 31 33  1  0  0  0  0
 31 39  1  0  0  0  0
 33 34  1  1  0  0  0
 33 35  1  0  0  0  0
 35 36  1  6  0  0  0
 35 37  1  0  0  0  0
 37 38  1  6  0  0  0
 37 40  1  0  0  0  0
 39 40  1  0  0  0  0
 39 41  1  6  0  0  0
 41 42  1  0  0  0  0
M  CHG  5   4   1  14   1  21   1  36   1  42   1
M  END
>  <CHROM.1>
-138.55106449,82.01584690,-42.25690340,-40.98092477,-64.28282721,142.02037991
87.79345523,-46.51350248,69.04416891,-82.18913990,109.04626200,105.23880145
-61.48791681,-153.23842179,-157.84193943,85.95523721,64.54617080,-54.71747895
-73.97784547,-83.40162484,47.11200698,42.69598838,2.55457659,-1.04944201
41.73897703,-2.72343280,-1.04380909,-2.38637005

>  <Name>
1pbr

>  <RI>
0

>  <Rbt.Current_Directory>
/home/itssahil/PROJECTS/Mol_Feturizer/New_Systems/rnas/1pbr

>  <Rbt.Executable>
rbdock ($Id: //depot/dev/client3/rdock/2013.1/src/exe/rbdock.cxx#4 $)

>  <Rbt.Library>
libRbt.so (2013.1, Build901 2013/11/27)

>  <Rbt.Parameter_File>
/export/apps/rDock/src/rDock_2013.1_src/data/scripts/dock_solv.prm

>  <Rbt.Receptor>
prm/pocket_docking_2.prm

>  <SCORE>
-33.4239

>  <SCORE.INTER>
-49.0881

>  <SCORE.INTER.CONST>
1

>  <SCORE.INTER.POLAR>
-6.26538

>  <SCORE.INTER.ROT>
9

>  <SCORE.INTER.SOLV>
27.9508

>  <SCORE.INTER.VDW>
-30.7577

>  <SCORE.INTER.norm>
-1.16876

>  <SCORE.INTRA>
12.0748

>  <SCORE.INTRA.DIHEDRAL>
12.1185

>  <SCORE.INTRA.DIHEDRAL.0>
29.7866

>  <SCORE.INTRA.POLAR>
-0.131861

>  <SCORE.INTRA.POLAR.0>
-0.984091

>  <SCORE.INTRA.REPUL>
-0.234677

>  <SCORE.INTRA.REPUL.0>
0.274115

>  <SCORE.INTRA.SOLV>
1.1385

>  <SCORE.INTRA.SOLV.lig_0>
-152.978

>  <SCORE.INTRA.VDW>
7.06802

>  <SCORE.INTRA.VDW.0>
-6.10719

>  <SCORE.INTRA.norm>
0.287495

>  <SCORE.RESTR>
3.58945

>  <SCORE.RESTR.CAVITY>
3.58945

>  <SCORE.RESTR.norm>
0.0854632

>  <SCORE.SYSTEM>
0

>  <SCORE.SYSTEM.CONST>
0

>  <SCORE.SYSTEM.DIHEDRAL>
0

>  <SCORE.SYSTEM.SOLV>
0

>  <SCORE.SYSTEM.norm>
0

>  <SCORE.heavy>
42

>  <SCORE.norm>
-0.795806

>  <RMSD>
2.450

$$$$
1pbr
 OpenBabel11021811403D
libRbt.so/2013.1/901 2013/11/27
 42 45  0  0  0  0  0  0  0  0999 V2000
    1.6771   -0.8253   44.7266 C   0  0  2  0  0  0  0  0  0  0  0  0
    1.1224   -2.1538   44.9013 O   0  0  0  0  0  0  0  0  0  0  0  0
    2.7695   -0.5270   45.8202 C   0  0  2  0  0  0  0  0  0  0  0  0
    3.6768   -1.6671   46.1119 N   0  3  0  0  0  0  0  0  0  0  0  0
    2.1320   -0.1285   47.1646 C   0  0  1  0  0  0  0  0  0  0  0  0
    3.1158    0.3900   48.0572 O   0  0  0  0  0  0  0  0  0  0  0  0
    1.0248    0.9168   46.9620 C   0  0  2  0  0  0  0  0  0  0  0  0
    0.4776    1.3049   48.2183 O   0  0  0  0  0  0  0  0  0  0  0  0
   -0.0507    0.3925   45.9848 C   0  0  2  0  0  0  0  0  0  0  0  0
    0.6083    0.1611   44.7216 O   0  0  0  0  0  0  0  0  0  0  0  0
   -1.2043    1.3642   45.7415 C   0  0  0  0  0  0  0  0  0  0  0  0
   -1.7737    1.8048   46.9671 O   0  0  0  0  0  0  0  0  0  0  0  0
    0.4290   -5.1099   41.9032 C   0  0  1  0  0  0  0  0  0  0  0  0
   -0.0738   -5.9321   40.7874 N   0  3  0  0  0  0  0  0  0  0  0  0
    1.0125   -3.7486   41.4174 C   0  0  2  0  0  0  0  0  0  0  0  0
    2.0844   -3.9648   40.5025 O   0  0  0  0  0  0  0  0  0  0  0  0
    1.5480   -2.9049   42.6111 C   0  0  1  0  0  0  0  0  0  0  0  0
    1.9209   -1.5840   42.1179 O   0  0  0  0  0  0  0  0  0  0  0  0
    0.4851   -2.7541   43.7480 C   0  0  1  0  0  0  0  0  0  0  0  0
   -0.1314   -4.1207   44.1874 C   0  0  1  0  0  0  0  0  0  0  0  0
   -1.2026   -3.9370   45.1915 N   0  3  0  0  0  0  0  0  0  0  0  0
   -0.6910   -4.8875   42.9613 C   0  0  0  0  0  0  0  0  0  0  0  0
    2.6137   -1.4510   40.8356 C   0  0  1  0  0  0  0  0  0  0  0  0
    1.7370   -0.6132   39.8861 C   0  0  2  0  0  0  0  0  0  0  0  0
    2.0260   -0.9139   38.5236 O   0  0  0  0  0  0  0  0  0  0  0  0
    2.2190    0.7891   40.2873 C   0  0  1  0  0  0  0  0  0  0  0  0
    3.7228    0.5976   40.3945 C   0  0  2  0  0  0  0  0  0  0  0  0
    3.8202   -0.6842   40.9964 O   0  0  0  0  0  0  0  0  0  0  0  0
    4.4557    1.6431   41.2450 C   0  0  0  0  0  0  0  0  0  0  0  0
    4.0829    1.5103   42.6087 O   0  0  0  0  0  0  0  0  0  0  0  0
    4.6076    2.6352   36.0723 C   0  0  1  0  0  0  0  0  0  0  0  0
    3.7302    2.1480   35.0586 O   0  0  0  0  0  0  0  0  0  0  0  0
    3.9662    3.8743   36.7571 C   0  0  2  0  0  0  0  0  0  0  0  0
    4.9790    4.5651   37.4848 O   0  0  0  0  0  0  0  0  0  0  0  0
    2.7755    3.5648   37.7226 C   0  0  1  0  0  0  0  0  0  0  0  0
    1.5097    3.4659   36.9630 N   0  3  0  0  0  0  0  0  0  0  0  0
    3.0506    2.3128   38.5965 C   0  0  1  0  0  0  0  0  0  0  0  0
    1.9015    1.8559   39.3515 O   0  0  0  0  0  0  0  0  0  0  0  0
    4.8733    1.5326   37.1280 C   0  0  1  0  0  0  0  0  0  0  0  0
    3.6086    1.2301   37.7782 O   0  0  0  0  0  0  0  0  0  0  0  0
    5.5144    0.2574   36.5493 C   0  0  0  0  0  0  0  0  0  0  0  0
    6.9853    0.3464   36.4656 N   0  3  0  0  0  0  0  0  0  0  0  0
  1  2  1  1  0  0  0
  1  3  1  0  0  0  0
  1 10  1  0  0  0  0
  3  4  1  1  0  0  0
  3  5  1  0  0  0  0
  5  6  1  1  0  0  0
  5  7  1  0  0  0  0
  7  8  1  1  0  0  0
  7  9  1  0  0  0  0
  9 10  1  0  0  0  0
  9 11  1  6  0  0  0
 11 12  1  0  0  0  0
 13 14  1  6  0  0  0
 13 15  1  0  0  0  0
 13 22  1  0  0  0  0
 15 16  1  6  0  0  0
 15 17  1  0  0  0  0
 17 18  1  6  0  0  0
 17 19  1  0  0  0  0
 19  2  1  1  0  0  0
 19 20  1  0  0  0  0
 20 21  1  1  0  0  0
 20 22  1  0  0  0  0
 23 18  1  1  0  0  0
 23 24  1  0  0  0  0
 23 28  1  0  0  0  0
 24 25  1  6  0  0  0
 24 26  1  0  0  0  0
 26 27  1  0  0  0  0
 26 38  1  6  0  0  0
 27 28  1  0  0  0  0
 27 29  1  1  0  0  0
 29 30  1  0  0  0  0
 31 32  1  6  0  0  0
 31 33  1  0  0  0  0
 31 39  1  0  0  0  0
 33 34  1  1  0  0  0
 33 35  1  0  0  0  0
 35 36  1  6  0  0  0
 35 37  1  0  0  0  0
 37 38  1  6  0  0  0
 37 40  1  0  0  0  0
 39 40  1  0  0  0  0
 39 41  1  6  0  0  0
 41 42  1  0  0  0  0
M  CHG  5   4   1  14   1  21   1  36   1  42   1
M  END
>  <CHROM.1>
-158.67626638,61.44987686,171.85441407,-172.08876128,-177.11928937,-52.22665247
-87.48205067,66.79451622,69.97240924,-41.00671764,118.81863983,79.95064083
-66.86707103,-106.13093579,67.40712032,65.68249734,62.71307700,55.62800072
-174.70526626,-172.78967674,85.45351268,163.71096859,2.17657240,-0.21009499
41.70308998,-2.73579296,-1.17046155,-2.33172002

>  <Name>
1pbr

>  <RI>
0

>  <Rbt.Current_Directory>
/home/itssahil/PROJECTS/Mol_Feturizer/New_Systems/rnas/1pbr

>  <Rbt.Executable>
rbdock ($Id: //depot/dev/client3/rdock/2013.1/src/exe/rbdock.cxx#4 $)

>  <Rbt.Library>
libRbt.so (2013.1, Build901 2013/11/27)

>  <Rbt.Parameter_File>
/export/apps/rDock/src/rDock_2013.1_src/data/scripts/dock_solv.prm

>  <Rbt.Receptor>
prm/pocket_docking_3.prm

>  <SCORE>
-52.8358

>  <SCORE.INTER>
-55.436

>  <SCORE.INTER.CONST>
1

>  <SCORE.INTER.POLAR>
-7.5755

>  <SCORE.INTER.ROT>
9

>  <SCORE.INTER.SOLV>
29.8954

>  <SCORE.INTER.VDW>
-31.2708

>  <SCORE.INTER.norm>
-1.3199

>  <SCORE.INTRA>
2.22115

>  <SCORE.INTRA.DIHEDRAL>
-3.1018

>  <SCORE.INTRA.DIHEDRAL.0>
29.7866

>  <SCORE.INTRA.POLAR>
-0.284858

>  <SCORE.INTRA.POLAR.0>
-0.984091

>  <SCORE.INTRA.REPUL>
-0.274115

>  <SCORE.INTRA.REPUL.0>
0.274115

>  <SCORE.INTRA.SOLV>
-3.35086

>  <SCORE.INTRA.SOLV.lig_0>
-152.978

>  <SCORE.INTRA.VDW>
7.78657

>  <SCORE.INTRA.VDW.0>
-6.10719

>  <SCORE.INTRA.norm>
0.0528844

>  <SCORE.RESTR>
0.378995

>  <SCORE.RESTR.CAVITY>
0.378995

>  <SCORE.RESTR.norm>
0.00902369

>  <SCORE.SYSTEM>
0

>  <SCORE.SYSTEM.CONST>
0

>  <SCORE.SYSTEM.DIHEDRAL>
0

>  <SCORE.SYSTEM.SOLV>
0

>  <SCORE.SYSTEM.norm>
0

>  <SCORE.heavy>
42

>  <SCORE.norm>
-1.258

>  <RMSD>
2.455

$$$$
1pbr
 OpenBabel11021811403D
libRbt.so/2013.1/901 2013/11/27
 42 45  0  0  0  0  0  0  0  0999 V2000
    1.8824   -1.0046   44.9717 C   0  0  2  0  0  0  0  0  0  0  0  0
    1.1772   -2.2655   45.0984 O   0  0  0  0  0  0  0  0  0  0  0  0
    3.0780   -0.9274   45.9928 C   0  0  2  0  0  0  0  0  0  0  0  0
    3.8516   -2.1885   46.1324 N   0  3  0  0  0  0  0  0  0  0  0  0
    2.5926   -0.5605   47.4079 C   0  0  1  0  0  0  0  0  0  0  0  0
    3.6946   -0.2366   48.2528 O   0  0  0  0  0  0  0  0  0  0  0  0
    1.6155    0.6241   47.3663 C   0  0  2  0  0  0  0  0  0  0  0  0
    1.2119    0.9766   48.6858 O   0  0  0  0  0  0  0  0  0  0  0  0
    0.4161    0.3122   46.4440 C   0  0  2  0  0  0  0  0  0  0  0  0
    0.9498    0.1016   45.1196 O   0  0  0  0  0  0  0  0  0  0  0  0
   -0.6190    1.4327   46.3606 C   0  0  0  0  0  0  0  0  0  0  0  0
   -1.4973    1.2416   45.2593 O   0  0  0  0  0  0  0  0  0  0  0  0
   -0.0642   -5.3201   42.3899 C   0  0  1  0  0  0  0  0  0  0  0  0
   -0.6241   -6.1142   41.2809 N   0  3  0  0  0  0  0  0  0  0  0  0
    1.1284   -4.4265   41.9329 C   0  0  2  0  0  0  0  0  0  0  0  0
    2.1717   -5.2302   41.3869 O   0  0  0  0  0  0  0  0  0  0  0  0
    1.7100   -3.6081   43.1227 C   0  0  1  0  0  0  0  0  0  0  0  0
    2.7014   -2.6725   42.6043 O   0  0  0  0  0  0  0  0  0  0  0  0
    0.6006   -2.8174   43.8903 C   0  0  1  0  0  0  0  0  0  0  0  0
   -0.6136   -3.7136   44.2944 C   0  0  1  0  0  0  0  0  0  0  0  0
   -1.6887   -2.9196   44.9294 N   0  3  0  0  0  0  0  0  0  0  0  0
   -1.1771   -4.4607   43.0580 C   0  0  0  0  0  0  0  0  0  0  0  0
    2.4052   -1.8806   41.4097 C   0  0  1  0  0  0  0  0  0  0  0  0
    3.4839   -0.7916   41.2599 C   0  0  2  0  0  0  0  0  0  0  0  0
    2.9867    0.3240   40.5262 O   0  0  0  0  0  0  0  0  0  0  0  0
    4.5264   -1.5927   40.4653 C   0  0  1  0  0  0  0  0  0  0  0  0
    3.6663   -2.3314   39.4533 C   0  0  2  0  0  0  0  0  0  0  0  0
    2.5328   -2.6913   40.2282 O   0  0  0  0  0  0  0  0  0  0  0  0
    4.3095   -3.5805   38.8372 C   0  0  0  0  0  0  0  0  0  0  0  0
    4.6146   -4.5235   39.8541 O   0  0  0  0  0  0  0  0  0  0  0  0
    5.4368    1.3503   36.0498 C   0  0  1  0  0  0  0  0  0  0  0  0
    6.6272    2.0979   36.2923 O   0  0  0  0  0  0  0  0  0  0  0  0
    5.7848   -0.1625   35.9739 C   0  0  2  0  0  0  0  0  0  0  0  0
    4.6902   -0.8501   35.3724 O   0  0  0  0  0  0  0  0  0  0  0  0
    6.1157   -0.8434   37.3423 C   0  0  1  0  0  0  0  0  0  0  0  0
    7.5413   -0.6444   37.6845 N   0  3  0  0  0  0  0  0  0  0  0  0
    5.1570   -0.3740   38.4681 C   0  0  1  0  0  0  0  0  0  0  0  0
    5.5485   -0.8051   39.7947 O   0  0  0  0  0  0  0  0  0  0  0  0
    4.4088    1.5948   37.1830 C   0  0  1  0  0  0  0  0  0  0  0  0
    4.9816    1.0820   38.4169 O   0  0  0  0  0  0  0  0  0  0  0  0
    3.9930    3.0695   37.3395 C   0  0  0  0  0  0  0  0  0  0  0  0
    3.0212    3.4996   36.3151 N   0  3  0  0  0  0  0  0  0  0  0  0
  1  2  1  1  0  0  0
  1  3  1  0  0  0  0
  1 10  1  0  0  0  0
  3  4  1  1  0  0  0
  3  5  1  0  0  0  0
  5  6  1  1  0  0  0
  5  7  1  0  0  0  0
  7  8  1  1  0  0  0
  7  9  1  0  0  0  0
  9 10  1  0  0  0  0
  9 11  1  6  0  0  0
 11 12  1  0  0  0  0
 13 14  1  6  0  0  0
 13 15  1  0  0  0  0
 13 22  1  0  0  0  0
 15 16  1  1  0  0  0
 15 17  1  0  0  0  0
 17 18  1  6  0  0  0
 17 19  1  0  0  0  0
 19  2  1  1  0  0  0
 19 20  1  0  0  0  0
 20 21  1  6  0  0  0
 20 22  1  0  0  0  0
 23 18  1  1  0  0  0
 23 24  1  0  0  0  0
 23 28  1  0  0  0  0
 24 25  1  6  0  0  0
 24 26  1  0  0  0  0
 26 27  1  0  0  0  0
 26 38  1  6  0  0  0
 27 28  1  0  0  0  0
 27 29  1  1  0  0  0
 29 30  1  0  0  0  0
 31 32  1  1  0  0  0
 31 33  1  0  0  0  0
 31 39  1  0  0  0  0
 33 34  1  1  0  0  0
 33 35  1  0  0  0  0
 35 36  1  1  0  0  0
 35 37  1  0  0  0  0
 37 38  1  1  0  0  0
 37 40  1  0  0  0  0
 39 40  1  0  0  0  0
 39 41  1  1  0  0  0
 41 42  1  0  0  0  0
M  CHG  5   4   1  14   1  21   1  36   1  42   1
M  END
>  <CHROM.1>
-147.30825712,83.69121310,-66.53029730,-64.21609217,47.41046743,164.91545429
-62.86743366,-60.33219326,-53.50834389,45.56154138,168.56308154,29.54090901
58.01867727,-87.55485681,60.23395651,65.48760481,64.96451986,63.89611436
-54.94838193,-121.99108104,77.61157402,47.17849682,2.73141580,-1.22422037
41.76016085,-2.67024652,-1.04760040,-2.41967895

>  <Name>
1pbr

>  <RI>
0

>  <Rbt.Current_Directory>
/home/itssahil/PROJECTS/Mol_Feturizer/New_Systems/rnas/1pbr

>  <Rbt.Executable>
rbdock ($Id: //depot/dev/client3/rdock/2013.1/src/exe/rbdock.cxx#4 $)

>  <Rbt.Library>
libRbt.so (2013.1, Build901 2013/11/27)

>  <Rbt.Parameter_File>
/export/apps/rDock/src/rDock_2013.1_src/data/scripts/dock_solv.prm

>  <Rbt.Receptor>
prm/pocket_docking_4.prm

>  <SCORE>
-49.2071

>  <SCORE.INTER>
-47.1622

>  <SCORE.INTER.CONST>
1

>  <SCORE.INTER.POLAR>
-6.8723

>  <SCORE.INTER.ROT>
9

>  <SCORE.INTER.SOLV>
30.3039

>  <SCORE.INTER.VDW>
-28.2351

>  <SCORE.INTER.norm>
-1.12291

>  <SCORE.INTRA>
-2.30054

>  <SCORE.INTRA.DIHEDRAL>
-4.822

>  <SCORE.INTRA.DIHEDRAL.0>
29.7866

>  <SCORE.INTRA.POLAR>
-0.138051

>  <SCORE.INTRA.POLAR.0>
-0.984091

>  <SCORE.INTRA.REPUL>
-0.274115

>  <SCORE.INTRA.REPUL.0>
0.274115

>  <SCORE.INTRA.SOLV>
-1.58681

>  <SCORE.INTRA.SOLV.lig_0>
-152.978

>  <SCORE.INTRA.VDW>
2.74381

>  <SCORE.INTRA.VDW.0>
-6.10719

>  <SCORE.INTRA.norm>
-0.0547748

>  <SCORE.RESTR>
0.255563

>  <SCORE.RESTR.CAVITY>
0.255563

>  <SCORE.RESTR.norm>
0.00608484

>  <SCORE.SYSTEM>
0

>  <SCORE.SYSTEM.CONST>
0

>  <SCORE.SYSTEM.DIHEDRAL>
0

>  <SCORE.SYSTEM.SOLV>
0

>  <SCORE.SYSTEM.norm>
0

>  <SCORE.heavy>
42

>  <SCORE.norm>
-1.1716

>  <RMSD>
2.456

$$$$
1pbr
 OpenBabel11021811403D
libRbt.so/2013.1/901 2013/11/27
 42 45  0  0  0  0  0  0  0  0999 V2000
    1.1458   -1.3050   43.4633 C   0  0  2  0  0  0  0  0  0  0  0  0
    1.7511   -2.5185   42.9494 O   0  0  0  0  0  0  0  0  0  0  0  0
    1.1824   -0.1608   42.3826 C   0  0  2  0  0  0  0  0  0  0  0  0
    0.8677   -0.6080   41.0008 N   0  3  0  0  0  0  0  0  0  0  0  0
    2.5671    0.5103   42.3137 C   0  0  1  0  0  0  0  0  0  0  0  0
    2.5133    1.7026   41.5334 O   0  0  0  0  0  0  0  0  0  0  0  0
    3.0896    0.8431   43.7194 C   0  0  2  0  0  0  0  0  0  0  0  0
    4.3494    1.5017   43.6337 O   0  0  0  0  0  0  0  0  0  0  0  0
    3.1440   -0.4265   44.5978 C   0  0  2  0  0  0  0  0  0  0  0  0
    1.7913   -0.9180   44.7078 O   0  0  0  0  0  0  0  0  0  0  0  0
    3.6738   -0.1892   46.0110 C   0  0  0  0  0  0  0  0  0  0  0  0
    3.9348    1.1894   46.2385 O   0  0  0  0  0  0  0  0  0  0  0  0
    0.3765   -5.9352   40.7944 C   0  0  1  0  0  0  0  0  0  0  0  0
   -0.2966   -6.8886   39.8933 N   0  3  0  0  0  0  0  0  0  0  0  0
    1.3157   -4.9579   40.0249 C   0  0  2  0  0  0  0  0  0  0  0  0
    2.3158   -5.6845   39.3146 O   0  0  0  0  0  0  0  0  0  0  0  0
    2.0239   -3.9706   40.9982 C   0  0  1  0  0  0  0  0  0  0  0  0
    2.7497   -2.9804   40.2110 O   0  0  0  0  0  0  0  0  0  0  0  0
    1.0088   -3.2435   41.9396 C   0  0  1  0  0  0  0  0  0  0  0  0
    0.0377   -4.2309   42.6626 C   0  0  1  0  0  0  0  0  0  0  0  0
   -0.9729   -3.5091   43.4671 N   0  3  0  0  0  0  0  0  0  0  0  0
   -0.6723   -5.1501   41.6353 C   0  0  0  0  0  0  0  0  0  0  0  0
    3.9689   -3.3638   39.4979 C   0  0  1  0  0  0  0  0  0  0  0  0
    4.0164   -2.6047   38.1587 C   0  0  2  0  0  0  0  0  0  0  0  0
    4.7968   -3.3101   37.1977 O   0  0  0  0  0  0  0  0  0  0  0  0
    4.7053   -1.3172   38.6358 C   0  0  1  0  0  0  0  0  0  0  0  0
    5.7939   -1.8514   39.5519 C   0  0  2  0  0  0  0  0  0  0  0  0
    5.1310   -2.9154   40.2176 O   0  0  0  0  0  0  0  0  0  0  0  0
    6.3427   -0.8445   40.5709 C   0  0  0  0  0  0  0  0  0  0  0  0
    5.2974   -0.3883   41.4168 O   0  0  0  0  0  0  0  0  0  0  0  0
    3.1520    2.9248   35.9917 C   0  0  1  0  0  0  0  0  0  0  0  0
    4.1330    3.8851   36.3790 O   0  0  0  0  0  0  0  0  0  0  0  0
    3.7719    1.9423   34.9592 C   0  0  2  0  0  0  0  0  0  0  0  0
    2.7146    1.2406   34.3094 O   0  0  0  0  0  0  0  0  0  0  0  0
    4.7801    0.9011   35.5468 C   0  0  1  0  0  0  0  0  0  0  0  0
    6.1344    1.4901   35.6358 N   0  3  0  0  0  0  0  0  0  0  0  0
    4.2883    0.3197   36.8984 C   0  0  1  0  0  0  0  0  0  0  0  0
    5.2761   -0.4836   37.5899 O   0  0  0  0  0  0  0  0  0  0  0  0
    2.6530    2.1374   37.2294 C   0  0  1  0  0  0  0  0  0  0  0  0
    3.7816    1.3919   37.7627 O   0  0  0  0  0  0  0  0  0  0  0  0
    2.0149    3.0233   38.3157 C   0  0  0  0  0  0  0  0  0  0  0  0
    1.1113    4.0481   37.7573 N   0  3  0  0  0  0  0  0  0  0  0  0
  1  2  1  6  0  0  0
  1  3  1  0  0  0  0
  1 10  1  0  0  0  0
  3  4  1  6  0  0  0
  3  5  1  0  0  0  0
  5  6  1  6  0  0  0
  5  7  1  0  0  0  0
  7  8  1  6  0  0  0
  7  9  1  0  0  0  0
  9 10  1  0  0  0  0
  9 11  1  1  0  0  0
 11 12  1  0  0  0  0
 13 14  1  6  0  0  0
 13 15  1  0  0  0  0
 13 22  1  0  0  0  0
 15 16  1  1  0  0  0
 15 17  1  0  0  0  0
 17 18  1  6  0  0  0
 17 19  1  0  0  0  0
 19  2  1  1  0  0  0
 19 20  1  0  0  0  0
 20 21  1  6  0  0  0
 20 22  1  0  0  0  0
 23 18  1  1  0  0  0
 23 24  1  0  0  0  0
 23 28  1  0  0  0  0
 24 25  1  6  0  0  0
 24 26  1  0  0  0  0
 26 27  1  0  0  0  0
 26 38  1  6  0  0  0
 27 28  1  0  0  0  0
 27 29  1  1  0  0  0
 29 30  1  0  0  0  0
 31 32  1  1  0  0  0
 31 33  1  0  0  0  0
 31 39  1  0  0  0  0
 33 34  1  1  0  0  0
 33 35  1  0  0  0  0
 35 36  1  1  0  0  0
 35 37  1  0  0  0  0
 37 38  1  1  0  0  0
 37 40  1  0  0  0  0
 39 40  1  0  0  0  0
 39 41  1  1  0  0  0
 41 42  1  0  0  0  0
M  CHG  5   4   1  14   1  21   1  36   1  42   1
M  END
>  <CHROM.1>
-71.56897170,149.57286512,-64.88337696,85.49363821,-51.52632018,3.39592606
-61.25406646,71.73137581,-61.93383751,-72.15500193,143.46505924,-72.61869796
-176.97042082,78.88964863,59.80837985,70.21466779,-65.35414359,59.10208877
-40.41601794,-163.64567792,43.28133507,-172.28913754,2.90829504,-0.93290543
40.15958353,-2.73272397,-1.22022153,-2.05342948

>  <Name>
1pbr

>  <RI>
0

>  <Rbt.Current_Directory>
/home/itssahil/PROJECTS/Mol_Feturizer/New_Systems/rnas/1pbr

>  <Rbt.Executable>
rbdock ($Id: //depot/dev/client3/rdock/2013.1/src/exe/rbdock.cxx#4 $)

>  <Rbt.Library>
libRbt.so (2013.1, Build901 2013/11/27)

>  <Rbt.Parameter_File>
/export/apps/rDock/src/rDock_2013.1_src/data/scripts/dock_solv.prm

>  <Rbt.Receptor>
prm/pocket_docking_4.prm

>  <SCORE>
-36.0449

>  <SCORE.INTER>
-32.321

>  <SCORE.INTER.CONST>
1

>  <SCORE.INTER.POLAR>
-4.88349

>  <SCORE.INTER.ROT>
9

>  <SCORE.INTER.SOLV>
31.8078

>  <SCORE.INTER.VDW>
-25.4716

>  <SCORE.INTER.norm>
-0.769547

>  <SCORE.INTRA>
-3.72394

>  <SCORE.INTRA.DIHEDRAL>
-4.42963

>  <SCORE.INTRA.DIHEDRAL.0>
29.7866

>  <SCORE.INTRA.POLAR>
-1.53559

>  <SCORE.INTRA.POLAR.0>
-0.984091

>  <SCORE.INTRA.REPUL>
0.00276259

>  <SCORE.INTRA.REPUL.0>
0.274115

>  <SCORE.INTRA.SOLV>
4.44238

>  <SCORE.INTRA.SOLV.lig_0>
-152.978

>  <SCORE.INTRA.VDW>
1.47688

>  <SCORE.INTRA.VDW.0>
-6.10719

>  <SCORE.INTRA.norm>
-0.0886654

>  <SCORE.RESTR>
0

>  <SCORE.RESTR.CAVITY>
0

>  <SCORE.RESTR.norm>
0

>  <SCORE.SYSTEM>
0

>  <SCORE.SYSTEM.CONST>
0

>  <SCORE.SYSTEM.DIHEDRAL>
0

>  <SCORE.SYSTEM.SOLV>
0

>  <SCORE.SYSTEM.norm>
0

>  <SCORE.heavy>
42

>  <SCORE.norm>
-0.858212

>  <RMSD>
2.469

$$$$
1pbr
 OpenBabel11021811403D
libRbt.so/2013.1/901 2013/11/27
 42 45  0  0  0  0  0  0  0  0999 V2000
    2.9844   -2.4268   42.7635 C   0  0  2  0  0  0  0  0  0  0  0  0
    2.1598   -3.4982   43.2881 O   0  0  0  0  0  0  0  0  0  0  0  0
    3.9953   -1.9131   43.8555 C   0  0  2  0  0  0  0  0  0  0  0  0
    4.6208   -2.9871   44.6700 N   0  3  0  0  0  0  0  0  0  0  0  0
    3.3151   -0.9564   44.8528 C   0  0  1  0  0  0  0  0  0  0  0  0
    4.2852   -0.2986   45.6650 O   0  0  0  0  0  0  0  0  0  0  0  0
    2.4667    0.0934   44.1195 C   0  0  2  0  0  0  0  0  0  0  0  0
    1.8815    0.9945   45.0542 O   0  0  0  0  0  0  0  0  0  0  0  0
    1.4150   -0.5872   43.2155 C   0  0  2  0  0  0  0  0  0  0  0  0
    2.1412   -1.3639   42.2395 O   0  0  0  0  0  0  0  0  0  0  0  0
    0.5108    0.3869   42.4621 C   0  0  0  0  0  0  0  0  0  0  0  0
   -0.4361   -0.3053   41.6591 O   0  0  0  0  0  0  0  0  0  0  0  0
    0.4849   -6.7216   41.0493 C   0  0  1  0  0  0  0  0  0  0  0  0
   -0.3242   -7.6022   40.1869 N   0  3  0  0  0  0  0  0  0  0  0  0
    1.2325   -5.6226   40.2352 C   0  0  2  0  0  0  0  0  0  0  0  0
    2.0955   -6.2190   39.2698 O   0  0  0  0  0  0  0  0  0  0  0  0
    2.0890   -4.7145   41.1654 C   0  0  1  0  0  0  0  0  0  0  0  0
    2.6236   -3.6109   40.3758 O   0  0  0  0  0  0  0  0  0  0  0  0
    1.2558   -4.1435   42.3591 C   0  0  1  0  0  0  0  0  0  0  0  0
    0.4683   -5.2489   43.1328 C   0  0  1  0  0  0  0  0  0  0  0  0
   -0.3867   -4.6681   44.1916 N   0  3  0  0  0  0  0  0  0  0  0  0
   -0.4022   -6.0836   42.1582 C   0  0  0  0  0  0  0  0  0  0  0  0
    3.8459   -3.7969   39.5928 C   0  0  1  0  0  0  0  0  0  0  0  0
    3.9118   -2.7003   38.5133 C   0  0  2  0  0  0  0  0  0  0  0  0
    4.6951   -3.1234   37.4008 O   0  0  0  0  0  0  0  0  0  0  0  0
    4.6068   -1.6000   39.3295 C   0  0  1  0  0  0  0  0  0  0  0  0
    5.6827   -2.3760   40.0711 C   0  0  2  0  0  0  0  0  0  0  0  0
    5.0051   -3.5748   40.4153 O   0  0  0  0  0  0  0  0  0  0  0  0
    6.2304   -1.6926   41.3306 C   0  0  0  0  0  0  0  0  0  0  0  0
    7.3541   -2.4073   41.8233 O   0  0  0  0  0  0  0  0  0  0  0  0
    3.5094    1.8860   35.3827 C   0  0  1  0  0  0  0  0  0  0  0  0
    4.7496    2.1103   34.7146 O   0  0  0  0  0  0  0  0  0  0  0  0
    3.1784    0.3676   35.3585 C   0  0  2  0  0  0  0  0  0  0  0  0
    1.8000    0.1987   35.6810 O   0  0  0  0  0  0  0  0  0  0  0  0
    4.0328   -0.5198   36.3221 C   0  0  1  0  0  0  0  0  0  0  0  0
    5.3087   -0.8991   35.6762 N   0  3  0  0  0  0  0  0  0  0  0  0
    4.2368    0.1575   37.7028 C   0  0  1  0  0  0  0  0  0  0  0  0
    5.1937   -0.5176   38.5558 O   0  0  0  0  0  0  0  0  0  0  0  0
    3.5918    2.3806   36.8487 C   0  0  1  0  0  0  0  0  0  0  0  0
    4.5883    1.5719   37.5321 O   0  0  0  0  0  0  0  0  0  0  0  0
    3.9131    3.8808   36.9829 C   0  0  0  0  0  0  0  0  0  0  0  0
    2.9306    4.7383   36.2916 N   0  3  0  0  0  0  0  0  0  0  0  0
  1  2  1  1  0  0  0
  1  3  1  0  0  0  0
  1 10  1  0  0  0  0
  3  4  1  1  0  0  0
  3  5  1  0  0  0  0
  5  6  1  6  0  0  0
  5  7  1  0  0  0  0
  7  8  1  1  0  0  0
  7  9  1  0  0  0  0
  9 10  1  0  0  0  0
  9 11  1  6  0  0  0
 11 12  1  0  0  0  0
 13 14  1  6  0  0  0
 13 15  1  0  0  0  0
 13 22  1  0  0  0  0
 15 16  1  6  0  0  0
 15 17  1  0  0  0  0
 17 18  1  6  0  0  0
 17 19  1  0  0  0  0
 19  2  1  1  0  0  0
 19 20  1  0  0  0  0
 20 21  1  1  0  0  0
 20 22  1  0  0  0  0
 23 18  1  1  0  0  0
 23 24  1  0  0  0  0
 23 28  1  0  0  0  0
 24 25  1  6  0  0  0
 24 26  1  0  0  0  0
 26 27  1  0  0  0  0
 26 38  1  6  0  0  0
 27 28  1  0  0  0  0
 27 29  1  1  0  0  0
 29 30  1  0  0  0  0
 31 32  1  1  0  0  0
 31 33  1  0  0  0  0
 31 39  1  0  0  0  0
 33 34  1  1  0  0  0
 33 35  1  0  0  0  0
 35 36  1  6  0  0  0
 35 37  1  0  0  0  0
 37 38  1  6  0  0  0
 37 40  1  0  0  0  0
 39 40  1  0  0  0  0
 39 41  1  6  0  0  0
 41 42  1  0  0  0  0
M  CHG  5   4   1  14   1  21   1  36   1  42   1
M  END
>  <CHROM.1>
-175.11321551,57.50513897,-65.82878006,61.99079437,60.51409714,-179.60689027
-64.34514183,-166.39823774,-57.42036251,-83.43196375,160.56907380,56.69748286
61.76473262,57.24780836,-171.45850814,73.73551801,-66.87736030,177.75099369
-140.92998699,-85.56973038,57.81393720,152.30992952,3.03403114,-1.73471808
40.31221283,-2.63794130,-1.25347094,-1.92700399

>  <Name>
1pbr

>  <RI>
0

>  <Rbt.Current_Directory>
/home/itssahil/PROJECTS/Mol_Feturizer/New_Systems/rnas/1pbr

>  <Rbt.Executable>
rbdock ($Id: //depot/dev/client3/rdock/2013.1/src/exe/rbdock.cxx#4 $)

>  <Rbt.Library>
libRbt.so (2013.1, Build901 2013/11/27)

>  <Rbt.Parameter_File>
/export/apps/rDock/src/rDock_2013.1_src/data/scripts/dock_solv.prm

>  <Rbt.Receptor>
prm/pocket_docking_4.prm

>  <SCORE>
-35.451

>  <SCORE.INTER>
-26.9829

>  <SCORE.INTER.CONST>
1

>  <SCORE.INTER.POLAR>
-4.25362

>  <SCORE.INTER.ROT>
9

>  <SCORE.INTER.SOLV>
23.0248

>  <SCORE.INTER.VDW>
-21.0848

>  <SCORE.INTER.norm>
-0.642449

>  <SCORE.INTRA>
-8.46808

>  <SCORE.INTRA.DIHEDRAL>
-15.7317

>  <SCORE.INTRA.DIHEDRAL.0>
29.7866

>  <SCORE.INTRA.POLAR>
0.306175

>  <SCORE.INTRA.POLAR.0>
-0.984091

>  <SCORE.INTRA.REPUL>
-0.274115

>  <SCORE.INTRA.REPUL.0>
0.274115

>  <SCORE.INTRA.SOLV>
-1.92376

>  <SCORE.INTRA.SOLV.lig_0>
-152.978

>  <SCORE.INTRA.VDW>
0.689209

>  <SCORE.INTRA.VDW.0>
-6.10719

>  <SCORE.INTRA.norm>
-0.201621

>  <SCORE.RESTR>
0

>  <SCORE.RESTR.CAVITY>
0

>  <SCORE.RESTR.norm>
0

>  <SCORE.SYSTEM>
0

>  <SCORE.SYSTEM.CONST>
0

>  <SCORE.SYSTEM.DIHEDRAL>
0

>  <SCORE.SYSTEM.SOLV>
0

>  <SCORE.SYSTEM.norm>
0

>  <SCORE.heavy>
42

>  <SCORE.norm>
-0.84407

>  <RMSD>
2.485

$$$$
1pbr
 OpenBabel11021811403D
libRbt.so/2013.1/901 2013/11/27
 42 45  0  0  0  0  0  0  0  0999 V2000
   -0.2724   -2.3037   42.8490 C   0  0  2  0  0  0  0  0  0  0  0  0
    0.9076   -3.1428   42.7679 O   0  0  0  0  0  0  0  0  0  0  0  0
    0.1174   -0.8252   43.2238 C   0  0  2  0  0  0  0  0  0  0  0  0
    1.3329   -0.3155   42.5376 N   0  3  0  0  0  0  0  0  0  0  0  0
    0.3793   -0.6732   44.7341 C   0  0  1  0  0  0  0  0  0  0  0  0
    0.4688    0.7031   45.0962 O   0  0  0  0  0  0  0  0  0  0  0  0
   -0.7294   -1.3466   45.5569 C   0  0  2  0  0  0  0  0  0  0  0  0
   -0.4936   -1.1583   46.9488 O   0  0  0  0  0  0  0  0  0  0  0  0
   -0.8648   -2.8376   45.1761 C   0  0  2  0  0  0  0  0  0  0  0  0
   -1.2285   -2.8820   43.7800 O   0  0  0  0  0  0  0  0  0  0  0  0
   -1.9345   -3.5917   45.9642 C   0  0  0  0  0  0  0  0  0  0  0  0
   -1.6298   -4.9774   46.0503 O   0  0  0  0  0  0  0  0  0  0  0  0
    2.5761   -6.0673   40.1466 C   0  0  1  0  0  0  0  0  0  0  0  0
    2.9436   -6.9363   39.0136 N   0  3  0  0  0  0  0  0  0  0  0  0
    3.0484   -4.5963   39.9399 C   0  0  2  0  0  0  0  0  0  0  0  0
    4.4640   -4.5461   39.7784 O   0  0  0  0  0  0  0  0  0  0  0  0
    2.6603   -3.7021   41.1538 C   0  0  1  0  0  0  0  0  0  0  0  0
    2.9737   -2.3151   40.8299 O   0  0  0  0  0  0  0  0  0  0  0  0
    1.1427   -3.8223   41.5111 C   0  0  1  0  0  0  0  0  0  0  0  0
    0.6703   -5.3038   41.6616 C   0  0  1  0  0  0  0  0  0  0  0  0
   -0.7874   -5.3888   41.9007 N   0  3  0  0  0  0  0  0  0  0  0  0
    1.0414   -6.1267   40.4008 C   0  0  0  0  0  0  0  0  0  0  0  0
    4.3671   -1.8999   40.6632 C   0  0  1  0  0  0  0  0  0  0  0  0
    4.6046   -1.5534   39.1814 C   0  0  2  0  0  0  0  0  0  0  0  0
    5.9775   -1.7077   38.8331 O   0  0  0  0  0  0  0  0  0  0  0  0
    4.1727   -0.0794   39.2064 C   0  0  1  0  0  0  0  0  0  0  0  0
    4.8075    0.4234   40.4925 C   0  0  2  0  0  0  0  0  0  0  0  0
    4.6115   -0.6726   41.3727 O   0  0  0  0  0  0  0  0  0  0  0  0
    4.1800    1.6956   41.0770 C   0  0  0  0  0  0  0  0  0  0  0  0
    4.7271    1.9638   42.3596 O   0  0  0  0  0  0  0  0  0  0  0  0
    2.0355    2.1523   34.9029 C   0  0  1  0  0  0  0  0  0  0  0  0
    2.5341    3.4886   34.9219 O   0  0  0  0  0  0  0  0  0  0  0  0
    3.1776    1.1819   34.4911 C   0  0  2  0  0  0  0  0  0  0  0  0
    2.5992   -0.0657   34.1152 O   0  0  0  0  0  0  0  0  0  0  0  0
    4.2641    0.9232   35.5858 C   0  0  1  0  0  0  0  0  0  0  0  0
    5.2971    1.9816   35.5456 N   0  3  0  0  0  0  0  0  0  0  0  0
    3.6361    0.7503   36.9938 C   0  0  1  0  0  0  0  0  0  0  0  0
    4.6033    0.7223   38.0722 O   0  0  0  0  0  0  0  0  0  0  0  0
    1.4946    1.7609   36.3010 C   0  0  1  0  0  0  0  0  0  0  0  0
    2.6144    1.7772   37.2281 O   0  0  0  0  0  0  0  0  0  0  0  0
    0.3513    2.6633   36.8017 C   0  0  0  0  0  0  0  0  0  0  0  0
   -0.0900    2.3192   38.1675 N   0  3  0  0  0  0  0  0  0  0  0  0
  1  2  1  1  0  0  0
  1  3  1  0  0  0  0
  1 10  1  0  0  0  0
  3  4  1  6  0  0  0
  3  5  1  0  0  0  0
  5  6  1  1  0  0  0
  5  7  1  0  0  0  0
  7  8  1  1  0  0  0
  7  9  1  0  0  0  0
  9 10  1  0  0  0  0
  9 11  1  1  0  0  0
 11 12  1  0  0  0  0
 13 14  1  6  0  0  0
 13 15  1  0  0  0  0
 13 22  1  0  0  0  0
 15 16  1  1  0  0  0
 15 17  1  0  0  0  0
 17 18  1  6  0  0  0
 17 19  1  0  0  0  0
 19  2  1  1  0  0  0
 19 20  1  0  0  0  0
 20 21  1  6  0  0  0
 20 22  1  0  0  0  0
 23 18  1  6  0  0  0
 23 24  1  0  0  0  0
 23 28  1  0  0  0  0
 24 25  1  1  0  0  0
 24 26  1  0  0  0  0
 26 27  1  0  0  0  0
 26 38  1  6  0  0  0
 27 28  1  0  0  0  0
 27 29  1  1  0  0  0
 29 30  1  0  0  0  0
 31 32  1  1  0  0  0
 31 33  1  0  0  0  0
 31 39  1  0  0  0  0
 33 34  1  1  0  0  0
 33 35  1  0  0  0  0
 35 36  1  1  0  0  0
 35 37  1  0  0  0  0
 37 38  1  1  0  0  0
 37 40  1  0  0  0  0
 39 40  1  0  0  0  0
 39 41  1  1  0  0  0
 41 42  1  0  0  0  0
M  CHG  5   4   1  14   1  21   1  36   1  42   1
M  END
>  <CHROM.1>
-122.38503638,136.53673989,135.84934447,63.94851352,70.53894918,-153.17684235
77.90352127,-63.29118156,-54.63044479,-66.83218563,111.49994488,-43.62328008
-173.60255493,91.63450961,172.02763919,-163.02507603,179.99861123,140.76992995
67.72992041,-150.24627172,-176.57014717,-170.21620630,2.07107602,-1.27061656
40.42419403,2.46681394,-1.08567482,2.93581403

>  <Name>
1pbr

>  <RI>
0

>  <Rbt.Current_Directory>
/home/itssahil/PROJECTS/Mol_Feturizer/New_Systems/rnas/1pbr

>  <Rbt.Executable>
rbdock ($Id: //depot/dev/client3/rdock/2013.1/src/exe/rbdock.cxx#4 $)

>  <Rbt.Library>
libRbt.so (2013.1, Build901 2013/11/27)

>  <Rbt.Parameter_File>
/export/apps/rDock/src/rDock_2013.1_src/data/scripts/dock_solv.prm

>  <Rbt.Receptor>
prm/pocket_docking_2.prm

>  <SCORE>
-28.7748

>  <SCORE.INTER>
-33.6696

>  <SCORE.INTER.CONST>
1

>  <SCORE.INTER.POLAR>
-4.26604

>  <SCORE.INTER.ROT>
9

>  <SCORE.INTER.SOLV>
29.7058

>  <SCORE.INTER.VDW>
-27.7282

>  <SCORE.INTER.norm>
-0.801658

>  <SCORE.INTRA>
1.67433

>  <SCORE.INTRA.DIHEDRAL>
13.7728

>  <SCORE.INTRA.DIHEDRAL.0>
29.7866

>  <SCORE.INTRA.POLAR>
-1.2025

>  <SCORE.INTRA.POLAR.0>
-0.984091

>  <SCORE.INTRA.REPUL>
-0.274115

>  <SCORE.INTRA.REPUL.0>
0.274115

>  <SCORE.INTRA.SOLV>
0.33044

>  <SCORE.INTRA.SOLV.lig_0>
-152.978

>  <SCORE.INTRA.VDW>
0.0817671

>  <SCORE.INTRA.VDW.0>
-6.10719

>  <SCORE.INTRA.norm>
0.039865

>  <SCORE.RESTR>
3.22045

>  <SCORE.RESTR.CAVITY>
3.22045

>  <SCORE.RESTR.norm>
0.0766773

>  <SCORE.SYSTEM>
0

>  <SCORE.SYSTEM.CONST>
0

>  <SCORE.SYSTEM.DIHEDRAL>
0

>  <SCORE.SYSTEM.SOLV>
0

>  <SCORE.SYSTEM.norm>
0

>  <SCORE.heavy>
42

>  <SCORE.norm>
-0.685115

>  <RMSD>
2.488

$$$$
1pbr
 OpenBabel11021811403D
libRbt.so/2013.1/901 2013/11/27
 42 45  0  0  0  0  0  0  0  0999 V2000
    2.0598   -0.3387   44.7349 C   0  0  2  0  0  0  0  0  0  0  0  0
    1.8155   -1.7444   44.9947 O   0  0  0  0  0  0  0  0  0  0  0  0
    3.3442    0.1562   45.4989 C   0  0  2  0  0  0  0  0  0  0  0  0
    4.4807   -0.8010   45.4780 N   0  3  0  0  0  0  0  0  0  0  0  0
    3.0470    0.4402   46.9834 C   0  0  1  0  0  0  0  0  0  0  0  0
    4.1346    1.1312   47.5940 O   0  0  0  0  0  0  0  0  0  0  0  0
    1.7630    1.2686   47.1404 C   0  0  2  0  0  0  0  0  0  0  0  0
    1.5284    1.5581   48.5150 O   0  0  0  0  0  0  0  0  0  0  0  0
    0.5662    0.5550   46.4733 C   0  0  2  0  0  0  0  0  0  0  0  0
    0.8773    0.4396   45.0686 O   0  0  0  0  0  0  0  0  0  0  0  0
   -0.7601    1.3023   46.6007 C   0  0  0  0  0  0  0  0  0  0  0  0
   -1.3178    1.1443   47.8986 O   0  0  0  0  0  0  0  0  0  0  0  0
   -0.6732   -4.9245   43.6159 C   0  0  1  0  0  0  0  0  0  0  0  0
   -1.7253   -5.7694   43.0215 N   0  3  0  0  0  0  0  0  0  0  0  0
    0.1644   -4.1767   42.5348 C   0  0  2  0  0  0  0  0  0  0  0  0
    0.7846   -5.1093   41.6527 O   0  0  0  0  0  0  0  0  0  0  0  0
    1.2757   -3.3022   43.1858 C   0  0  1  0  0  0  0  0  0  0  0  0
    1.9091   -2.5019   42.1439 O   0  0  0  0  0  0  0  0  0  0  0  0
    0.7064   -2.3567   44.2935 C   0  0  1  0  0  0  0  0  0  0  0  0
   -0.1761   -3.1102   45.3395 C   0  0  1  0  0  0  0  0  0  0  0  0
   -0.7806   -2.1764   46.3152 N   0  3  0  0  0  0  0  0  0  0  0  0
   -1.2927   -3.9198   44.6309 C   0  0  0  0  0  0  0  0  0  0  0  0
    3.3664   -2.3741   42.1043 C   0  0  1  0  0  0  0  0  0  0  0  0
    3.8227   -2.3846   40.6334 C   0  0  2  0  0  0  0  0  0  0  0  0
    5.1681   -2.8393   40.5178 O   0  0  0  0  0  0  0  0  0  0  0  0
    3.6870   -0.8851   40.3283 C   0  0  1  0  0  0  0  0  0  0  0  0
    4.2679   -0.2453   41.5784 C   0  0  2  0  0  0  0  0  0  0  0  0
    3.7693   -1.0875   42.6063 O   0  0  0  0  0  0  0  0  0  0  0  0
    3.8427    1.2078   41.8265 C   0  0  0  0  0  0  0  0  0  0  0  0
    4.9517    1.9691   42.2815 O   0  0  0  0  0  0  0  0  0  0  0  0
    4.5274   -2.0199   35.1278 C   0  0  1  0  0  0  0  0  0  0  0  0
    5.7664   -1.4024   34.7837 O   0  0  0  0  0  0  0  0  0  0  0  0
    4.7583   -3.0265   36.2893 C   0  0  2  0  0  0  0  0  0  0  0  0
    3.6278   -3.8912   36.3715 O   0  0  0  0  0  0  0  0  0  0  0  0
    5.0032   -2.3839   37.6939 C   0  0  1  0  0  0  0  0  0  0  0  0
    6.4317   -2.0350   37.8580 N   0  3  0  0  0  0  0  0  0  0  0  0
    4.0580   -1.1811   37.9520 C   0  0  1  0  0  0  0  0  0  0  0  0
    4.3837   -0.4187   39.1401 O   0  0  0  0  0  0  0  0  0  0  0  0
    3.4954   -0.9484   35.5610 C   0  0  1  0  0  0  0  0  0  0  0  0
    3.9977   -0.3147   36.7692 O   0  0  0  0  0  0  0  0  0  0  0  0
    3.1920    0.0998   34.4741 C   0  0  0  0  0  0  0  0  0  0  0  0
    2.0797    0.9973   34.8424 N   0  3  0  0  0  0  0  0  0  0  0  0
  1  2  1  1  0  0  0
  1  3  1  0  0  0  0
  1 10  1  0  0  0  0
  3  4  1  1  0  0  0
  3  5  1  0  0  0  0
  5  6  1  6  0  0  0
  5  7  1  0  0  0  0
  7  8  1  1  0  0  0
  7  9  1  0  0  0  0
  9 10  1  0  0  0  0
  9 11  1  6  0  0  0
 11 12  1  0  0  0  0
 13 14  1  6  0  0  0
 13 15  1  0  0  0  0
 13 22  1  0  0  0  0
 15 16  1  6  0  0  0
 15 17  1  0  0  0  0
 17 18  1  6  0  0  0
 17 19  1  0  0  0  0
 19  2  1  1  0  0  0
 19 20  1  0  0  0  0
 20 21  1  1  0  0  0
 20 22  1  0  0  0  0
 23 18  1  6  0  0  0
 23 24  1  0  0  0  0
 23 28  1  0  0  0  0
 24 25  1  1  0  0  0
 24 26  1  0  0  0  0
 26 27  1  0  0  0  0
 26 38  1  6  0  0  0
 27 28  1  0  0  0  0
 27 29  1  1  0  0  0
 29 30  1  0  0  0  0
 31 32  1  1  0  0  0
 31 33  1  0  0  0  0
 31 39  1  0  0  0  0
 33 34  1  1  0  0  0
 33 35  1  0  0  0  0
 35 36  1  6  0  0  0
 35 37  1  0  0  0  0
 37 38  1  1  0  0  0
 37 40  1  0  0  0  0
 39 40  1  0  0  0  0
 39 41  1  6  0  0  0
 41 42  1  0  0  0  0
M  CHG  5   4   1  14   1  21   1  36   1  42   1
M  END
>  <CHROM.1>
-176.54173717,107.43694548,-90.18441019,-57.18640580,-17.31535302,-77.23499112
-145.57604961,-90.08666333,-61.30695799,-135.85122465,142.06124278,-55.29304448
72.54233872,52.76764333,-139.02574819,-51.47033778,60.33801374,45.46242837
81.27136598,-91.28402326,172.31987989,73.72927966,2.53896298,-1.30867806
41.96959170,-2.07859291,-0.83543922,-2.05930945

>  <Name>
1pbr

>  <RI>
0

>  <Rbt.Current_Directory>
/home/itssahil/PROJECTS/Mol_Feturizer/New_Systems/rnas/1pbr

>  <Rbt.Executable>
rbdock ($Id: //depot/dev/client3/rdock/2013.1/src/exe/rbdock.cxx#4 $)

>  <Rbt.Library>
libRbt.so (2013.1, Build901 2013/11/27)

>  <Rbt.Parameter_File>
/export/apps/rDock/src/rDock_2013.1_src/data/scripts/dock_solv.prm

>  <Rbt.Receptor>
prm/pocket_docking_4.prm

>  <SCORE>
-42.1248

>  <SCORE.INTER>
-51.4415

>  <SCORE.INTER.CONST>
1

>  <SCORE.INTER.POLAR>
-6.4001

>  <SCORE.INTER.ROT>
9

>  <SCORE.INTER.SOLV>
36.2548

>  <SCORE.INTER.VDW>
-34.6456

>  <SCORE.INTER.norm>
-1.2248

>  <SCORE.INTRA>
9.0409

>  <SCORE.INTRA.DIHEDRAL>
15.3398

>  <SCORE.INTRA.DIHEDRAL.0>
29.7866

>  <SCORE.INTRA.POLAR>
0.00292845

>  <SCORE.INTRA.POLAR.0>
-0.984091

>  <SCORE.INTRA.REPUL>
-0.274115

>  <SCORE.INTRA.REPUL.0>
0.274115

>  <SCORE.INTRA.SOLV>
3.30029

>  <SCORE.INTRA.SOLV.lig_0>
-152.978

>  <SCORE.INTRA.VDW>
1.08146

>  <SCORE.INTRA.VDW.0>
-6.10719

>  <SCORE.INTRA.norm>
0.21526

>  <SCORE.RESTR>
0.275886

>  <SCORE.RESTR.CAVITY>
0.275886

>  <SCORE.RESTR.norm>
0.00656871

>  <SCORE.SYSTEM>
0

>  <SCORE.SYSTEM.CONST>
0

>  <SCORE.SYSTEM.DIHEDRAL>
0

>  <SCORE.SYSTEM.SOLV>
0

>  <SCORE.SYSTEM.norm>
0

>  <SCORE.heavy>
42

>  <SCORE.norm>
-1.00297

>  <RMSD>
2.506

$$$$
1pbr
 OpenBabel11021811403D
libRbt.so/2013.1/901 2013/11/27
 42 45  0  0  0  0  0  0  0  0999 V2000
    2.2627   -0.7522   44.3194 C   0  0  2  0  0  0  0  0  0  0  0  0
    2.1235   -2.1560   44.6561 O   0  0  0  0  0  0  0  0  0  0  0  0
    3.5309   -0.1329   45.0169 C   0  0  2  0  0  0  0  0  0  0  0  0
    4.7298   -1.0109   45.0074 N   0  3  0  0  0  0  0  0  0  0  0  0
    3.2568    0.2064   46.4942 C   0  0  1  0  0  0  0  0  0  0  0  0
    4.3108    1.0000   47.0351 O   0  0  0  0  0  0  0  0  0  0  0  0
    1.9235    0.9531   46.6507 C   0  0  2  0  0  0  0  0  0  0  0  0
    1.7083    1.2966   48.0159 O   0  0  0  0  0  0  0  0  0  0  0  0
    0.7606    0.1268   46.0579 C   0  0  2  0  0  0  0  0  0  0  0  0
    1.0392   -0.0395   44.6515 O   0  0  0  0  0  0  0  0  0  0  0  0
   -0.6102    0.7884   46.1901 C   0  0  0  0  0  0  0  0  0  0  0  0
   -1.0906    0.7155   47.5260 O   0  0  0  0  0  0  0  0  0  0  0  0
    0.4042   -5.7287   43.0790 C   0  0  1  0  0  0  0  0  0  0  0  0
   -0.3733   -6.7462   42.3481 N   0  3  0  0  0  0  0  0  0  0  0  0
    1.3964   -4.9646   42.1509 C   0  0  2  0  0  0  0  0  0  0  0  0
    2.3102   -5.8745   41.5429 O   0  0  0  0  0  0  0  0  0  0  0  0
    2.2139   -3.9058   42.9472 C   0  0  1  0  0  0  0  0  0  0  0  0
    2.9940   -3.1132   42.0036 O   0  0  0  0  0  0  0  0  0  0  0  0
    1.2924   -2.9591   43.7838 C   0  0  1  0  0  0  0  0  0  0  0  0
    0.2663   -3.7374   44.6681 C   0  0  1  0  0  0  0  0  0  0  0  0
   -0.6555   -2.8171   45.3702 N   0  3  0  0  0  0  0  0  0  0  0  0
   -0.5491   -4.7372   43.8079 C   0  0  0  0  0  0  0  0  0  0  0  0
    2.3243   -2.4185   40.9033 C   0  0  1  0  0  0  0  0  0  0  0  0
    3.3495   -1.5133   40.1950 C   0  0  2  0  0  0  0  0  0  0  0  0
    2.7050   -0.4229   39.5424 O   0  0  0  0  0  0  0  0  0  0  0  0
    3.9220   -2.5320   39.1978 C   0  0  1  0  0  0  0  0  0  0  0  0
    2.6726   -3.2457   38.7089 C   0  0  2  0  0  0  0  0  0  0  0  0
    1.9066   -3.3594   39.8985 O   0  0  0  0  0  0  0  0  0  0  0  0
    2.9099   -4.6307   38.0932 C   0  0  0  0  0  0  0  0  0  0  0  0
    1.7250   -5.4091   38.1731 O   0  0  0  0  0  0  0  0  0  0  0  0
    3.5849    1.3090   35.4803 C   0  0  1  0  0  0  0  0  0  0  0  0
    4.9271    1.7026   35.2001 O   0  0  0  0  0  0  0  0  0  0  0  0
    3.3432   -0.1250   34.9317 C   0  0  2  0  0  0  0  0  0  0  0  0
    1.9378   -0.3587   34.8772 O   0  0  0  0  0  0  0  0  0  0  0  0
    4.0133   -1.2771   35.7499 C   0  0  1  0  0  0  0  0  0  0  0  0
    5.4157   -1.4663   35.3180 N   0  3  0  0  0  0  0  0  0  0  0  0
    3.8812   -1.0524   37.2792 C   0  0  1  0  0  0  0  0  0  0  0  0
    4.6646   -1.9706   38.0806 O   0  0  0  0  0  0  0  0  0  0  0  0
    3.3249    1.3360   37.0075 C   0  0  1  0  0  0  0  0  0  0  0  0
    4.1901    0.3410   37.6203 O   0  0  0  0  0  0  0  0  0  0  0  0
    3.5344    2.7196   37.6508 C   0  0  0  0  0  0  0  0  0  0  0  0
    4.9231    3.2030   37.5237 N   0  3  0  0  0  0  0  0  0  0  0  0
  1  2  1  1  0  0  0
  1  3  1  0  0  0  0
  1 10  1  0  0  0  0
  3  4  1  1  0  0  0
  3  5  1  0  0  0  0
  5  6  1  6  0  0  0
  5  7  1  0  0  0  0
  7  8  1  1  0  0  0
  7  9  1  0  0  0  0
  9 10  1  0  0  0  0
  9 11  1  6  0  0  0
 11 12  1  0  0  0  0
 13 14  1  6  0  0  0
 13 15  1  0  0  0  0
 13 22  1  0  0  0  0
 15 16  1  1  0  0  0
 15 17  1  0  0  0  0
 17 18  1  6  0  0  0
 17 19  1  0  0  0  0
 19  2  1  1  0  0  0
 19 20  1  0  0  0  0
 20 21  1  6  0  0  0
 20 22  1  0  0  0  0
 23 18  1  1  0  0  0
 23 24  1  0  0  0  0
 23 28  1  0  0  0  0
 24 25  1  6  0  0  0
 24 26  1  0  0  0  0
 26 27  1  0  0  0  0
 26 38  1  6  0  0  0
 27 28  1  0  0  0  0
 27 29  1  1  0  0  0
 29 30  1  0  0  0  0
 31 32  1  1  0  0  0
 31 33  1  0  0  0  0
 31 39  1  0  0  0  0
 33 34  1  1  0  0  0
 33 35  1  0  0  0  0
 35 36  1  1  0  0  0
 35 37  1  0  0  0  0
 37 38  1  1  0  0  0
 37 40  1  0  0  0  0
 39 40  1  0  0  0  0
 39 41  1  1  0  0  0
 41 42  1  0  0  0  0
M  CHG  5   4   1  14   1  21   1  36   1  42   1
M  END
>  <CHROM.1>
-160.68813698,107.96284146,-79.89141756,-155.50173020,-60.96407875,-74.47202921
-160.99459263,62.99389517,67.53787921,55.77675482,172.17803033,164.37210881
-55.48838601,-58.48374441,156.48282251,56.50033744,47.60863187,-61.75113731
-146.05125368,-134.13195756,-62.21161789,38.80581135,2.44742682,-1.48263745
41.30242630,-2.34523075,-1.17507533,-2.22055333

>  <Name>
1pbr

>  <RI>
0

>  <Rbt.Current_Directory>
/home/itssahil/PROJECTS/Mol_Feturizer/New_Systems/rnas/1pbr

>  <Rbt.Executable>
rbdock ($Id: //depot/dev/client3/rdock/2013.1/src/exe/rbdock.cxx#4 $)

>  <Rbt.Library>
libRbt.so (2013.1, Build901 2013/11/27)

>  <Rbt.Parameter_File>
/export/apps/rDock/src/rDock_2013.1_src/data/scripts/dock_solv.prm

>  <Rbt.Receptor>
prm/pocket_docking_6.prm

>  <SCORE>
-49.4687

>  <SCORE.INTER>
-51.4046

>  <SCORE.INTER.CONST>
1

>  <SCORE.INTER.POLAR>
-6.00163

>  <SCORE.INTER.ROT>
9

>  <SCORE.INTER.SOLV>
32.9647

>  <SCORE.INTER.VDW>
-34.8526

>  <SCORE.INTER.norm>
-1.22392

>  <SCORE.INTRA>
1.93592

>  <SCORE.INTRA.DIHEDRAL>
-1.64431

>  <SCORE.INTRA.DIHEDRAL.0>
29.7866

>  <SCORE.INTRA.POLAR>
0.0960996

>  <SCORE.INTRA.POLAR.0>
-0.984091

>  <SCORE.INTRA.REPUL>
-0.274115

>  <SCORE.INTRA.REPUL.0>
0.274115

>  <SCORE.INTRA.SOLV>
3.02616

>  <SCORE.INTRA.SOLV.lig_0>
-152.978

>  <SCORE.INTRA.VDW>
2.28883

>  <SCORE.INTRA.VDW.0>
-6.10719

>  <SCORE.INTRA.norm>
0.0460934

>  <SCORE.RESTR>
0

>  <SCORE.RESTR.CAVITY>
0

>  <SCORE.RESTR.norm>
0

>  <SCORE.SYSTEM>
0

>  <SCORE.SYSTEM.CONST>
0

>  <SCORE.SYSTEM.DIHEDRAL>
0

>  <SCORE.SYSTEM.SOLV>
0

>  <SCORE.SYSTEM.norm>
0

>  <SCORE.heavy>
42

>  <SCORE.norm>
-1.17783

>  <RMSD>
2.538

$$$$
1pbr
 OpenBabel11021811403D
libRbt.so/2013.1/901 2013/11/27
 42 45  0  0  0  0  0  0  0  0999 V2000
    2.1280   -1.0046   44.9328 C   0  0  2  0  0  0  0  0  0  0  0  0
    1.4990   -2.2877   45.1803 O   0  0  0  0  0  0  0  0  0  0  0  0
    3.1209   -0.6347   46.0970 C   0  0  2  0  0  0  0  0  0  0  0  0
    3.9426   -1.7703   46.5903 N   0  3  0  0  0  0  0  0  0  0  0  0
    2.3741   -0.0780   47.3239 C   0  0  1  0  0  0  0  0  0  0  0  0
    3.2888    0.4941   48.2564 O   0  0  0  0  0  0  0  0  0  0  0  0
    1.3407    0.9796   46.9078 C   0  0  2  0  0  0  0  0  0  0  0  0
    0.6919    1.5137   48.0576 O   0  0  0  0  0  0  0  0  0  0  0  0
    0.3430    0.3963   45.8828 C   0  0  2  0  0  0  0  0  0  0  0  0
    1.1108    0.0133   44.7221 O   0  0  0  0  0  0  0  0  0  0  0  0
   -0.7360    1.3782   45.4290 C   0  0  0  0  0  0  0  0  0  0  0  0
   -1.9949    0.7325   45.2911 O   0  0  0  0  0  0  0  0  0  0  0  0
   -0.1692   -5.1340   42.4741 C   0  0  1  0  0  0  0  0  0  0  0  0
   -0.9748   -5.8728   41.4846 N   0  3  0  0  0  0  0  0  0  0  0  0
    0.5865   -3.9281   41.8382 C   0  0  2  0  0  0  0  0  0  0  0  0
    1.4543   -4.3763   40.7996 O   0  0  0  0  0  0  0  0  0  0  0  0
    1.4391   -3.1723   42.8990 C   0  0  1  0  0  0  0  0  0  0  0  0
    1.9816   -1.9649   42.2868 O   0  0  0  0  0  0  0  0  0  0  0  0
    0.5995   -2.7836   44.1596 C   0  0  1  0  0  0  0  0  0  0  0  0
   -0.1958   -3.9896   44.7543 C   0  0  1  0  0  0  0  0  0  0  0  0
   -1.0564   -3.5709   45.8829 N   0  3  0  0  0  0  0  0  0  0  0  0
   -1.0620   -4.6661   43.6604 C   0  0  0  0  0  0  0  0  0  0  0  0
    3.4254   -1.7261   42.2951 C   0  0  1  0  0  0  0  0  0  0  0  0
    3.9721   -1.9593   40.8742 C   0  0  2  0  0  0  0  0  0  0  0  0
    5.3516   -2.3145   40.9083 O   0  0  0  0  0  0  0  0  0  0  0  0
    3.7471   -0.5541   40.2957 C   0  0  1  0  0  0  0  0  0  0  0  0
    4.2008    0.3430   41.4355 C   0  0  2  0  0  0  0  0  0  0  0  0
    3.7016   -0.3421   42.5740 O   0  0  0  0  0  0  0  0  0  0  0  0
    3.6565    1.7768   41.3948 C   0  0  0  0  0  0  0  0  0  0  0  0
    2.2374    1.7609   41.4415 O   0  0  0  0  0  0  0  0  0  0  0  0
    4.5188   -2.1759   35.2085 C   0  0  1  0  0  0  0  0  0  0  0  0
    5.7253   -1.5575   34.7650 O   0  0  0  0  0  0  0  0  0  0  0  0
    4.8229   -3.0757   36.4387 C   0  0  2  0  0  0  0  0  0  0  0  0
    3.7221   -3.9597   36.6373 O   0  0  0  0  0  0  0  0  0  0  0  0
    5.1021   -2.3120   37.7746 C   0  0  1  0  0  0  0  0  0  0  0  0
    6.5250   -1.9137   37.8517 N   0  3  0  0  0  0  0  0  0  0  0  0
    4.1327   -1.1168   37.9705 C   0  0  1  0  0  0  0  0  0  0  0  0
    4.4808   -0.2497   39.0777 O   0  0  0  0  0  0  0  0  0  0  0  0
    3.4731   -1.0992   35.5931 C   0  0  1  0  0  0  0  0  0  0  0  0
    4.0022   -0.3540   36.7238 O   0  0  0  0  0  0  0  0  0  0  0  0
    3.0983   -0.1536   34.4366 C   0  0  0  0  0  0  0  0  0  0  0  0
    1.9667    0.7336   34.7697 N   0  3  0  0  0  0  0  0  0  0  0  0
  1  2  1  1  0  0  0
  1  3  1  0  0  0  0
  1 10  1  0  0  0  0
  3  4  1  1  0  0  0
  3  5  1  0  0  0  0
  5  6  1  1  0  0  0
  5  7  1  0  0  0  0
  7  8  1  1  0  0  0
  7  9  1  0  0  0  0
  9 10  1  0  0  0  0
  9 11  1  6  0  0  0
 11 12  1  0  0  0  0
 13 14  1  6  0  0  0
 13 15  1  0  0  0  0
 13 22  1  0  0  0  0
 15 16  1  6  0  0  0
 15 17  1  0  0  0  0
 17 18  1  6  0  0  0
 17 19  1  0  0  0  0
 19  2  1  1  0  0  0
 19 20  1  0  0  0  0
 20 21  1  1  0  0  0
 20 22  1  0  0  0  0
 23 18  1  6  0  0  0
 23 24  1  0  0  0  0
 23 28  1  0  0  0  0
 24 25  1  1  0  0  0
 24 26  1  0  0  0  0
 26 27  1  0  0  0  0
 26 38  1  6  0  0  0
 27 28  1  0  0  0  0
 27 29  1  6  0  0  0
 29 30  1  0  0  0  0
 31 32  1  1  0  0  0
 31 33  1  0  0  0  0
 31 39  1  0  0  0  0
 33 34  1  1  0  0  0
 33 35  1  0  0  0  0
 35 36  1  6  0  0  0
 35 37  1  0  0  0  0
 37 38  1  1  0  0  0
 37 40  1  0  0  0  0
 39 40  1  0  0  0  0
 39 41  1  6  0  0  0
 41 42  1  0  0  0  0
M  CHG  5   4   1  14   1  21   1  36   1  42   1
M  END
>  <CHROM.1>
-177.46682843,69.55774459,56.18240711,-174.49751053,174.66335544,-140.84838635
160.13931424,-14.67785167,176.35280085,-124.40481624,106.56275594,-155.45548960
72.17252559,61.53584688,59.87829581,66.12967103,63.77467567,111.67508419
82.06595667,-96.80315792,171.78117209,-56.33241364,2.41640151,-1.41599353
41.74684024,-2.15022315,-0.92484599,-2.12340427

>  <Name>
1pbr

>  <RI>
0

>  <Rbt.Current_Directory>
/home/itssahil/PROJECTS/Mol_Feturizer/New_Systems/rnas/1pbr

>  <Rbt.Executable>
rbdock ($Id: //depot/dev/client3/rdock/2013.1/src/exe/rbdock.cxx#4 $)

>  <Rbt.Library>
libRbt.so (2013.1, Build901 2013/11/27)

>  <Rbt.Parameter_File>
/export/apps/rDock/src/rDock_2013.1_src/data/scripts/dock_solv.prm

>  <Rbt.Receptor>
prm/pocket_docking_3.prm

>  <SCORE>
-40.9838

>  <SCORE.INTER>
-48.5788

>  <SCORE.INTER.CONST>
1

>  <SCORE.INTER.POLAR>
-6.89766

>  <SCORE.INTER.ROT>
9

>  <SCORE.INTER.SOLV>
36.9422

>  <SCORE.INTER.VDW>
-31.3077

>  <SCORE.INTER.norm>
-1.15664

>  <SCORE.INTRA>
4.56273

>  <SCORE.INTRA.DIHEDRAL>
8.70749

>  <SCORE.INTRA.DIHEDRAL.0>
29.7866

>  <SCORE.INTRA.POLAR>
0.967749

>  <SCORE.INTRA.POLAR.0>
-0.984091

>  <SCORE.INTRA.REPUL>
-0.274115

>  <SCORE.INTRA.REPUL.0>
0.274115

>  <SCORE.INTRA.SOLV>
-4.10748

>  <SCORE.INTRA.SOLV.lig_0>
-152.978

>  <SCORE.INTRA.VDW>
0.342953

>  <SCORE.INTRA.VDW.0>
-6.10719

>  <SCORE.INTRA.norm>
0.108636

>  <SCORE.RESTR>
3.03232

>  <SCORE.RESTR.CAVITY>
3.03232

>  <SCORE.RESTR.norm>
0.072198

>  <SCORE.SYSTEM>
0

>  <SCORE.SYSTEM.CONST>
0

>  <SCORE.SYSTEM.DIHEDRAL>
0

>  <SCORE.SYSTEM.SOLV>
0

>  <SCORE.SYSTEM.norm>
0

>  <SCORE.heavy>
42

>  <SCORE.norm>
-0.975804

>  <RMSD>
2.544

$$$$
1pbr
 OpenBabel11021811403D
libRbt.so/2013.1/901 2013/11/27
 42 45  0  0  0  0  0  0  0  0999 V2000
    0.9056   -0.8641   44.2603 C   0  0  2  0  0  0  0  0  0  0  0  0
    1.1588   -2.2763   44.4723 O   0  0  0  0  0  0  0  0  0  0  0  0
    2.1038   -0.1900   43.4934 C   0  0  2  0  0  0  0  0  0  0  0  0
    2.6651   -1.0077   42.3868 N   0  3  0  0  0  0  0  0  0  0  0  0
    3.2793    0.1208   44.4389 C   0  0  1  0  0  0  0  0  0  0  0  0
    4.2369    0.9599   43.7969 O   0  0  0  0  0  0  0  0  0  0  0  0
    2.7875    0.7994   45.7263 C   0  0  2  0  0  0  0  0  0  0  0  0
    3.8912    1.1184   46.5679 O   0  0  0  0  0  0  0  0  0  0  0  0
    1.7339   -0.0773   46.4389 C   0  0  2  0  0  0  0  0  0  0  0  0
    0.6207   -0.2158   45.5307 O   0  0  0  0  0  0  0  0  0  0  0  0
    1.2043    0.5147   47.7440 C   0  0  0  0  0  0  0  0  0  0  0  0
    0.5397    1.7505   47.5167 O   0  0  0  0  0  0  0  0  0  0  0  0
   -0.8460   -6.0277   44.1330 C   0  0  1  0  0  0  0  0  0  0  0  0
   -1.7792   -7.1374   43.8652 N   0  3  0  0  0  0  0  0  0  0  0  0
   -0.2272   -5.4479   42.8252 C   0  0  2  0  0  0  0  0  0  0  0  0
    0.4776   -6.4637   42.1152 O   0  0  0  0  0  0  0  0  0  0  0  0
    0.7632   -4.2874   43.1346 C   0  0  1  0  0  0  0  0  0  0  0  0
    1.1752   -3.6780   41.8753 O   0  0  0  0  0  0  0  0  0  0  0  0
    0.1224   -3.1971   44.0544 C   0  0  1  0  0  0  0  0  0  0  0  0
   -0.5420   -3.7975   45.3345 C   0  0  1  0  0  0  0  0  0  0  0  0
   -1.2248   -2.7556   46.1331 N   0  3  0  0  0  0  0  0  0  0  0  0
   -1.5528   -4.9105   44.9551 C   0  0  0  0  0  0  0  0  0  0  0  0
    1.8804   -4.4772   40.8724 C   0  0  1  0  0  0  0  0  0  0  0  0
    2.2282   -3.5720   39.6758 C   0  0  2  0  0  0  0  0  0  0  0  0
    2.3684   -4.3347   38.4805 O   0  0  0  0  0  0  0  0  0  0  0  0
    3.5720   -3.0192   40.1744 C   0  0  1  0  0  0  0  0  0  0  0  0
    4.2380   -4.2568   40.7527 C   0  0  2  0  0  0  0  0  0  0  0  0
    3.1511   -4.9150   41.3853 O   0  0  0  0  0  0  0  0  0  0  0  0
    5.3580   -3.9835   41.7649 C   0  0  0  0  0  0  0  0  0  0  0  0
    4.8683   -3.1801   42.8284 O   0  0  0  0  0  0  0  0  0  0  0  0
    3.4713    1.6515   38.0109 C   0  0  1  0  0  0  0  0  0  0  0  0
    4.5407    2.2482   38.7425 O   0  0  0  0  0  0  0  0  0  0  0  0
    4.0554    0.7306   36.9035 C   0  0  2  0  0  0  0  0  0  0  0  0
    3.0242    0.4437   35.9617 O   0  0  0  0  0  0  0  0  0  0  0  0
    4.6663   -0.6181   37.4070 C   0  0  1  0  0  0  0  0  0  0  0  0
    6.0701   -0.4207   37.8304 N   0  3  0  0  0  0  0  0  0  0  0  0
    3.7929   -1.2721   38.5099 C   0  0  1  0  0  0  0  0  0  0  0  0
    4.4159   -2.4066   39.1609 O   0  0  0  0  0  0  0  0  0  0  0  0
    2.5688    0.8225   38.9590 C   0  0  1  0  0  0  0  0  0  0  0  0
    3.3711   -0.2666   39.4919 O   0  0  0  0  0  0  0  0  0  0  0  0
    1.9350    1.6472   40.0949 C   0  0  0  0  0  0  0  0  0  0  0  0
    0.8212    2.4967   39.6298 N   0  3  0  0  0  0  0  0  0  0  0  0
  1  2  1  1  0  0  0
  1  3  1  0  0  0  0
  1 10  1  0  0  0  0
  3  4  1  6  0  0  0
  3  5  1  0  0  0  0
  5  6  1  6  0  0  0
  5  7  1  0  0  0  0
  7  8  1  1  0  0  0
  7  9  1  0  0  0  0
  9 10  1  0  0  0  0
  9 11  1  1  0  0  0
 11 12  1  0  0  0  0
 13 14  1  6  0  0  0
 13 15  1  0  0  0  0
 13 22  1  0  0  0  0
 15 16  1  1  0  0  0
 15 17  1  0  0  0  0
 17 18  1  6  0  0  0
 17 19  1  0  0  0  0
 19  2  1  1  0  0  0
 19 20  1  0  0  0  0
 20 21  1  6  0  0  0
 20 22  1  0  0  0  0
 23 18  1  1  0  0  0
 23 24  1  0  0  0  0
 23 28  1  0  0  0  0
 24 25  1  6  0  0  0
 24 26  1  0  0  0  0
 26 27  1  0  0  0  0
 26 38  1  6  0  0  0
 27 28  1  0  0  0  0
 27 29  1  1  0  0  0
 29 30  1  0  0  0  0
 31 32  1  1  0  0  0
 31 33  1  0  0  0  0
 31 39  1  0  0  0  0
 33 34  1  6  0  0  0
 33 35  1  0  0  0  0
 35 36  1  1  0  0  0
 35 37  1  0  0  0  0
 37 38  1  1  0  0  0
 37 40  1  0  0  0  0
 39 40  1  0  0  0  0
 39 41  1  1  0  0  0
 41 42  1  0  0  0  0
M  CHG  5   4   1  14   1  21   1  36   1  42   1
M  END
>  <CHROM.1>
-128.22049127,127.96279696,-97.60663175,-68.42630319,64.92099297,62.15168083
53.05869574,-48.75215467,66.54780781,-61.12233310,-178.20595665,-159.72396984
174.62133480,60.29657383,56.17817169,-174.54543877,62.64404274,-63.27954136
-77.82632637,-178.98357664,75.06325720,24.56969649,2.20130767,-1.72828138
42.07672831,-2.83664464,-1.08733574,-2.41244421

>  <Name>
1pbr

>  <RI>
0

>  <Rbt.Current_Directory>
/home/itssahil/PROJECTS/Mol_Feturizer/New_Systems/rnas/1pbr

>  <Rbt.Executable>
rbdock ($Id: //depot/dev/client3/rdock/2013.1/src/exe/rbdock.cxx#4 $)

>  <Rbt.Library>
libRbt.so (2013.1, Build901 2013/11/27)

>  <Rbt.Parameter_File>
/export/apps/rDock/src/rDock_2013.1_src/data/scripts/dock_solv.prm

>  <Rbt.Receptor>
prm/pocket_docking_4.prm

>  <SCORE>
-41.7892

>  <SCORE.INTER>
-28.4086

>  <SCORE.INTER.CONST>
1

>  <SCORE.INTER.POLAR>
-3.06462

>  <SCORE.INTER.ROT>
9

>  <SCORE.INTER.SOLV>
25.365

>  <SCORE.INTER.VDW>
-26.7787

>  <SCORE.INTER.norm>
-0.676395

>  <SCORE.INTRA>
-13.3806

>  <SCORE.INTRA.DIHEDRAL>
-6.33538

>  <SCORE.INTRA.DIHEDRAL.0>
29.7866

>  <SCORE.INTRA.POLAR>
-3.39001

>  <SCORE.INTRA.POLAR.0>
-0.984091

>  <SCORE.INTRA.REPUL>
-0.162846

>  <SCORE.INTRA.REPUL.0>
0.274115

>  <SCORE.INTRA.SOLV>
7.19063

>  <SCORE.INTRA.SOLV.lig_0>
-152.978

>  <SCORE.INTRA.VDW>
-1.46798

>  <SCORE.INTRA.VDW.0>
-6.10719

>  <SCORE.INTRA.norm>
-0.318587

>  <SCORE.RESTR>
0

>  <SCORE.RESTR.CAVITY>
0

>  <SCORE.RESTR.norm>
0

>  <SCORE.SYSTEM>
0

>  <SCORE.SYSTEM.CONST>
0

>  <SCORE.SYSTEM.DIHEDRAL>
0

>  <SCORE.SYSTEM.SOLV>
0

>  <SCORE.SYSTEM.norm>
0

>  <SCORE.heavy>
42

>  <SCORE.norm>
-0.994982

>  <RMSD>
2.561

$$$$
1pbr
 OpenBabel11021811403D
libRbt.so/2013.1/901 2013/11/27
 42 45  0  0  0  0  0  0  0  0999 V2000
    1.7700   -1.1280   44.8300 C   0  0  2  0  0  0  0  0  0  0  0  0
    1.2257   -2.3827   45.3123 O   0  0  0  0  0  0  0  0  0  0  0  0
    3.2376   -0.9152   45.3583 C   0  0  2  0  0  0  0  0  0  0  0  0
    4.0834   -2.1369   45.3372 N   0  3  0  0  0  0  0  0  0  0  0  0
    3.2489   -0.4081   46.8127 C   0  0  1  0  0  0  0  0  0  0  0  0
    4.5538    0.0290   47.1861 O   0  0  0  0  0  0  0  0  0  0  0  0
    2.2506    0.7438   47.0033 C   0  0  2  0  0  0  0  0  0  0  0  0
    2.3065    1.2280   48.3415 O   0  0  0  0  0  0  0  0  0  0  0  0
    0.8271    0.3082   46.5906 C   0  0  2  0  0  0  0  0  0  0  0  0
    0.8831   -0.0326   45.1892 O   0  0  0  0  0  0  0  0  0  0  0  0
   -0.2364    1.3906   46.7685 C   0  0  0  0  0  0  0  0  0  0  0  0
   -1.3416    0.9080   47.5209 O   0  0  0  0  0  0  0  0  0  0  0  0
   -0.0903   -6.0122   43.4950 C   0  0  1  0  0  0  0  0  0  0  0  0
   -0.7242   -7.0564   42.6693 N   0  3  0  0  0  0  0  0  0  0  0  0
    0.9315   -5.1582   42.6849 C   0  0  2  0  0  0  0  0  0  0  0  0
    1.9584   -5.9884   42.1474 O   0  0  0  0  0  0  0  0  0  0  0  0
    1.5961   -4.0721   43.5806 C   0  0  1  0  0  0  0  0  0  0  0  0
    2.4068   -3.2031   42.7352 O   0  0  0  0  0  0  0  0  0  0  0  0
    0.5375   -3.2124   44.3456 C   0  0  1  0  0  0  0  0  0  0  0  0
   -0.5130   -4.0815   45.1086 C   0  0  1  0  0  0  0  0  0  0  0  0
   -1.5574   -3.2442   45.7391 N   0  3  0  0  0  0  0  0  0  0  0  0
   -1.1735   -5.1067   44.1509 C   0  0  0  0  0  0  0  0  0  0  0  0
    3.6849   -3.6820   42.2070 C   0  0  1  0  0  0  0  0  0  0  0  0
    3.8082   -3.2389   40.7371 C   0  0  2  0  0  0  0  0  0  0  0  0
    4.6759   -4.1058   40.0121 O   0  0  0  0  0  0  0  0  0  0  0  0
    4.4239   -1.8486   40.9553 C   0  0  1  0  0  0  0  0  0  0  0  0
    5.4577   -2.1170   42.0364 C   0  0  2  0  0  0  0  0  0  0  0  0
    4.7785   -3.0340   42.8805 O   0  0  0  0  0  0  0  0  0  0  0  0
    5.9024   -0.8853   42.8356 C   0  0  0  0  0  0  0  0  0  0  0  0
    4.7693   -0.1288   43.2356 O   0  0  0  0  0  0  0  0  0  0  0  0
    4.4036   -1.8849   35.5612 C   0  0  1  0  0  0  0  0  0  0  0  0
    5.6293   -1.2828   35.1489 O   0  0  0  0  0  0  0  0  0  0  0  0
    4.7109   -3.1442   36.4187 C   0  0  2  0  0  0  0  0  0  0  0  0
    3.5266   -3.9330   36.5069 O   0  0  0  0  0  0  0  0  0  0  0  0
    5.2339   -2.8587   37.8647 C   0  0  1  0  0  0  0  0  0  0  0  0
    6.6980   -2.6461   37.8495 N   0  3  0  0  0  0  0  0  0  0  0  0
    4.4647   -1.6915   38.5375 C   0  0  1  0  0  0  0  0  0  0  0  0
    5.0454   -1.2447   39.7874 O   0  0  0  0  0  0  0  0  0  0  0  0
    3.5633   -0.8802   36.3888 C   0  0  1  0  0  0  0  0  0  0  0  0
    4.3078   -0.5740   37.5995 O   0  0  0  0  0  0  0  0  0  0  0  0
    3.2005    0.4068   35.6246 C   0  0  0  0  0  0  0  0  0  0  0  0
    2.3169    0.1541   34.4696 N   0  3  0  0  0  0  0  0  0  0  0  0
  1  2  1  1  0  0  0
  1  3  1  0  0  0  0
  1 10  1  0  0  0  0
  3  4  1  1  0  0  0
  3  5  1  0  0  0  0
  5  6  1  6  0  0  0
  5  7  1  0  0  0  0
  7  8  1  1  0  0  0
  7  9  1  0  0  0  0
  9 10  1  0  0  0  0
  9 11  1  6  0  0  0
 11 12  1  0  0  0  0
 13 14  1  6  0  0  0
 13 15  1  0  0  0  0
 13 22  1  0  0  0  0
 15 16  1  1  0  0  0
 15 17  1  0  0  0  0
 17 18  1  6  0  0  0
 17 19  1  0  0  0  0
 19  2  1  1  0  0  0
 19 20  1  0  0  0  0
 20 21  1  6  0  0  0
 20 22  1  0  0  0  0
 23 18  1  1  0  0  0
 23 24  1  0  0  0  0
 23 28  1  0  0  0  0
 24 25  1  6  0  0  0
 24 26  1  0  0  0  0
 26 27  1  0  0  0  0
 26 38  1  6  0  0  0
 27 28  1  0  0  0  0
 27 29  1  1  0  0  0
 29 30  1  0  0  0  0
 31 32  1  1  0  0  0
 31 33  1  0  0  0  0
 31 39  1  0  0  0  0
 33 34  1  1  0  0  0
 33 35  1  0  0  0  0
 35 36  1  6  0  0  0
 35 37  1  0  0  0  0
 37 38  1  1  0  0  0
 37 40  1  0  0  0  0
 39 40  1  0  0  0  0
 39 41  1  6  0  0  0
 41 42  1  0  0  0  0
M  CHG  5   4   1  14   1  21   1  36   1  42   1
M  END
>  <CHROM.1>
-134.46212153,84.17243406,178.83584193,-170.39589367,-48.42298238,-127.89577565
178.60454548,-45.14802607,-40.60086460,-74.25403340,137.92316864,111.58725299
58.99575548,27.84460251,46.70541275,177.92411857,174.57314536,154.36437370
-45.12288579,-95.97807407,64.69675034,-76.43257252,2.78799935,-2.09092135
42.12960090,-2.15475660,-0.90289660,-2.11860345

>  <Name>
1pbr

>  <RI>
0

>  <Rbt.Current_Directory>
/home/itssahil/PROJECTS/Mol_Feturizer/New_Systems/rnas/1pbr

>  <Rbt.Executable>
rbdock ($Id: //depot/dev/client3/rdock/2013.1/src/exe/rbdock.cxx#4 $)

>  <Rbt.Library>
libRbt.so (2013.1, Build901 2013/11/27)

>  <Rbt.Parameter_File>
/export/apps/rDock/src/rDock_2013.1_src/data/scripts/dock_solv.prm

>  <Rbt.Receptor>
prm/pocket_docking_8.prm

>  <SCORE>
-43.755

>  <SCORE.INTER>
-52.712

>  <SCORE.INTER.CONST>
1

>  <SCORE.INTER.POLAR>
-7.05004

>  <SCORE.INTER.ROT>
9

>  <SCORE.INTER.SOLV>
31.9176

>  <SCORE.INTER.VDW>
-31.8804

>  <SCORE.INTER.norm>
-1.25505

>  <SCORE.INTRA>
8.957

>  <SCORE.INTRA.DIHEDRAL>
11.1012

>  <SCORE.INTRA.DIHEDRAL.0>
29.7866

>  <SCORE.INTRA.POLAR>
-0.190658

>  <SCORE.INTRA.POLAR.0>
-0.984091

>  <SCORE.INTRA.REPUL>
-0.272888

>  <SCORE.INTRA.REPUL.0>
0.274115

>  <SCORE.INTRA.SOLV>
5.62747

>  <SCORE.INTRA.SOLV.lig_0>
-152.978

>  <SCORE.INTRA.VDW>
2.60533

>  <SCORE.INTRA.VDW.0>
-6.10719

>  <SCORE.INTRA.norm>
0.213262

>  <SCORE.RESTR>
0

>  <SCORE.RESTR.CAVITY>
0

>  <SCORE.RESTR.norm>
0

>  <SCORE.SYSTEM>
0

>  <SCORE.SYSTEM.CONST>
0

>  <SCORE.SYSTEM.DIHEDRAL>
0

>  <SCORE.SYSTEM.SOLV>
0

>  <SCORE.SYSTEM.norm>
0

>  <SCORE.heavy>
42

>  <SCORE.norm>
-1.04179

>  <RMSD>
2.668

$$$$
1pbr
 OpenBabel11021811403D
libRbt.so/2013.1/901 2013/11/27
 42 45  0  0  0  0  0  0  0  0999 V2000
    1.3248   -1.7592   45.0090 C   0  0  2  0  0  0  0  0  0  0  0  0
    1.0575   -1.2483   43.6783 O   0  0  0  0  0  0  0  0  0  0  0  0
    1.0355   -0.6604   46.0985 C   0  0  2  0  0  0  0  0  0  0  0  0
   -0.1918    0.1413   45.8545 N   0  3  0  0  0  0  0  0  0  0  0  0
    2.1944    0.3483   46.2086 C   0  0  1  0  0  0  0  0  0  0  0  0
    2.0429    1.1691   47.3647 O   0  0  0  0  0  0  0  0  0  0  0  0
    3.5496   -0.3726   46.2683 C   0  0  2  0  0  0  0  0  0  0  0  0
    4.6047    0.5728   46.4137 O   0  0  0  0  0  0  0  0  0  0  0  0
    3.7386   -1.2855   45.0364 C   0  0  2  0  0  0  0  0  0  0  0  0
    2.6845   -2.2706   45.0794 O   0  0  0  0  0  0  0  0  0  0  0  0
    5.0737   -2.0274   45.0045 C   0  0  0  0  0  0  0  0  0  0  0  0
    5.1056   -2.9855   43.9549 O   0  0  0  0  0  0  0  0  0  0  0  0
    0.2331   -5.0971   42.0306 C   0  0  1  0  0  0  0  0  0  0  0  0
   -0.2003   -6.2463   41.2149 N   0  3  0  0  0  0  0  0  0  0  0  0
    1.3507   -4.2651   41.3318 C   0  0  2  0  0  0  0  0  0  0  0  0
    2.4891   -5.0823   41.0696 O   0  0  0  0  0  0  0  0  0  0  0  0
    1.8000   -3.0660   42.2172 C   0  0  1  0  0  0  0  0  0  0  0  0
    2.7160   -2.2341   41.4451 O   0  0  0  0  0  0  0  0  0  0  0  0
    0.5880   -2.2004   42.6936 C   0  0  1  0  0  0  0  0  0  0  0  0
   -0.5487   -3.0532   43.3426 C   0  0  1  0  0  0  0  0  0  0  0  0
   -1.7215   -2.2214   43.6921 N   0  3  0  0  0  0  0  0  0  0  0  0
   -0.9850   -4.1972   42.3912 C   0  0  0  0  0  0  0  0  0  0  0  0
    2.4670   -1.9984   40.0224 C   0  0  1  0  0  0  0  0  0  0  0  0
    2.4161   -0.4789   39.7757 C   0  0  2  0  0  0  0  0  0  0  0  0
    1.6377   -0.1733   38.6221 O   0  0  0  0  0  0  0  0  0  0  0  0
    3.9138   -0.2207   39.5523 C   0  0  1  0  0  0  0  0  0  0  0  0
    4.3172   -1.3906   38.6702 C   0  0  2  0  0  0  0  0  0  0  0  0
    3.5791   -2.4625   39.2366 O   0  0  0  0  0  0  0  0  0  0  0  0
    5.8158   -1.7190   38.6654 C   0  0  0  0  0  0  0  0  0  0  0  0
    6.5502   -0.6363   38.1133 O   0  0  0  0  0  0  0  0  0  0  0  0
    1.7672    3.3275   36.2098 C   0  0  1  0  0  0  0  0  0  0  0  0
    2.1369    4.6010   36.7355 O   0  0  0  0  0  0  0  0  0  0  0  0
    3.0190    2.6400   35.5966 C   0  0  2  0  0  0  0  0  0  0  0  0
    2.5848    1.5698   34.7608 O   0  0  0  0  0  0  0  0  0  0  0  0
    4.0518    2.0836   36.6307 C   0  0  1  0  0  0  0  0  0  0  0  0
    4.9821    3.1529   37.0550 N   0  3  0  0  0  0  0  0  0  0  0  0
    3.3528    1.3862   37.8274 C   0  0  1  0  0  0  0  0  0  0  0  0
    4.2466    1.0433   38.9149 O   0  0  0  0  0  0  0  0  0  0  0  0
    1.1758    2.4352   37.3298 C   0  0  1  0  0  0  0  0  0  0  0  0
    2.2269    2.1967   38.3056 O   0  0  0  0  0  0  0  0  0  0  0  0
   -0.0765    3.0278   38.0026 C   0  0  0  0  0  0  0  0  0  0  0  0
   -1.3325    2.5305   37.4077 N   0  3  0  0  0  0  0  0  0  0  0  0
  1  2  1  6  0  0  0
  1  3  1  0  0  0  0
  1 10  1  0  0  0  0
  3  4  1  6  0  0  0
  3  5  1  0  0  0  0
  5  6  1  1  0  0  0
  5  7  1  0  0  0  0
  7  8  1  6  0  0  0
  7  9  1  0  0  0  0
  9 10  1  0  0  0  0
  9 11  1  1  0  0  0
 11 12  1  0  0  0  0
 13 14  1  6  0  0  0
 13 15  1  0  0  0  0
 13 22  1  0  0  0  0
 15 16  1  1  0  0  0
 15 17  1  0  0  0  0
 17 18  1  6  0  0  0
 17 19  1  0  0  0  0
 19  2  1  1  0  0  0
 19 20  1  0  0  0  0
 20 21  1  6  0  0  0
 20 22  1  0  0  0  0
 23 18  1  1  0  0  0
 23 24  1  0  0  0  0
 23 28  1  0  0  0  0
 24 25  1  6  0  0  0
 24 26  1  0  0  0  0
 26 27  1  0  0  0  0
 26 38  1  6  0  0  0
 27 28  1  0  0  0  0
 27 29  1  1  0  0  0
 29 30  1  0  0  0  0
 31 32  1  1  0  0  0
 31 33  1  0  0  0  0
 31 39  1  0  0  0  0
 33 34  1  1  0  0  0
 33 35  1  0  0  0  0
 35 36  1  1  0  0  0
 35 37  1  0  0  0  0
 37 38  1  1  0  0  0
 37 40  1  0  0  0  0
 39 40  1  0  0  0  0
 39 41  1  1  0  0  0
 41 42  1  0  0  0  0
M  CHG  5   4   1  14   1  21   1  36   1  42   1
M  END
>  <CHROM.1>
-148.30642073,-76.10419505,-166.16404413,-72.80201329,-54.87370143,171.73792552
54.18673843,57.62618136,77.65548333,39.03752260,124.65804258,-63.12062054
-57.34540082,-41.26187142,-64.18082055,60.80744778,166.33102422,68.15943017
64.11455975,-143.12316705,94.84787057,-43.10797298,2.30201597,-0.61919148
41.05161057,-1.96712474,-1.25743919,-1.46424520

>  <Name>
1pbr

>  <RI>
0

>  <Rbt.Current_Directory>
/home/itssahil/PROJECTS/Mol_Feturizer/New_Systems/rnas/1pbr

>  <Rbt.Executable>
rbdock ($Id: //depot/dev/client3/rdock/2013.1/src/exe/rbdock.cxx#4 $)

>  <Rbt.Library>
libRbt.so (2013.1, Build901 2013/11/27)

>  <Rbt.Parameter_File>
/export/apps/rDock/src/rDock_2013.1_src/data/scripts/dock_solv.prm

>  <Rbt.Receptor>
prm/pocket_docking_2.prm

>  <SCORE>
-27.9877

>  <SCORE.INTER>
-40.0896

>  <SCORE.INTER.CONST>
1

>  <SCORE.INTER.POLAR>
-6.11634

>  <SCORE.INTER.ROT>
9

>  <SCORE.INTER.SOLV>
32.0954

>  <SCORE.INTER.VDW>
-26.6371

>  <SCORE.INTER.norm>
-0.954514

>  <SCORE.INTRA>
7.85871

>  <SCORE.INTRA.DIHEDRAL>
0.115488

>  <SCORE.INTRA.DIHEDRAL.0>
29.7866

>  <SCORE.INTRA.POLAR>
0.77548

>  <SCORE.INTRA.POLAR.0>
-0.984091

>  <SCORE.INTRA.REPUL>
-0.274115

>  <SCORE.INTRA.REPUL.0>
0.274115

>  <SCORE.INTRA.SOLV>
0.282756

>  <SCORE.INTRA.SOLV.lig_0>
-152.978

>  <SCORE.INTRA.VDW>
6.39353

>  <SCORE.INTRA.VDW.0>
-6.10719

>  <SCORE.INTRA.norm>
0.187112

>  <SCORE.RESTR>
4.24313

>  <SCORE.RESTR.CAVITY>
4.24313

>  <SCORE.RESTR.norm>
0.101027

>  <SCORE.SYSTEM>
0

>  <SCORE.SYSTEM.CONST>
0

>  <SCORE.SYSTEM.DIHEDRAL>
0

>  <SCORE.SYSTEM.SOLV>
0

>  <SCORE.SYSTEM.norm>
0

>  <SCORE.heavy>
42

>  <SCORE.norm>
-0.666375

>  <RMSD>
2.713

$$$$
1pbr
 OpenBabel11021811403D
libRbt.so/2013.1/901 2013/11/27
 42 45  0  0  0  0  0  0  0  0999 V2000
    5.5853   -1.6380   44.1385 C   0  0  2  0  0  0  0  0  0  0  0  0
    5.1993   -3.0332   44.0521 O   0  0  0  0  0  0  0  0  0  0  0  0
    7.0959   -1.5007   44.5598 C   0  0  2  0  0  0  0  0  0  0  0  0
    8.0089   -2.4742   43.9062 N   0  3  0  0  0  0  0  0  0  0  0  0
    7.2809   -1.6882   46.0775 C   0  0  1  0  0  0  0  0  0  0  0  0
    8.5940   -1.3033   46.4787 O   0  0  0  0  0  0  0  0  0  0  0  0
    6.2461   -0.8702   46.8647 C   0  0  2  0  0  0  0  0  0  0  0  0
    6.4599   -1.0214   48.2646 O   0  0  0  0  0  0  0  0  0  0  0  0
    4.8101   -1.2510   46.4409 C   0  0  2  0  0  0  0  0  0  0  0  0
    4.6884   -0.9307   45.0388 O   0  0  0  0  0  0  0  0  0  0  0  0
    3.7138   -0.4972   47.1918 C   0  0  0  0  0  0  0  0  0  0  0  0
    3.6195   -0.9344   48.5410 O   0  0  0  0  0  0  0  0  0  0  0  0
    1.8127   -5.3087   42.8029 C   0  0  1  0  0  0  0  0  0  0  0  0
    0.4683   -5.8352   42.5038 N   0  3  0  0  0  0  0  0  0  0  0  0
    2.1538   -4.0453   41.9560 C   0  0  2  0  0  0  0  0  0  0  0  0
    2.0911   -4.3474   40.5641 O   0  0  0  0  0  0  0  0  0  0  0  0
    3.5816   -3.5162   42.2801 C   0  0  1  0  0  0  0  0  0  0  0  0
    3.7758   -2.2464   41.5895 O   0  0  0  0  0  0  0  0  0  0  0  0
    3.7982   -3.3114   43.8152 C   0  0  1  0  0  0  0  0  0  0  0  0
    3.4008   -4.5662   44.6567 C   0  0  1  0  0  0  0  0  0  0  0  0
    3.5219   -4.3086   46.1087 N   0  3  0  0  0  0  0  0  0  0  0  0
    1.9530   -5.0111   44.3245 C   0  0  0  0  0  0  0  0  0  0  0  0
    5.1297   -1.7557   41.3283 C   0  0  1  0  0  0  0  0  0  0  0  0
    5.3267   -1.6390   39.8053 C   0  0  2  0  0  0  0  0  0  0  0  0
    6.7049   -1.7396   39.4581 O   0  0  0  0  0  0  0  0  0  0  0  0
    4.7768   -0.2195   39.5992 C   0  0  1  0  0  0  0  0  0  0  0  0
    5.3786    0.5357   40.7726 C   0  0  2  0  0  0  0  0  0  0  0  0
    5.2791   -0.4133   41.8235 O   0  0  0  0  0  0  0  0  0  0  0  0
    4.6545    1.8329   41.1554 C   0  0  0  0  0  0  0  0  0  0  0  0
    5.3723    2.5083   42.1776 O   0  0  0  0  0  0  0  0  0  0  0  0
    1.9189    2.9284   36.9090 C   0  0  1  0  0  0  0  0  0  0  0  0
    2.3087    4.0798   37.6554 O   0  0  0  0  0  0  0  0  0  0  0  0
    3.0355    2.5741   35.8875 C   0  0  2  0  0  0  0  0  0  0  0  0
    2.4944    1.6829   34.9152 O   0  0  0  0  0  0  0  0  0  0  0  0
    4.3228    1.9301   36.4989 C   0  0  1  0  0  0  0  0  0  0  0  0
    5.2464    2.9820   36.9779 N   0  3  0  0  0  0  0  0  0  0  0  0
    3.9823    0.8858   37.5945 C   0  0  1  0  0  0  0  0  0  0  0  0
    5.1321    0.4169   38.3408 O   0  0  0  0  0  0  0  0  0  0  0  0
    1.6784    1.7284   37.8591 C   0  0  1  0  0  0  0  0  0  0  0  0
    2.9464    1.4069   38.4938 O   0  0  0  0  0  0  0  0  0  0  0  0
    0.5825    1.9773   38.9122 C   0  0  0  0  0  0  0  0  0  0  0  0
   -0.7102    2.3588   38.3105 N   0  3  0  0  0  0  0  0  0  0  0  0
  1  2  1  1  0  0  0
  1  3  1  0  0  0  0
  1 10  1  0  0  0  0
  3  4  1  6  0  0  0
  3  5  1  0  0  0  0
  5  6  1  1  0  0  0
  5  7  1  0  0  0  0
  7  8  1  1  0  0  0
  7  9  1  0  0  0  0
  9 10  1  0  0  0  0
  9 11  1  1  0  0  0
 11 12  1  0  0  0  0
 13 14  1  1  0  0  0
 13 15  1  0  0  0  0
 13 22  1  0  0  0  0
 15 16  1  6  0  0  0
 15 17  1  0  0  0  0
 17 18  1  6  0  0  0
 17 19  1  0  0  0  0
 19  2  1  6  0  0  0
 19 20  1  0  0  0  0
 20 21  1  1  0  0  0
 20 22  1  0  0  0  0
 23 18  1  6  0  0  0
 23 24  1  0  0  0  0
 23 28  1  0  0  0  0
 24 25  1  1  0  0  0
 24 26  1  0  0  0  0
 26 27  1  0  0  0  0
 26 38  1  6  0  0  0
 27 28  1  0  0  0  0
 27 29  1  1  0  0  0
 29 30  1  0  0  0  0
 31 32  1  1  0  0  0
 31 33  1  0  0  0  0
 31 39  1  0  0  0  0
 33 34  1  6  0  0  0
 33 35  1  0  0  0  0
 35 36  1  1  0  0  0
 35 37  1  0  0  0  0
 37 38  1  1  0  0  0
 37 40  1  0  0  0  0
 39 40  1  0  0  0  0
 39 41  1  1  0  0  0
 41 42  1  0  0  0  0
M  CHG  5   4   1  14   1  21   1  36   1  42   1
M  END
>  <CHROM.1>
173.51863597,95.21195397,-179.32890219,61.04936531,69.14608910,-71.35495800
172.51996488,-54.95951677,-59.45966090,-158.85341410,118.47441047,-169.27370204
-57.26138601,125.55833779,-174.74833263,60.81302275,57.41383570,58.37902477
49.80438000,162.11247909,56.10153962,166.58444693,4.13584005,-0.82054103
41.83665092,-1.27060937,-0.74489626,-0.87705480

>  <Name>
1pbr

>  <RI>
0

>  <Rbt.Current_Directory>
/home/itssahil/PROJECTS/Mol_Feturizer/New_Systems/rnas/1pbr

>  <Rbt.Executable>
rbdock ($Id: //depot/dev/client3/rdock/2013.1/src/exe/rbdock.cxx#4 $)

>  <Rbt.Library>
libRbt.so (2013.1, Build901 2013/11/27)

>  <Rbt.Parameter_File>
/export/apps/rDock/src/rDock_2013.1_src/data/scripts/dock_solv.prm

>  <Rbt.Receptor>
prm/pocket_docking_6.prm

>  <SCORE>
-35.0823

>  <SCORE.INTER>
-35.5959

>  <SCORE.INTER.CONST>
1

>  <SCORE.INTER.POLAR>
-5.1788

>  <SCORE.INTER.ROT>
9

>  <SCORE.INTER.SOLV>
24.5943

>  <SCORE.INTER.VDW>
-24.2661

>  <SCORE.INTER.norm>
-0.847522

>  <SCORE.INTRA>
0.241397

>  <SCORE.INTRA.DIHEDRAL>
-4.2744

>  <SCORE.INTRA.DIHEDRAL.0>
29.7866

>  <SCORE.INTRA.POLAR>
0.945882

>  <SCORE.INTRA.POLAR.0>
-0.984091

>  <SCORE.INTRA.REPUL>
-0.274115

>  <SCORE.INTRA.REPUL.0>
0.274115

>  <SCORE.INTRA.SOLV>
-1.53767

>  <SCORE.INTRA.SOLV.lig_0>
-152.978

>  <SCORE.INTRA.VDW>
1.302

>  <SCORE.INTRA.VDW.0>
-6.10719

>  <SCORE.INTRA.norm>
0.00574755

>  <SCORE.RESTR>
0.272284

>  <SCORE.RESTR.CAVITY>
0.272284

>  <SCORE.RESTR.norm>
0.00648296

>  <SCORE.SYSTEM>
0

>  <SCORE.SYSTEM.CONST>
0

>  <SCORE.SYSTEM.DIHEDRAL>
0

>  <SCORE.SYSTEM.SOLV>
0

>  <SCORE.SYSTEM.norm>
0

>  <SCORE.heavy>
42

>  <SCORE.norm>
-0.835292

>  <RMSD>
2.739

$$$$
1pbr
 OpenBabel11021811403D
libRbt.so/2013.1/901 2013/11/27
 42 45  0  0  0  0  0  0  0  0999 V2000
    1.6206   -1.8307   44.3729 C   0  0  2  0  0  0  0  0  0  0  0  0
    1.1120   -1.4687   43.0639 O   0  0  0  0  0  0  0  0  0  0  0  0
    2.2451   -0.5795   45.0959 C   0  0  2  0  0  0  0  0  0  0  0  0
    1.4687    0.6771   44.9335 N   0  3  0  0  0  0  0  0  0  0  0  0
    3.6656   -0.2780   44.5821 C   0  0  1  0  0  0  0  0  0  0  0  0
    4.3140    0.6778   45.4184 O   0  0  0  0  0  0  0  0  0  0  0  0
    4.5124   -1.5580   44.5178 C   0  0  2  0  0  0  0  0  0  0  0  0
    5.8339   -1.2533   44.0829 O   0  0  0  0  0  0  0  0  0  0  0  0
    3.8285   -2.6227   43.6317 C   0  0  2  0  0  0  0  0  0  0  0  0
    2.5622   -2.9325   44.2511 O   0  0  0  0  0  0  0  0  0  0  0  0
    4.6157   -3.9250   43.4954 C   0  0  0  0  0  0  0  0  0  0  0  0
    4.5842   -4.6746   44.7027 O   0  0  0  0  0  0  0  0  0  0  0  0
    0.1439   -5.4452   41.8565 C   0  0  1  0  0  0  0  0  0  0  0  0
   -0.4343   -6.6638   41.2608 N   0  3  0  0  0  0  0  0  0  0  0  0
    0.8509   -4.5479   40.7960 C   0  0  2  0  0  0  0  0  0  0  0  0
    1.8971   -5.2703   40.1508 O   0  0  0  0  0  0  0  0  0  0  0  0
    1.4636   -3.2752   41.4505 C   0  0  1  0  0  0  0  0  0  0  0  0
    1.9572   -2.3994   40.3939 O   0  0  0  0  0  0  0  0  0  0  0  0
    0.4204   -2.5018   42.3216 C   0  0  1  0  0  0  0  0  0  0  0  0
   -0.3199   -3.4238   43.3426 C   0  0  1  0  0  0  0  0  0  0  0  0
   -1.3684   -2.6861   44.0815 N   0  3  0  0  0  0  0  0  0  0  0  0
   -0.9496   -4.6435   42.6213 C   0  0  0  0  0  0  0  0  0  0  0  0
    3.3452   -1.9360   40.4170 C   0  0  1  0  0  0  0  0  0  0  0  0
    3.6573   -1.2462   39.0759 C   0  0  2  0  0  0  0  0  0  0  0  0
    5.0519   -1.2936   38.7881 O   0  0  0  0  0  0  0  0  0  0  0  0
    3.1818    0.1737   39.4188 C   0  0  1  0  0  0  0  0  0  0  0  0
    3.7265    0.3683   40.8242 C   0  0  2  0  0  0  0  0  0  0  0  0
    3.5123   -0.9073   41.4086 O   0  0  0  0  0  0  0  0  0  0  0  0
    3.0296    1.4571   41.6502 C   0  0  0  0  0  0  0  0  0  0  0  0
    1.6237    1.3855   41.4636 O   0  0  0  0  0  0  0  0  0  0  0  0
    2.6852    1.9819   34.3893 C   0  0  1  0  0  0  0  0  0  0  0  0
    3.9896    2.4334   34.0293 O   0  0  0  0  0  0  0  0  0  0  0  0
    2.7583    0.4928   34.8285 C   0  0  2  0  0  0  0  0  0  0  0  0
    1.4387   -0.0469   34.8230 O   0  0  0  0  0  0  0  0  0  0  0  0
    3.3998    0.2390   36.2320 C   0  0  1  0  0  0  0  0  0  0  0  0
    4.8730    0.1641   36.1183 N   0  3  0  0  0  0  0  0  0  0  0  0
    2.9307    1.2831   37.2792 C   0  0  1  0  0  0  0  0  0  0  0  0
    3.6533    1.2267   38.5337 O   0  0  0  0  0  0  0  0  0  0  0  0
    2.1197    2.8421   35.5473 C   0  0  1  0  0  0  0  0  0  0  0  0
    2.9703    2.6342   36.7079 O   0  0  0  0  0  0  0  0  0  0  0  0
    2.0030    4.3405   35.2108 C   0  0  0  0  0  0  0  0  0  0  0  0
    1.6005    5.1561   36.3733 N   0  3  0  0  0  0  0  0  0  0  0  0
  1  2  1  6  0  0  0
  1  3  1  0  0  0  0
  1 10  1  0  0  0  0
  3  4  1  6  0  0  0
  3  5  1  0  0  0  0
  5  6  1  1  0  0  0
  5  7  1  0  0  0  0
  7  8  1  6  0  0  0
  7  9  1  0  0  0  0
  9 10  1  0  0  0  0
  9 11  1  1  0  0  0
 11 12  1  0  0  0  0
 13 14  1  6  0  0  0
 13 15  1  0  0  0  0
 13 22  1  0  0  0  0
 15 16  1  1  0  0  0
 15 17  1  0  0  0  0
 17 18  1  6  0  0  0
 17 19  1  0  0  0  0
 19  2  1  1  0  0  0
 19 20  1  0  0  0  0
 20 21  1  6  0  0  0
 20 22  1  0  0  0  0
 23 18  1  6  0  0  0
 23 24  1  0  0  0  0
 23 28  1  0  0  0  0
 24 25  1  1  0  0  0
 24 26  1  0  0  0  0
 26 27  1  0  0  0  0
 26 38  1  6  0  0  0
 27 28  1  0  0  0  0
 27 29  1  1  0  0  0
 29 30  1  0  0  0  0
 31 32  1  1  0  0  0
 31 33  1  0  0  0  0
 31 39  1  0  0  0  0
 33 34  1  1  0  0  0
 33 35  1  0  0  0  0
 35 36  1  6  0  0  0
 35 37  1  0  0  0  0
 37 38  1  1  0  0  0
 37 40  1  0  0  0  0
 39 40  1  0  0  0  0
 39 41  1  6  0  0  0
 41 42  1  0  0  0  0
M  CHG  5   4   1  14   1  21   1  36   1  42   1
M  END
>  <CHROM.1>
-175.65642199,-90.04835446,-63.03193436,-60.48370410,47.51225349,71.99868036
-175.96199385,-175.46698110,177.95459465,-125.71354038,170.11501500,15.74764463
58.29102408,77.92406232,42.25089501,-162.86277564,54.63226539,-168.89844837
94.25283879,-80.48328663,-173.83388916,141.62343320,2.52847808,-0.93153016
40.56059852,-1.78241579,-1.09982621,-1.18738157

>  <Name>
1pbr

>  <RI>
0

>  <Rbt.Current_Directory>
/home/itssahil/PROJECTS/Mol_Feturizer/New_Systems/rnas/1pbr

>  <Rbt.Executable>
rbdock ($Id: //depot/dev/client3/rdock/2013.1/src/exe/rbdock.cxx#4 $)

>  <Rbt.Library>
libRbt.so (2013.1, Build901 2013/11/27)

>  <Rbt.Parameter_File>
/export/apps/rDock/src/rDock_2013.1_src/data/scripts/dock_solv.prm

>  <Rbt.Receptor>
prm/pocket_docking_6.prm

>  <SCORE>
-33.1609

>  <SCORE.INTER>
-31.3571

>  <SCORE.INTER.CONST>
1

>  <SCORE.INTER.POLAR>
-5.12472

>  <SCORE.INTER.ROT>
9

>  <SCORE.INTER.SOLV>
24.8792

>  <SCORE.INTER.VDW>
-21.7154

>  <SCORE.INTER.norm>
-0.746598

>  <SCORE.INTRA>
-1.80376

>  <SCORE.INTRA.DIHEDRAL>
-2.01791

>  <SCORE.INTRA.DIHEDRAL.0>
29.7866

>  <SCORE.INTRA.POLAR>
-0.153252

>  <SCORE.INTRA.POLAR.0>
-0.984091

>  <SCORE.INTRA.REPUL>
-0.274115

>  <SCORE.INTRA.REPUL.0>
0.274115

>  <SCORE.INTRA.SOLV>
2.14941

>  <SCORE.INTRA.SOLV.lig_0>
-152.978

>  <SCORE.INTRA.VDW>
0.0221209

>  <SCORE.INTRA.VDW.0>
-6.10719

>  <SCORE.INTRA.norm>
-0.0429467

>  <SCORE.RESTR>
0

>  <SCORE.RESTR.CAVITY>
0

>  <SCORE.RESTR.norm>
0

>  <SCORE.SYSTEM>
0

>  <SCORE.SYSTEM.CONST>
0

>  <SCORE.SYSTEM.DIHEDRAL>
0

>  <SCORE.SYSTEM.SOLV>
0

>  <SCORE.SYSTEM.norm>
0

>  <SCORE.heavy>
42

>  <SCORE.norm>
-0.789545

>  <RMSD>
2.769

$$$$
1pbr
 OpenBabel11021811403D
libRbt.so/2013.1/901 2013/11/27
 42 45  0  0  0  0  0  0  0  0999 V2000
    2.7831   -1.3116   43.9907 C   0  0  2  0  0  0  0  0  0  0  0  0
    2.0633   -2.4457   44.5375 O   0  0  0  0  0  0  0  0  0  0  0  0
    4.3348   -1.5772   43.9992 C   0  0  2  0  0  0  0  0  0  0  0  0
    4.7264   -2.9543   43.6014 N   0  3  0  0  0  0  0  0  0  0  0  0
    4.9427   -1.3422   45.3949 C   0  0  1  0  0  0  0  0  0  0  0  0
    6.3671   -1.3264   45.3302 O   0  0  0  0  0  0  0  0  0  0  0  0
    4.4443   -0.0206   45.9986 C   0  0  2  0  0  0  0  0  0  0  0  0
    5.0501    0.2007   47.2684 O   0  0  0  0  0  0  0  0  0  0  0  0
    2.9012    0.0023   46.0670 C   0  0  2  0  0  0  0  0  0  0  0  0
    2.4201   -0.1008   44.7101 O   0  0  0  0  0  0  0  0  0  0  0  0
    2.3191    1.2768   46.6761 C   0  0  0  0  0  0  0  0  0  0  0  0
    0.9081    1.3282   46.5121 O   0  0  0  0  0  0  0  0  0  0  0  0
   -0.3985   -5.4978   42.8548 C   0  0  1  0  0  0  0  0  0  0  0  0
   -1.4221   -6.2887   42.1473 N   0  3  0  0  0  0  0  0  0  0  0  0
    0.5532   -4.7501   41.8725 C   0  0  2  0  0  0  0  0  0  0  0  0
    1.2168   -5.6791   41.0187 O   0  0  0  0  0  0  0  0  0  0  0  0
    1.6318   -3.9332   42.6425 C   0  0  1  0  0  0  0  0  0  0  0  0
    2.3784   -3.1270   41.6834 O   0  0  0  0  0  0  0  0  0  0  0  0
    0.9998   -2.9993   43.7257 C   0  0  1  0  0  0  0  0  0  0  0  0
    0.0063   -3.7501   44.6691 C   0  0  1  0  0  0  0  0  0  0  0  0
   -0.6498   -2.8231   45.6176 N   0  3  0  0  0  0  0  0  0  0  0  0
   -1.0705   -4.5004   43.8433 C   0  0  0  0  0  0  0  0  0  0  0  0
    1.6948   -2.5474   40.5265 C   0  0  1  0  0  0  0  0  0  0  0  0
    2.5397   -1.3769   39.9898 C   0  0  2  0  0  0  0  0  0  0  0  0
    1.7275   -0.4367   39.2923 O   0  0  0  0  0  0  0  0  0  0  0  0
    3.4645   -2.1602   39.0458 C   0  0  1  0  0  0  0  0  0  0  0  0
    2.5011   -3.1237   38.3727 C   0  0  2  0  0  0  0  0  0  0  0  0
    1.6496   -3.4957   39.4456 O   0  0  0  0  0  0  0  0  0  0  0  0
    3.1490   -4.3673   37.7503 C   0  0  0  0  0  0  0  0  0  0  0  0
    3.6930   -5.1945   38.7682 O   0  0  0  0  0  0  0  0  0  0  0  0
    2.7634    1.4414   35.0859 C   0  0  1  0  0  0  0  0  0  0  0  0
    4.0445    1.6700   34.5018 O   0  0  0  0  0  0  0  0  0  0  0  0
    2.3634   -0.0470   34.8846 C   0  0  2  0  0  0  0  0  0  0  0  0
    0.9642   -0.1770   35.1254 O   0  0  0  0  0  0  0  0  0  0  0  0
    3.1262   -1.0733   35.7849 C   0  0  1  0  0  0  0  0  0  0  0  0
    4.4136   -1.4485   35.1598 N   0  3  0  0  0  0  0  0  0  0  0  0
    3.2926   -0.5558   37.2379 C   0  0  1  0  0  0  0  0  0  0  0  0
    4.1732   -1.3652   38.0556 O   0  0  0  0  0  0  0  0  0  0  0  0
    2.7956    1.7748   36.5987 C   0  0  1  0  0  0  0  0  0  0  0  0
    3.7179    0.8486   37.2354 O   0  0  0  0  0  0  0  0  0  0  0  0
    3.1796    3.2342   36.9069 C   0  0  0  0  0  0  0  0  0  0  0  0
    4.6336    3.4158   37.0842 N   0  3  0  0  0  0  0  0  0  0  0  0
  1  2  1  1  0  0  0
  1  3  1  0  0  0  0
  1 10  1  0  0  0  0
  3  4  1  1  0  0  0
  3  5  1  0  0  0  0
  5  6  1  6  0  0  0
  5  7  1  0  0  0  0
  7  8  1  1  0  0  0
  7  9  1  0  0  0  0
  9 10  1  0  0  0  0
  9 11  1  6  0  0  0
 11 12  1  0  0  0  0
 13 14  1  6  0  0  0
 13 15  1  0  0  0  0
 13 22  1  0  0  0  0
 15 16  1  6  0  0  0
 15 17  1  0  0  0  0
 17 18  1  6  0  0  0
 17 19  1  0  0  0  0
 19  2  1  1  0  0  0
 19 20  1  0  0  0  0
 20 21  1  1  0  0  0
 20 22  1  0  0  0  0
 23 18  1  1  0  0  0
 23 24  1  0  0  0  0
 23 28  1  0  0  0  0
 24 25  1  6  0  0  0
 24 26  1  0  0  0  0
 26 27  1  0  0  0  0
 26 38  1  6  0  0  0
 27 28  1  0  0  0  0
 27 29  1  1  0  0  0
 29 30  1  0  0  0  0
 31 32  1  1  0  0  0
 31 33  1  0  0  0  0
 31 39  1  0  0  0  0
 33 34  1  1  0  0  0
 33 35  1  0  0  0  0
 35 36  1  6  0  0  0
 35 37  1  0  0  0  0
 37 38  1  6  0  0  0
 37 40  1  0  0  0  0
 39 40  1  0  0  0  0
 39 41  1  6  0  0  0
 41 42  1  0  0  0  0
M  CHG  5   4   1  14   1  21   1  36   1  42   1
M  END
>  <CHROM.1>
-127.00962952,80.50352193,44.94203884,176.63012454,147.64563155,170.51330933
-49.35776786,-52.83018666,63.65495104,35.71893918,159.78742784,-31.21603760
165.26367870,-55.08392138,66.62340892,-65.91751807,62.24834394,67.04157646
37.84954824,-106.80932335,-90.53931719,-137.58303132,2.55455909,-1.57603099
40.96576335,-1.80563284,-1.06533390,-1.54767243

>  <Name>
1pbr

>  <RI>
0

>  <Rbt.Current_Directory>
/home/itssahil/PROJECTS/Mol_Feturizer/New_Systems/rnas/1pbr

>  <Rbt.Executable>
rbdock ($Id: //depot/dev/client3/rdock/2013.1/src/exe/rbdock.cxx#4 $)

>  <Rbt.Library>
libRbt.so (2013.1, Build901 2013/11/27)

>  <Rbt.Parameter_File>
/export/apps/rDock/src/rDock_2013.1_src/data/scripts/dock_solv.prm

>  <Rbt.Receptor>
prm/pocket_docking_4.prm

>  <SCORE>
-34.3502

>  <SCORE.INTER>
-37.227

>  <SCORE.INTER.CONST>
1

>  <SCORE.INTER.POLAR>
-4.09701

>  <SCORE.INTER.ROT>
9

>  <SCORE.INTER.SOLV>
32.0741

>  <SCORE.INTER.VDW>
-31.4527

>  <SCORE.INTER.norm>
-0.886356

>  <SCORE.INTRA>
2.87675

>  <SCORE.INTRA.DIHEDRAL>
6.2326

>  <SCORE.INTRA.DIHEDRAL.0>
29.7866

>  <SCORE.INTRA.POLAR>
-0.717898

>  <SCORE.INTRA.POLAR.0>
-0.984091

>  <SCORE.INTRA.REPUL>
-0.271863

>  <SCORE.INTRA.REPUL.0>
0.274115

>  <SCORE.INTRA.SOLV>
1.99348

>  <SCORE.INTRA.SOLV.lig_0>
-152.978

>  <SCORE.INTRA.VDW>
2.56388

>  <SCORE.INTRA.VDW.0>
-6.10719

>  <SCORE.INTRA.norm>
0.0684941

>  <SCORE.RESTR>
0

>  <SCORE.RESTR.CAVITY>
0

>  <SCORE.RESTR.norm>
0

>  <SCORE.SYSTEM>
0

>  <SCORE.SYSTEM.CONST>
0

>  <SCORE.SYSTEM.DIHEDRAL>
0

>  <SCORE.SYSTEM.SOLV>
0

>  <SCORE.SYSTEM.norm>
0

>  <SCORE.heavy>
42

>  <SCORE.norm>
-0.817862

>  <RMSD>
2.798

$$$$
1pbr
 OpenBabel11021811403D
libRbt.so/2013.1/901 2013/11/27
 42 45  0  0  0  0  0  0  0  0999 V2000
    1.4439   -1.7203   45.0826 C   0  0  2  0  0  0  0  0  0  0  0  0
    1.0294   -1.1661   43.8080 O   0  0  0  0  0  0  0  0  0  0  0  0
    1.1915   -0.6924   46.2479 C   0  0  2  0  0  0  0  0  0  0  0  0
   -0.0963    0.0430   46.1529 N   0  3  0  0  0  0  0  0  0  0  0  0
    2.2964    0.3792   46.3082 C   0  0  1  0  0  0  0  0  0  0  0  0
    2.2028    1.1353   47.5135 O   0  0  0  0  0  0  0  0  0  0  0  0
    3.6902   -0.2593   46.2128 C   0  0  2  0  0  0  0  0  0  0  0  0
    4.6986    0.7413   46.3141 O   0  0  0  0  0  0  0  0  0  0  0  0
    3.8194   -1.1014   44.9241 C   0  0  2  0  0  0  0  0  0  0  0  0
    2.8313   -2.1501   45.0082 O   0  0  0  0  0  0  0  0  0  0  0  0
    5.1864   -1.7579   44.7382 C   0  0  0  0  0  0  0  0  0  0  0  0
    5.8017   -1.3330   43.5293 O   0  0  0  0  0  0  0  0  0  0  0  0
    0.1788   -4.9774   42.0881 C   0  0  1  0  0  0  0  0  0  0  0  0
   -0.2864   -6.1096   41.2660 N   0  3  0  0  0  0  0  0  0  0  0  0
    1.2189   -4.0913   41.3381 C   0  0  2  0  0  0  0  0  0  0  0  0
    2.3542   -4.8671   40.9617 O   0  0  0  0  0  0  0  0  0  0  0  0
    1.7040   -2.9113   42.2302 C   0  0  1  0  0  0  0  0  0  0  0  0
    2.5376   -2.0284   41.4224 O   0  0  0  0  0  0  0  0  0  0  0  0
    0.5104   -2.0965   42.8274 C   0  0  1  0  0  0  0  0  0  0  0  0
   -0.5520   -3.0023   43.5285 C   0  0  1  0  0  0  0  0  0  0  0  0
   -1.7152   -2.2157   43.9950 N   0  3  0  0  0  0  0  0  0  0  0  0
   -1.0306   -4.1246   42.5716 C   0  0  0  0  0  0  0  0  0  0  0  0
    1.9360   -1.2318   40.3521 C   0  0  1  0  0  0  0  0  0  0  0  0
    2.7855    0.0359   40.1438 C   0  0  2  0  0  0  0  0  0  0  0  0
    2.0054    1.0885   39.5837 O   0  0  0  0  0  0  0  0  0  0  0  0
    3.8113   -0.5226   39.1460 C   0  0  1  0  0  0  0  0  0  0  0  0
    2.9395   -1.3396   38.2068 C   0  0  2  0  0  0  0  0  0  0  0  0
    2.0127   -1.9369   39.1005 O   0  0  0  0  0  0  0  0  0  0  0  0
    3.6771   -2.4187   37.4036 C   0  0  0  0  0  0  0  0  0  0  0  0
    4.2983   -3.3428   38.2848 O   0  0  0  0  0  0  0  0  0  0  0  0
    2.9627    3.5016   35.7819 C   0  0  1  0  0  0  0  0  0  0  0  0
    3.8094    4.5482   36.2534 O   0  0  0  0  0  0  0  0  0  0  0  0
    3.8306    2.3954   35.1196 C   0  0  2  0  0  0  0  0  0  0  0  0
    2.9809    1.5601   34.3368 O   0  0  0  0  0  0  0  0  0  0  0  0
    4.6434    1.4987   36.1102 C   0  0  1  0  0  0  0  0  0  0  0  0
    5.9278    2.1470   36.4553 N   0  3  0  0  0  0  0  0  0  0  0  0
    3.8089    1.1161   37.3608 C   0  0  1  0  0  0  0  0  0  0  0  0
    4.5753    0.4696   38.4067 O   0  0  0  0  0  0  0  0  0  0  0  0
    2.1508    2.8976   36.9553 C   0  0  1  0  0  0  0  0  0  0  0  0
    3.0951    2.2891   37.8783 O   0  0  0  0  0  0  0  0  0  0  0  0
    1.2508    3.9162   37.6795 C   0  0  0  0  0  0  0  0  0  0  0  0
    0.3660    3.2859   38.6787 N   0  3  0  0  0  0  0  0  0  0  0  0
  1  2  1  6  0  0  0
  1  3  1  0  0  0  0
  1 10  1  0  0  0  0
  3  4  1  6  0  0  0
  3  5  1  0  0  0  0
  5  6  1  1  0  0  0
  5  7  1  0  0  0  0
  7  8  1  6  0  0  0
  7  9  1  0  0  0  0
  9 10  1  0  0  0  0
  9 11  1  1  0  0  0
 11 12  1  0  0  0  0
 13 14  1  6  0  0  0
 13 15  1  0  0  0  0
 13 22  1  0  0  0  0
 15 16  1  1  0  0  0
 15 17  1  0  0  0  0
 17 18  1  6  0  0  0
 17 19  1  0  0  0  0
 19  2  1  1  0  0  0
 19 20  1  0  0  0  0
 20 21  1  6  0  0  0
 20 22  1  0  0  0  0
 23 18  1  1  0  0  0
 23 24  1  0  0  0  0
 23 28  1  0  0  0  0
 24 25  1  6  0  0  0
 24 26  1  0  0  0  0
 26 27  1  0  0  0  0
 26 38  1  6  0  0  0
 27 28  1  0  0  0  0
 27 29  1  1  0  0  0
 29 30  1  0  0  0  0
 31 32  1  1  0  0  0
 31 33  1  0  0  0  0
 31 39  1  0  0  0  0
 33 34  1  1  0  0  0
 33 35  1  0  0  0  0
 35 36  1  1  0  0  0
 35 37  1  0  0  0  0
 37 38  1  1  0  0  0
 37 40  1  0  0  0  0
 39 40  1  0  0  0  0
 39 41  1  1  0  0  0
 41 42  1  0  0  0  0
M  CHG  5   4   1  14   1  21   1  36   1  42   1
M  END
>  <CHROM.1>
-147.44987309,-74.47095555,81.71531650,-65.88976243,-53.41276410,-120.70516256
70.26523152,62.36358533,-49.78235565,68.99297441,152.58354537,-64.53085448
-47.20133592,-74.81930476,59.54523787,152.38483130,-62.09454043,176.30517643
-97.77726773,-146.53657339,172.84565867,-75.74149862,2.43429675,-0.56133252
40.98301146,-2.17905384,-1.20644046,-1.71286753

>  <Name>
1pbr

>  <RI>
0

>  <Rbt.Current_Directory>
/home/itssahil/PROJECTS/Mol_Feturizer/New_Systems/rnas/1pbr

>  <Rbt.Executable>
rbdock ($Id: //depot/dev/client3/rdock/2013.1/src/exe/rbdock.cxx#4 $)

>  <Rbt.Library>
libRbt.so (2013.1, Build901 2013/11/27)

>  <Rbt.Parameter_File>
/export/apps/rDock/src/rDock_2013.1_src/data/scripts/dock_solv.prm

>  <Rbt.Receptor>
prm/pocket_docking_3.prm

>  <SCORE>
-32.7809

>  <SCORE.INTER>
-37.3575

>  <SCORE.INTER.CONST>
1

>  <SCORE.INTER.POLAR>
-5.8621

>  <SCORE.INTER.ROT>
9

>  <SCORE.INTER.SOLV>
33.1554

>  <SCORE.INTER.VDW>
-26.0164

>  <SCORE.INTER.norm>
-0.889463

>  <SCORE.INTRA>
4.56404

>  <SCORE.INTRA.DIHEDRAL>
-0.267469

>  <SCORE.INTRA.DIHEDRAL.0>
29.7866

>  <SCORE.INTRA.POLAR>
-0.285946

>  <SCORE.INTRA.POLAR.0>
-0.984091

>  <SCORE.INTRA.REPUL>
-0.262715

>  <SCORE.INTRA.REPUL.0>
0.274115

>  <SCORE.INTRA.SOLV>
3.01919

>  <SCORE.INTRA.SOLV.lig_0>
-152.978

>  <SCORE.INTRA.VDW>
5.47397

>  <SCORE.INTRA.VDW.0>
-6.10719

>  <SCORE.INTRA.norm>
0.108668

>  <SCORE.RESTR>
0.0125377

>  <SCORE.RESTR.CAVITY>
0.0125377

>  <SCORE.RESTR.norm>
0.000298516

>  <SCORE.SYSTEM>
0

>  <SCORE.SYSTEM.CONST>
0

>  <SCORE.SYSTEM.DIHEDRAL>
0

>  <SCORE.SYSTEM.SOLV>
0

>  <SCORE.SYSTEM.norm>
0

>  <SCORE.heavy>
42

>  <SCORE.norm>
-0.780497

>  <RMSD>
2.855

$$$$
1pbr
 OpenBabel11021811403D
libRbt.so/2013.1/901 2013/11/27
 42 45  0  0  0  0  0  0  0  0999 V2000
    2.2350   -1.4122   44.3212 C   0  0  2  0  0  0  0  0  0  0  0  0
    1.7831   -2.7261   44.7367 O   0  0  0  0  0  0  0  0  0  0  0  0
    3.6408   -1.0805   44.9472 C   0  0  2  0  0  0  0  0  0  0  0  0
    4.5979   -2.2173   44.9499 N   0  3  0  0  0  0  0  0  0  0  0  0
    3.5151   -0.6192   46.4114 C   0  0  1  0  0  0  0  0  0  0  0  0
    4.7476   -0.0747   46.8780 O   0  0  0  0  0  0  0  0  0  0  0  0
    2.4027    0.4288   46.5663 C   0  0  2  0  0  0  0  0  0  0  0  0
    2.3306    0.8750   47.9168 O   0  0  0  0  0  0  0  0  0  0  0  0
    1.0546   -0.1241   46.0529 C   0  0  2  0  0  0  0  0  0  0  0  0
    1.2283   -0.4153   44.6500 O   0  0  0  0  0  0  0  0  0  0  0  0
   -0.1152    0.8491   46.1892 C   0  0  0  0  0  0  0  0  0  0  0  0
   -1.1439    0.5520   45.2544 O   0  0  0  0  0  0  0  0  0  0  0  0
   -0.9252   -5.7413   43.4017 C   0  0  1  0  0  0  0  0  0  0  0  0
   -2.0386   -6.5173   42.8256 N   0  3  0  0  0  0  0  0  0  0  0  0
   -0.0601   -5.0475   42.3062 C   0  0  2  0  0  0  0  0  0  0  0  0
    0.4848   -6.0171   41.4143 O   0  0  0  0  0  0  0  0  0  0  0  0
    1.1152   -4.2456   42.9379 C   0  0  1  0  0  0  0  0  0  0  0  0
    1.7804   -3.4865   41.8851 O   0  0  0  0  0  0  0  0  0  0  0  0
    0.6258   -3.2664   44.0545 C   0  0  1  0  0  0  0  0  0  0  0  0
   -0.2850   -3.9630   45.1157 C   0  0  1  0  0  0  0  0  0  0  0  0
   -0.8125   -2.9932   46.1010 N   0  3  0  0  0  0  0  0  0  0  0  0
   -1.4625   -4.6997   44.4264 C   0  0  0  0  0  0  0  0  0  0  0  0
    2.3963   -4.1862   40.7568 C   0  0  1  0  0  0  0  0  0  0  0  0
    2.1366   -3.3760   39.4730 C   0  0  2  0  0  0  0  0  0  0  0  0
    2.1714   -4.2154   38.3221 O   0  0  0  0  0  0  0  0  0  0  0  0
    3.3432   -2.4276   39.5382 C   0  0  1  0  0  0  0  0  0  0  0  0
    4.4685   -3.3613   39.9525 C   0  0  2  0  0  0  0  0  0  0  0  0
    3.8277   -4.2022   40.8996 O   0  0  0  0  0  0  0  0  0  0  0  0
    5.6864   -2.6761   40.5857 C   0  0  0  0  0  0  0  0  0  0  0  0
    6.7549   -3.6025   40.7137 O   0  0  0  0  0  0  0  0  0  0  0  0
    4.1697    2.5484   38.1331 C   0  0  1  0  0  0  0  0  0  0  0  0
    2.9439    2.7967   37.4471 O   0  0  0  0  0  0  0  0  0  0  0  0
    3.8644    1.9349   39.5281 C   0  0  2  0  0  0  0  0  0  0  0  0
    5.0351    2.0386   40.3352 O   0  0  0  0  0  0  0  0  0  0  0  0
    3.3926    0.4439   39.5155 C   0  0  1  0  0  0  0  0  0  0  0  0
    1.9333    0.3681   39.2841 N   0  3  0  0  0  0  0  0  0  0  0  0
    4.2055   -0.4109   38.5079 C   0  0  1  0  0  0  0  0  0  0  0  0
    3.6732   -1.7421   38.2989 O   0  0  0  0  0  0  0  0  0  0  0  0
    5.0552    1.5749   37.3154 C   0  0  1  0  0  0  0  0  0  0  0  0
    4.3551    0.3032   37.2347 O   0  0  0  0  0  0  0  0  0  0  0  0
    5.4194    2.0936   35.9117 C   0  0  0  0  0  0  0  0  0  0  0  0
    6.5851    1.3984   35.3318 N   0  3  0  0  0  0  0  0  0  0  0  0
  1  2  1  1  0  0  0
  1  3  1  0  0  0  0
  1 10  1  0  0  0  0
  3  4  1  1  0  0  0
  3  5  1  0  0  0  0
  5  6  1  6  0  0  0
  5  7  1  0  0  0  0
  7  8  1  1  0  0  0
  7  9  1  0  0  0  0
  9 10  1  0  0  0  0
  9 11  1  6  0  0  0
 11 12  1  0  0  0  0
 13 14  1  6  0  0  0
 13 15  1  0  0  0  0
 13 22  1  0  0  0  0
 15 16  1  6  0  0  0
 15 17  1  0  0  0  0
 17 18  1  6  0  0  0
 17 19  1  0  0  0  0
 19  2  1  1  0  0  0
 19 20  1  0  0  0  0
 20 21  1  1  0  0  0
 20 22  1  0  0  0  0
 23 18  1  1  0  0  0
 23 24  1  0  0  0  0
 23 28  1  0  0  0  0
 24 25  1  6  0  0  0
 24 26  1  0  0  0  0
 26 27  1  0  0  0  0
 26 38  1  6  0  0  0
 27 28  1  0  0  0  0
 27 29  1  1  0  0  0
 29 30  1  0  0  0  0
 31 32  1  6  0  0  0
 31 33  1  0  0  0  0
 31 39  1  0  0  0  0
 33 34  1  1  0  0  0
 33 35  1  0  0  0  0
 35 36  1  6  0  0  0
 35 37  1  0  0  0  0
 37 38  1  6  0  0  0
 37 40  1  0  0  0  0
 39 40  1  0  0  0  0
 39 41  1  6  0  0  0
 41 42  1  0  0  0  0
M  CHG  5   4   1  14   1  21   1  36   1  42   1
M  END
>  <CHROM.1>
-169.23521133,98.20311655,175.26713313,-171.19505413,-56.61072373,155.95824049
-53.51241403,179.68033635,-57.13064486,-60.75426216,141.09430584,-47.26758880
94.37656733,146.57691786,-169.80034602,65.38715476,68.17831752,-47.99592026
-172.47264369,-46.95779969,161.17968861,76.99374642,2.53672743,-1.58156650
41.90751618,-2.63316558,-1.02673880,-2.16132189

>  <Name>
1pbr

>  <RI>
0

>  <Rbt.Current_Directory>
/home/itssahil/PROJECTS/Mol_Feturizer/New_Systems/rnas/1pbr

>  <Rbt.Executable>
rbdock ($Id: //depot/dev/client3/rdock/2013.1/src/exe/rbdock.cxx#4 $)

>  <Rbt.Library>
libRbt.so (2013.1, Build901 2013/11/27)

>  <Rbt.Parameter_File>
/export/apps/rDock/src/rDock_2013.1_src/data/scripts/dock_solv.prm

>  <Rbt.Receptor>
prm/pocket_docking_3.prm

>  <SCORE>
-39.0124

>  <SCORE.INTER>
-39.7141

>  <SCORE.INTER.CONST>
1

>  <SCORE.INTER.POLAR>
-5.37284

>  <SCORE.INTER.ROT>
9

>  <SCORE.INTER.SOLV>
28.2781

>  <SCORE.INTER.VDW>
-27.5926

>  <SCORE.INTER.norm>
-0.945573

>  <SCORE.INTRA>
0.701713

>  <SCORE.INTRA.DIHEDRAL>
-2.52298

>  <SCORE.INTRA.DIHEDRAL.0>
29.7866

>  <SCORE.INTRA.POLAR>
0.850209

>  <SCORE.INTRA.POLAR.0>
-0.984091

>  <SCORE.INTRA.REPUL>
-0.274115

>  <SCORE.INTRA.REPUL.0>
0.274115

>  <SCORE.INTRA.SOLV>
-1.75145

>  <SCORE.INTRA.SOLV.lig_0>
-152.978

>  <SCORE.INTRA.VDW>
1.31879

>  <SCORE.INTRA.VDW.0>
-6.10719

>  <SCORE.INTRA.norm>
0.0167075

>  <SCORE.RESTR>
0

>  <SCORE.RESTR.CAVITY>
0

>  <SCORE.RESTR.norm>
0

>  <SCORE.SYSTEM>
0

>  <SCORE.SYSTEM.CONST>
0

>  <SCORE.SYSTEM.DIHEDRAL>
0

>  <SCORE.SYSTEM.SOLV>
0

>  <SCORE.SYSTEM.norm>
0

>  <SCORE.heavy>
42

>  <SCORE.norm>
-0.928866

>  <RMSD>
2.894

$$$$
1pbr
 OpenBabel11021811403D
libRbt.so/2013.1/901 2013/11/27
 42 45  0  0  0  0  0  0  0  0999 V2000
    1.1184   -1.3594   45.5802 C   0  0  2  0  0  0  0  0  0  0  0  0
    0.8521   -0.9153   44.2256 O   0  0  0  0  0  0  0  0  0  0  0  0
    0.9830   -0.1652   46.5970 C   0  0  2  0  0  0  0  0  0  0  0  0
   -0.1664    0.7396   46.3354 N   0  3  0  0  0  0  0  0  0  0  0  0
    2.2404    0.7244   46.5979 C   0  0  1  0  0  0  0  0  0  0  0  0
    2.2168    1.6331   47.6966 O   0  0  0  0  0  0  0  0  0  0  0  0
    3.5180   -0.1259   46.6659 C   0  0  2  0  0  0  0  0  0  0  0  0
    4.6672    0.7141   46.7098 O   0  0  0  0  0  0  0  0  0  0  0  0
    3.5667   -1.1348   45.4971 C   0  0  2  0  0  0  0  0  0  0  0  0
    2.4219   -2.0015   45.6438 O   0  0  0  0  0  0  0  0  0  0  0  0
    4.8187   -2.0102   45.4759 C   0  0  0  0  0  0  0  0  0  0  0  0
    5.9998   -1.2209   45.5259 O   0  0  0  0  0  0  0  0  0  0  0  0
    0.5105   -4.8286   42.5590 C   0  0  1  0  0  0  0  0  0  0  0  0
    0.1817   -6.0271   41.7657 N   0  3  0  0  0  0  0  0  0  0  0  0
    1.3547   -3.7980   41.7496 C   0  0  2  0  0  0  0  0  0  0  0  0
    2.5739   -4.3907   41.3082 O   0  0  0  0  0  0  0  0  0  0  0  0
    1.6997   -2.5485   42.6117 C   0  0  1  0  0  0  0  0  0  0  0  0
    2.3373   -1.5539   41.7566 O   0  0  0  0  0  0  0  0  0  0  0  0
    0.4296   -1.9243   43.2769 C   0  0  1  0  0  0  0  0  0  0  0  0
   -0.4362   -2.9782   44.0388 C   0  0  1  0  0  0  0  0  0  0  0  0
   -1.6795   -2.3785   44.5719 N   0  3  0  0  0  0  0  0  0  0  0  0
   -0.7875   -4.1704   43.1116 C   0  0  0  0  0  0  0  0  0  0  0  0
    2.4374   -0.1633   42.2014 C   0  0  1  0  0  0  0  0  0  0  0  0
    3.6320    0.4978   41.4888 C   0  0  2  0  0  0  0  0  0  0  0  0
    4.1422    1.5891   42.2497 O   0  0  0  0  0  0  0  0  0  0  0  0
    2.9217    0.9627   40.2085 C   0  0  1  0  0  0  0  0  0  0  0  0
    1.6127    1.5169   40.7460 C   0  0  2  0  0  0  0  0  0  0  0  0
    1.2883    0.5848   41.7661 O   0  0  0  0  0  0  0  0  0  0  0  0
    0.4724    1.6069   39.7237 C   0  0  0  0  0  0  0  0  0  0  0  0
   -0.1235    2.8949   39.7705 O   0  0  0  0  0  0  0  0  0  0  0  0
    2.4010    3.6670   35.6466 C   0  0  1  0  0  0  0  0  0  0  0  0
    2.8456    4.9890   35.9457 O   0  0  0  0  0  0  0  0  0  0  0  0
    3.6227    2.7067   35.6173 C   0  0  2  0  0  0  0  0  0  0  0  0
    3.2354    1.4999   34.9645 O   0  0  0  0  0  0  0  0  0  0  0  0
    4.2287    2.3508   37.0144 C   0  0  1  0  0  0  0  0  0  0  0  0
    5.1940    3.3898   37.4362 N   0  3  0  0  0  0  0  0  0  0  0  0
    3.1254    2.0908   38.0736 C   0  0  1  0  0  0  0  0  0  0  0  0
    3.6247    1.9685   39.4282 O   0  0  0  0  0  0  0  0  0  0  0  0
    1.3841    3.1881   36.7130 C   0  0  1  0  0  0  0  0  0  0  0  0
    2.0808    3.1178   37.9871 O   0  0  0  0  0  0  0  0  0  0  0  0
    0.1290    4.0744   36.8193 C   0  0  0  0  0  0  0  0  0  0  0  0
   -0.6170    4.1610   35.5487 N   0  3  0  0  0  0  0  0  0  0  0  0
  1  2  1  6  0  0  0
  1  3  1  0  0  0  0
  1 10  1  0  0  0  0
  3  4  1  6  0  0  0
  3  5  1  0  0  0  0
  5  6  1  1  0  0  0
  5  7  1  0  0  0  0
  7  8  1  6  0  0  0
  7  9  1  0  0  0  0
  9 10  1  0  0  0  0
  9 11  1  1  0  0  0
 11 12  1  0  0  0  0
 13 14  1  6  0  0  0
 13 15  1  0  0  0  0
 13 22  1  0  0  0  0
 15 16  1  1  0  0  0
 15 17  1  0  0  0  0
 17 18  1  6  0  0  0
 17 19  1  0  0  0  0
 19  2  1  1  0  0  0
 19 20  1  0  0  0  0
 20 21  1  6  0  0  0
 20 22  1  0  0  0  0
 23 18  1  6  0  0  0
 23 24  1  0  0  0  0
 23 28  1  0  0  0  0
 24 25  1  1  0  0  0
 24 26  1  0  0  0  0
 26 27  1  0  0  0  0
 26 38  1  1  0  0  0
 27 28  1  0  0  0  0
 27 29  1  6  0  0  0
 29 30  1  0  0  0  0
 31 32  1  1  0  0  0
 31 33  1  0  0  0  0
 31 39  1  0  0  0  0
 33 34  1  1  0  0  0
 33 35  1  0  0  0  0
 35 36  1  1  0  0  0
 35 37  1  0  0  0  0
 37 38  1  1  0  0  0
 37 40  1  0  0  0  0
 39 40  1  0  0  0  0
 39 41  1  1  0  0  0
 41 42  1  0  0  0  0
M  CHG  5   4   1  14   1  21   1  36   1  42   1
M  END
>  <CHROM.1>
-156.75007797,-88.73706420,57.85764825,65.08078792,95.75197988,-52.96924476
-177.69052291,177.92315874,-175.09003629,163.37825697,154.90242850,-18.53050607
-177.78985557,163.29602047,-131.01945896,64.56979962,57.82361401,-58.98819391
74.93208942,-142.46002290,58.94732623,105.88294452,2.05802101,0.20248259
41.62658284,-1.66544886,-0.98964913,-1.12627916

>  <Name>
1pbr

>  <RI>
0

>  <Rbt.Current_Directory>
/home/itssahil/PROJECTS/Mol_Feturizer/New_Systems/rnas/1pbr

>  <Rbt.Executable>
rbdock ($Id: //depot/dev/client3/rdock/2013.1/src/exe/rbdock.cxx#4 $)

>  <Rbt.Library>
libRbt.so (2013.1, Build901 2013/11/27)

>  <Rbt.Parameter_File>
/export/apps/rDock/src/rDock_2013.1_src/data/scripts/dock_solv.prm

>  <Rbt.Receptor>
prm/pocket_docking_4.prm

>  <SCORE>
-40.2553

>  <SCORE.INTER>
-44.8215

>  <SCORE.INTER.CONST>
1

>  <SCORE.INTER.POLAR>
-5.8282

>  <SCORE.INTER.ROT>
9

>  <SCORE.INTER.SOLV>
36.9173

>  <SCORE.INTER.VDW>
-32.3594

>  <SCORE.INTER.norm>
-1.06718

>  <SCORE.INTRA>
4.56617

>  <SCORE.INTRA.DIHEDRAL>
3.30626

>  <SCORE.INTRA.DIHEDRAL.0>
29.7866

>  <SCORE.INTRA.POLAR>
0.463795

>  <SCORE.INTRA.POLAR.0>
-0.984091

>  <SCORE.INTRA.REPUL>
-0.254102

>  <SCORE.INTRA.REPUL.0>
0.274115

>  <SCORE.INTRA.SOLV>
-1.4066

>  <SCORE.INTRA.SOLV.lig_0>
-152.978

>  <SCORE.INTRA.VDW>
3.30994

>  <SCORE.INTRA.VDW.0>
-6.10719

>  <SCORE.INTRA.norm>
0.108718

>  <SCORE.RESTR>
0

>  <SCORE.RESTR.CAVITY>
0

>  <SCORE.RESTR.norm>
0

>  <SCORE.SYSTEM>
0

>  <SCORE.SYSTEM.CONST>
0

>  <SCORE.SYSTEM.DIHEDRAL>
0

>  <SCORE.SYSTEM.SOLV>
0

>  <SCORE.SYSTEM.norm>
0

>  <SCORE.heavy>
42

>  <SCORE.norm>
-0.95846

>  <RMSD>
2.913

$$$$
1pbr
 OpenBabel11021811403D
libRbt.so/2013.1/901 2013/11/27
 42 45  0  0  0  0  0  0  0  0999 V2000
    1.0328   -0.6439   43.3505 C   0  0  2  0  0  0  0  0  0  0  0  0
    1.4403   -2.0353   43.3170 O   0  0  0  0  0  0  0  0  0  0  0  0
    1.4021    0.0797   42.0020 C   0  0  2  0  0  0  0  0  0  0  0  0
    1.1505   -0.7281   40.7803 N   0  3  0  0  0  0  0  0  0  0  0  0
    2.8904    0.4742   41.9591 C   0  0  1  0  0  0  0  0  0  0  0  0
    3.1500    1.3517   40.8655 O   0  0  0  0  0  0  0  0  0  0  0  0
    3.3200    1.1505   43.2697 C   0  0  2  0  0  0  0  0  0  0  0  0
    4.6859    1.5470   43.1949 O   0  0  0  0  0  0  0  0  0  0  0  0
    3.0359    0.2316   44.4785 C   0  0  2  0  0  0  0  0  0  0  0  0
    1.6095    0.0134   44.5127 O   0  0  0  0  0  0  0  0  0  0  0  0
    3.4533    0.8198   45.8253 C   0  0  0  0  0  0  0  0  0  0  0  0
    4.7701    0.4165   46.1776 O   0  0  0  0  0  0  0  0  0  0  0  0
    0.1194   -5.7158   41.6092 C   0  0  1  0  0  0  0  0  0  0  0  0
   -0.5094   -6.7832   40.8097 N   0  3  0  0  0  0  0  0  0  0  0  0
    1.1688   -4.9049   40.7902 C   0  0  2  0  0  0  0  0  0  0  0  0
    2.1968   -5.7666   40.3071 O   0  0  0  0  0  0  0  0  0  0  0  0
    1.8273   -3.7933   41.6587 C   0  0  1  0  0  0  0  0  0  0  0  0
    2.6666   -2.9664   40.7993 O   0  0  0  0  0  0  0  0  0  0  0  0
    0.7630   -2.8932   42.3673 C   0  0  1  0  0  0  0  0  0  0  0  0
   -0.3143   -3.7205   43.1391 C   0  0  1  0  0  0  0  0  0  0  0  0
   -1.3617   -2.8480   43.7145 N   0  3  0  0  0  0  0  0  0  0  0  0
   -0.9665   -4.7737   42.2065 C   0  0  0  0  0  0  0  0  0  0  0  0
    3.6554   -3.5931   39.9210 C   0  0  1  0  0  0  0  0  0  0  0  0
    3.4494   -3.0638   38.4894 C   0  0  2  0  0  0  0  0  0  0  0  0
    3.9311   -3.9954   37.5249 O   0  0  0  0  0  0  0  0  0  0  0  0
    4.3251   -1.8042   38.5698 C   0  0  1  0  0  0  0  0  0  0  0  0
    5.5524   -2.3085   39.3109 C   0  0  2  0  0  0  0  0  0  0  0  0
    4.9829   -3.1724   40.2823 O   0  0  0  0  0  0  0  0  0  0  0  0
    6.3963   -1.2232   39.9918 C   0  0  0  0  0  0  0  0  0  0  0  0
    7.6344   -1.7680   40.4236 O   0  0  0  0  0  0  0  0  0  0  0  0
    2.7449    1.7688   34.8538 C   0  0  1  0  0  0  0  0  0  0  0  0
    3.8197    1.9053   33.9259 O   0  0  0  0  0  0  0  0  0  0  0  0
    2.1778    0.3238   34.7767 C   0  0  2  0  0  0  0  0  0  0  0  0
    0.9004    0.3035   35.4095 O   0  0  0  0  0  0  0  0  0  0  0  0
    3.0755   -0.7834   35.4201 C   0  0  1  0  0  0  0  0  0  0  0  0
    4.0928   -1.2480   34.4514 N   0  3  0  0  0  0  0  0  0  0  0  0
    3.6949   -0.3167   36.7637 C   0  0  1  0  0  0  0  0  0  0  0  0
    4.7000   -1.2154   37.2941 O   0  0  0  0  0  0  0  0  0  0  0  0
    3.2376    2.0617   36.2933 C   0  0  1  0  0  0  0  0  0  0  0  0
    4.2205    1.0476   36.6384 O   0  0  0  0  0  0  0  0  0  0  0  0
    3.8175    3.4766   36.4775 C   0  0  0  0  0  0  0  0  0  0  0  0
    2.7747    4.5208   36.5063 N   0  3  0  0  0  0  0  0  0  0  0  0
  1  2  1  6  0  0  0
  1  3  1  0  0  0  0
  1 10  1  0  0  0  0
  3  4  1  6  0  0  0
  3  5  1  0  0  0  0
  5  6  1  6  0  0  0
  5  7  1  0  0  0  0
  7  8  1  6  0  0  0
  7  9  1  0  0  0  0
  9 10  1  0  0  0  0
  9 11  1  1  0  0  0
 11 12  1  0  0  0  0
 13 14  1  6  0  0  0
 13 15  1  0  0  0  0
 13 22  1  0  0  0  0
 15 16  1  1  0  0  0
 15 17  1  0  0  0  0
 17 18  1  6  0  0  0
 17 19  1  0  0  0  0
 19  2  1  1  0  0  0
 19 20  1  0  0  0  0
 20 21  1  6  0  0  0
 20 22  1  0  0  0  0
 23 18  1  1  0  0  0
 23 24  1  0  0  0  0
 23 28  1  0  0  0  0
 24 25  1  6  0  0  0
 24 26  1  0  0  0  0
 26 27  1  0  0  0  0
 26 38  1  6  0  0  0
 27 28  1  0  0  0  0
 27 29  1  1  0  0  0
 29 30  1  0  0  0  0
 31 32  1  6  0  0  0
 31 33  1  0  0  0  0
 31 39  1  0  0  0  0
 33 34  1  1  0  0  0
 33 35  1  0  0  0  0
 35 36  1  6  0  0  0
 35 37  1  0  0  0  0
 37 38  1  6  0  0  0
 37 40  1  0  0  0  0
 39 40  1  0  0  0  0
 39 41  1  6  0  0  0
 41 42  1  0  0  0  0
M  CHG  5   4   1  14   1  21   1  36   1  42   1
M  END
>  <CHROM.1>
-65.90673662,136.14835498,52.68077288,-163.92832377,73.29583067,-92.93818106
154.78904098,-42.35904716,-60.20651496,-51.19056480,128.03787410,-72.28206444
-50.64081480,84.70678401,-168.78302747,-176.87476488,73.23587800,115.61004611
-157.19044421,-116.51016423,74.24533045,-173.21132641,2.80347316,-1.18623753
39.98933371,-2.24749446,-1.16093951,-1.76969076

>  <Name>
1pbr

>  <RI>
0

>  <Rbt.Current_Directory>
/home/itssahil/PROJECTS/Mol_Feturizer/New_Systems/rnas/1pbr

>  <Rbt.Executable>
rbdock ($Id: //depot/dev/client3/rdock/2013.1/src/exe/rbdock.cxx#4 $)

>  <Rbt.Library>
libRbt.so (2013.1, Build901 2013/11/27)

>  <Rbt.Parameter_File>
/export/apps/rDock/src/rDock_2013.1_src/data/scripts/dock_solv.prm

>  <Rbt.Receptor>
prm/pocket_docking_3.prm

>  <SCORE>
-27.8135

>  <SCORE.INTER>
-35.0318

>  <SCORE.INTER.CONST>
1

>  <SCORE.INTER.POLAR>
-5.6048

>  <SCORE.INTER.ROT>
9

>  <SCORE.INTER.SOLV>
35.2514

>  <SCORE.INTER.VDW>
-26.0223

>  <SCORE.INTER.norm>
-0.83409

>  <SCORE.INTRA>
6.79537

>  <SCORE.INTRA.DIHEDRAL>
13.4515

>  <SCORE.INTRA.DIHEDRAL.0>
29.7866

>  <SCORE.INTRA.POLAR>
-0.182576

>  <SCORE.INTRA.POLAR.0>
-0.984091

>  <SCORE.INTRA.REPUL>
-0.274115

>  <SCORE.INTRA.REPUL.0>
0.274115

>  <SCORE.INTRA.SOLV>
1.47897

>  <SCORE.INTRA.SOLV.lig_0>
-152.978

>  <SCORE.INTRA.VDW>
1.32146

>  <SCORE.INTRA.VDW.0>
-6.10719

>  <SCORE.INTRA.norm>
0.161794

>  <SCORE.RESTR>
0.422847

>  <SCORE.RESTR.CAVITY>
0.422847

>  <SCORE.RESTR.norm>
0.0100678

>  <SCORE.SYSTEM>
0

>  <SCORE.SYSTEM.CONST>
0

>  <SCORE.SYSTEM.DIHEDRAL>
0

>  <SCORE.SYSTEM.SOLV>
0

>  <SCORE.SYSTEM.norm>
0

>  <SCORE.heavy>
42

>  <SCORE.norm>
-0.662227

>  <RMSD>
2.941

$$$$
1pbr
 OpenBabel11021811403D
libRbt.so/2013.1/901 2013/11/27
 42 45  0  0  0  0  0  0  0  0999 V2000
    0.6149   -0.8979   44.1839 C   0  0  2  0  0  0  0  0  0  0  0  0
    0.9504   -2.2906   44.4100 O   0  0  0  0  0  0  0  0  0  0  0  0
    1.8719   -0.0943   43.6814 C   0  0  2  0  0  0  0  0  0  0  0  0
    2.7085   -0.8167   42.6882 N   0  3  0  0  0  0  0  0  0  0  0  0
    2.8095    0.2781   44.8453 C   0  0  1  0  0  0  0  0  0  0  0  0
    3.7922    1.2206   44.4219 O   0  0  0  0  0  0  0  0  0  0  0  0
    2.0186    0.8608   46.0263 C   0  0  2  0  0  0  0  0  0  0  0  0
    2.9054    1.2393   47.0744 O   0  0  0  0  0  0  0  0  0  0  0  0
    0.9319   -0.1300   46.4993 C   0  0  2  0  0  0  0  0  0  0  0  0
    0.0322   -0.3270   45.3880 O   0  0  0  0  0  0  0  0  0  0  0  0
    0.1087    0.3626   47.6883 C   0  0  0  0  0  0  0  0  0  0  0  0
   -0.9811   -0.5097   47.9570 O   0  0  0  0  0  0  0  0  0  0  0  0
   -0.5344   -6.1943   43.5357 C   0  0  1  0  0  0  0  0  0  0  0  0
   -1.2857   -7.3715   43.0630 N   0  3  0  0  0  0  0  0  0  0  0  0
    0.1822   -5.4448   42.3719 C   0  0  2  0  0  0  0  0  0  0  0  0
    1.0908   -6.3166   41.7034 O   0  0  0  0  0  0  0  0  0  0  0  0
    0.9782   -4.2144   42.8973 C   0  0  1  0  0  0  0  0  0  0  0  0
    1.4812   -3.4619   41.7537 O   0  0  0  0  0  0  0  0  0  0  0  0
    0.0956   -3.2794   43.7871 C   0  0  1  0  0  0  0  0  0  0  0  0
   -0.6597   -4.0518   44.9156 C   0  0  1  0  0  0  0  0  0  0  0  0
   -1.5618   -3.1592   45.6765 N   0  3  0  0  0  0  0  0  0  0  0  0
   -1.4720   -5.2315   44.3214 C   0  0  0  0  0  0  0  0  0  0  0  0
    2.0711   -4.1683   40.6157 C   0  0  1  0  0  0  0  0  0  0  0  0
    1.8395   -3.3327   39.3428 C   0  0  2  0  0  0  0  0  0  0  0  0
    1.8437   -4.1577   38.1811 O   0  0  0  0  0  0  0  0  0  0  0  0
    3.0793   -2.4288   39.4190 C   0  0  1  0  0  0  0  0  0  0  0  0
    4.1708   -3.4073   39.8199 C   0  0  2  0  0  0  0  0  0  0  0  0
    3.5011   -4.2371   40.7567 O   0  0  0  0  0  0  0  0  0  0  0  0
    5.4127   -2.7743   40.4606 C   0  0  0  0  0  0  0  0  0  0  0  0
    5.0663   -2.1621   41.6942 O   0  0  0  0  0  0  0  0  0  0  0  0
    4.5299    2.4314   37.9004 C   0  0  1  0  0  0  0  0  0  0  0  0
    3.4658    2.7873   37.0195 O   0  0  0  0  0  0  0  0  0  0  0  0
    3.9389    1.9577   39.2575 C   0  0  2  0  0  0  0  0  0  0  0  0
    4.9790    1.9654   40.2326 O   0  0  0  0  0  0  0  0  0  0  0  0
    3.2750    0.5417   39.2414 C   0  0  1  0  0  0  0  0  0  0  0  0
    1.8700    0.6375   38.7876 N   0  3  0  0  0  0  0  0  0  0  0  0
    4.1047   -0.4761   38.4153 C   0  0  1  0  0  0  0  0  0  0  0  0
    3.4326   -1.7394   38.1884 O   0  0  0  0  0  0  0  0  0  0  0  0
    5.3862    1.2997   37.2786 C   0  0  1  0  0  0  0  0  0  0  0  0
    4.5388    0.1254   37.1491 O   0  0  0  0  0  0  0  0  0  0  0  0
    6.0232    1.6714   35.9266 C   0  0  0  0  0  0  0  0  0  0  0  0
    6.9169    0.6172   35.4084 N   0  3  0  0  0  0  0  0  0  0  0  0
  1  2  1  1  0  0  0
  1  3  1  0  0  0  0
  1 10  1  0  0  0  0
  3  4  1  6  0  0  0
  3  5  1  0  0  0  0
  5  6  1  6  0  0  0
  5  7  1  0  0  0  0
  7  8  1  1  0  0  0
  7  9  1  0  0  0  0
  9 10  1  0  0  0  0
  9 11  1  1  0  0  0
 11 12  1  0  0  0  0
 13 14  1  6  0  0  0
 13 15  1  0  0  0  0
 13 22  1  0  0  0  0
 15 16  1  1  0  0  0
 15 17  1  0  0  0  0
 17 18  1  6  0  0  0
 17 19  1  0  0  0  0
 19  2  1  1  0  0  0
 19 20  1  0  0  0  0
 20 21  1  6  0  0  0
 20 22  1  0  0  0  0
 23 18  1  1  0  0  0
 23 24  1  0  0  0  0
 23 28  1  0  0  0  0
 24 25  1  6  0  0  0
 24 26  1  0  0  0  0
 26 27  1  0  0  0  0
 26 38  1  6  0  0  0
 27 28  1  0  0  0  0
 27 29  1  1  0  0  0
 29 30  1  0  0  0  0
 31 32  1  6  0  0  0
 31 33  1  0  0  0  0
 31 39  1  0  0  0  0
 33 34  1  1  0  0  0
 33 35  1  0  0  0  0
 35 36  1  6  0  0  0
 35 37  1  0  0  0  0
 37 38  1  6  0  0  0
 37 40  1  0  0  0  0
 39 40  1  0  0  0  0
 39 41  1  6  0  0  0
 41 42  1  0  0  0  0
M  CHG  5   4   1  14   1  21   1  36   1  42   1
M  END
>  <CHROM.1>
-128.76789841,123.91173641,150.27105377,-63.11398540,-54.52942661,172.18798927
-166.48393589,-45.32952958,67.64095034,-43.29348739,150.77167035,94.42405879
102.27816563,151.00466272,64.20428552,-72.49753066,-68.81370871,-41.83567660
80.32454064,-59.19789255,175.50940118,136.75688138,2.28190367,-1.53269844
41.75213160,-2.83836736,-1.01841965,-2.37422183

>  <Name>
1pbr

>  <RI>
0

>  <Rbt.Current_Directory>
/home/itssahil/PROJECTS/Mol_Feturizer/New_Systems/rnas/1pbr

>  <Rbt.Executable>
rbdock ($Id: //depot/dev/client3/rdock/2013.1/src/exe/rbdock.cxx#4 $)

>  <Rbt.Library>
libRbt.so (2013.1, Build901 2013/11/27)

>  <Rbt.Parameter_File>
/export/apps/rDock/src/rDock_2013.1_src/data/scripts/dock_solv.prm

>  <Rbt.Receptor>
prm/pocket_docking_3.prm

>  <SCORE>
-31.6509

>  <SCORE.INTER>
-37.5216

>  <SCORE.INTER.CONST>
1

>  <SCORE.INTER.POLAR>
-4.54979

>  <SCORE.INTER.ROT>
9

>  <SCORE.INTER.SOLV>
24.3804

>  <SCORE.INTER.VDW>
-27.5753

>  <SCORE.INTER.norm>
-0.893372

>  <SCORE.INTRA>
5.87075

>  <SCORE.INTRA.DIHEDRAL>
10.6011

>  <SCORE.INTRA.DIHEDRAL.0>
29.7866

>  <SCORE.INTRA.POLAR>
-0.91443

>  <SCORE.INTRA.POLAR.0>
-0.984091

>  <SCORE.INTRA.REPUL>
-0.27334

>  <SCORE.INTRA.REPUL.0>
0.274115

>  <SCORE.INTRA.SOLV>
7.4557

>  <SCORE.INTRA.SOLV.lig_0>
-152.978

>  <SCORE.INTRA.VDW>
1.31812

>  <SCORE.INTRA.VDW.0>
-6.10719

>  <SCORE.INTRA.norm>
0.13978

>  <SCORE.RESTR>
0

>  <SCORE.RESTR.CAVITY>
0

>  <SCORE.RESTR.norm>
0

>  <SCORE.SYSTEM>
0

>  <SCORE.SYSTEM.CONST>
0

>  <SCORE.SYSTEM.DIHEDRAL>
0

>  <SCORE.SYSTEM.SOLV>
0

>  <SCORE.SYSTEM.norm>
0

>  <SCORE.heavy>
42

>  <SCORE.norm>
-0.753593

>  <RMSD>
2.955

$$$$
1pbr
 OpenBabel11021811403D
libRbt.so/2013.1/901 2013/11/27
 42 45  0  0  0  0  0  0  0  0999 V2000
    3.2922   -0.9046   44.7833 C   0  0  2  0  0  0  0  0  0  0  0  0
    2.9910   -2.2798   45.1315 O   0  0  0  0  0  0  0  0  0  0  0  0
    2.7965    0.0786   45.9085 C   0  0  2  0  0  0  0  0  0  0  0  0
    3.0428   -0.3968   47.2947 N   0  3  0  0  0  0  0  0  0  0  0  0
    1.2822    0.3413   45.8054 C   0  0  1  0  0  0  0  0  0  0  0  0
    0.8977    1.4237   46.6503 O   0  0  0  0  0  0  0  0  0  0  0  0
    0.8735    0.6533   44.3579 C   0  0  2  0  0  0  0  0  0  0  0  0
   -0.5207    0.9359   44.2895 O   0  0  0  0  0  0  0  0  0  0  0  0
    1.2918   -0.4939   43.4117 C   0  0  2  0  0  0  0  0  0  0  0  0
    2.7304   -0.5892   43.4794 O   0  0  0  0  0  0  0  0  0  0  0  0
    0.9039   -0.2747   41.9504 C   0  0  0  0  0  0  0  0  0  0  0  0
   -0.5031   -0.1328   41.8067 O   0  0  0  0  0  0  0  0  0  0  0  0
    4.2366   -5.7865   43.0436 C   0  0  1  0  0  0  0  0  0  0  0  0
    4.4181   -6.9115   42.1081 N   0  3  0  0  0  0  0  0  0  0  0  0
    4.6318   -4.4196   42.4072 C   0  0  2  0  0  0  0  0  0  0  0  0
    5.9953   -4.4401   41.9912 O   0  0  0  0  0  0  0  0  0  0  0  0
    4.4438   -3.2502   43.4175 C   0  0  1  0  0  0  0  0  0  0  0  0
    4.6639   -1.9898   42.7176 O   0  0  0  0  0  0  0  0  0  0  0  0
    3.0161   -3.2481   44.0552 C   0  0  1  0  0  0  0  0  0  0  0  0
    2.6111   -4.6388   44.6406 C   0  0  1  0  0  0  0  0  0  0  0  0
    1.2205   -4.6325   45.1465 N   0  3  0  0  0  0  0  0  0  0  0  0
    2.7725   -5.7501   43.5713 C   0  0  0  0  0  0  0  0  0  0  0  0
    6.0231   -1.5755   42.3672 C   0  0  1  0  0  0  0  0  0  0  0  0
    6.2837   -1.9354   40.8925 C   0  0  2  0  0  0  0  0  0  0  0  0
    7.6763   -2.1091   40.6463 O   0  0  0  0  0  0  0  0  0  0  0  0
    5.7303   -0.6634   40.2326 C   0  0  1  0  0  0  0  0  0  0  0  0
    6.2748    0.4331   41.1331 C   0  0  2  0  0  0  0  0  0  0  0  0
    6.1392   -0.1428   42.4233 O   0  0  0  0  0  0  0  0  0  0  0  0
    5.5234    1.7689   41.0637 C   0  0  0  0  0  0  0  0  0  0  0  0
    4.8854    2.0341   42.3043 O   0  0  0  0  0  0  0  0  0  0  0  0
    3.3406   -0.6641   35.5608 C   0  0  1  0  0  0  0  0  0  0  0  0
    3.5729    0.6662   35.1014 O   0  0  0  0  0  0  0  0  0  0  0  0
    4.6483   -1.4927   35.4230 C   0  0  2  0  0  0  0  0  0  0  0  0
    4.3209   -2.8767   35.5224 O   0  0  0  0  0  0  0  0  0  0  0  0
    5.7635   -1.1633   36.4688 C   0  0  1  0  0  0  0  0  0  0  0  0
    6.5736   -0.0127   36.0118 N   0  3  0  0  0  0  0  0  0  0  0  0
    5.1793   -0.9588   37.8915 C   0  0  1  0  0  0  0  0  0  0  0  0
    6.1330   -0.4435   38.8527 O   0  0  0  0  0  0  0  0  0  0  0  0
    2.8839   -0.6490   37.0413 C   0  0  1  0  0  0  0  0  0  0  0  0
    3.9790   -0.1165   37.8356 O   0  0  0  0  0  0  0  0  0  0  0  0
    1.5881    0.1468   37.2855 C   0  0  0  0  0  0  0  0  0  0  0  0
    1.8380    1.5794   37.5378 N   0  3  0  0  0  0  0  0  0  0  0  0
  1  2  1  1  0  0  0
  1  3  1  0  0  0  0
  1 10  1  0  0  0  0
  3  4  1  1  0  0  0
  3  5  1  0  0  0  0
  5  6  1  1  0  0  0
  5  7  1  0  0  0  0
  7  8  1  1  0  0  0
  7  9  1  0  0  0  0
  9 10  1  0  0  0  0
  9 11  1  6  0  0  0
 11 12  1  0  0  0  0
 13 14  1  6  0  0  0
 13 15  1  0  0  0  0
 13 22  1  0  0  0  0
 15 16  1  1  0  0  0
 15 17  1  0  0  0  0
 17 18  1  6  0  0  0
 17 19  1  0  0  0  0
 19  2  1  1  0  0  0
 19 20  1  0  0  0  0
 20 21  1  6  0  0  0
 20 22  1  0  0  0  0
 23 18  1  6  0  0  0
 23 24  1  0  0  0  0
 23 28  1  0  0  0  0
 24 25  1  1  0  0  0
 24 26  1  0  0  0  0
 26 27  1  0  0  0  0
 26 38  1  6  0  0  0
 27 28  1  0  0  0  0
 27 29  1  1  0  0  0
 29 30  1  0  0  0  0
 31 32  1  1  0  0  0
 31 33  1  0  0  0  0
 31 39  1  0  0  0  0
 33 34  1  1  0  0  0
 33 35  1  0  0  0  0
 35 36  1  6  0  0  0
 35 37  1  0  0  0  0
 37 38  1  1  0  0  0
 37 40  1  0  0  0  0
 39 40  1  0  0  0  0
 39 41  1  6  0  0  0
 41 42  1  0  0  0  0
M  CHG  5   4   1  14   1  21   1  36   1  42   1
M  END
>  <CHROM.1>
162.17089488,59.34359144,48.68797504,-62.74088326,-179.72529772,-59.67787901
-77.99938608,64.59347762,-63.44254420,-74.84476225,98.62635250,-174.02930676
60.53818891,93.95912156,113.97078468,57.69024831,165.22806503,70.93546983
-148.03668071,-161.07567280,-87.73184362,179.72374640,3.68528916,-1.28190099
41.41418762,2.07163821,-0.94896080,2.11198385

>  <Name>
1pbr

>  <RI>
0

>  <Rbt.Current_Directory>
/home/itssahil/PROJECTS/Mol_Feturizer/New_Systems/rnas/1pbr

>  <Rbt.Executable>
rbdock ($Id: //depot/dev/client3/rdock/2013.1/src/exe/rbdock.cxx#4 $)

>  <Rbt.Library>
libRbt.so (2013.1, Build901 2013/11/27)

>  <Rbt.Parameter_File>
/export/apps/rDock/src/rDock_2013.1_src/data/scripts/dock_solv.prm

>  <Rbt.Receptor>
prm/pocket_docking_7.prm

>  <SCORE>
-28.7943

>  <SCORE.INTER>
-30.794

>  <SCORE.INTER.CONST>
1

>  <SCORE.INTER.POLAR>
-3.6369

>  <SCORE.INTER.ROT>
9

>  <SCORE.INTER.SOLV>
21.1972

>  <SCORE.INTER.VDW>
-25.0721

>  <SCORE.INTER.norm>
-0.73319

>  <SCORE.INTRA>
1.99968

>  <SCORE.INTRA.DIHEDRAL>
-2.4811

>  <SCORE.INTRA.DIHEDRAL.0>
29.7866

>  <SCORE.INTRA.POLAR>
0.517203

>  <SCORE.INTRA.POLAR.0>
-0.984091

>  <SCORE.INTRA.REPUL>
-0.000709079

>  <SCORE.INTRA.REPUL.0>
0.274115

>  <SCORE.INTRA.SOLV>
-1.81132

>  <SCORE.INTRA.SOLV.lig_0>
-152.978

>  <SCORE.INTRA.VDW>
2.39095

>  <SCORE.INTRA.VDW.0>
-6.10719

>  <SCORE.INTRA.norm>
0.0476114

>  <SCORE.RESTR>
0

>  <SCORE.RESTR.CAVITY>
0

>  <SCORE.RESTR.norm>
0

>  <SCORE.SYSTEM>
0

>  <SCORE.SYSTEM.CONST>
0

>  <SCORE.SYSTEM.DIHEDRAL>
0

>  <SCORE.SYSTEM.SOLV>
0

>  <SCORE.SYSTEM.norm>
0

>  <SCORE.heavy>
42

>  <SCORE.norm>
-0.685579

>  <RMSD>
2.983

$$$$
1pbr
 OpenBabel11021811403D
libRbt.so/2013.1/901 2013/11/27
 42 45  0  0  0  0  0  0  0  0999 V2000
    0.7960   -3.7483   43.4247 C   0  0  2  0  0  0  0  0  0  0  0  0
    0.6505   -3.2857   42.0580 O   0  0  0  0  0  0  0  0  0  0  0  0
    0.0322   -2.7983   44.4210 C   0  0  2  0  0  0  0  0  0  0  0  0
   -1.2976   -2.3417   43.9399 N   0  3  0  0  0  0  0  0  0  0  0  0
    0.8424   -1.5236   44.7230 C   0  0  1  0  0  0  0  0  0  0  0  0
    0.2706   -0.8074   45.8154 O   0  0  0  0  0  0  0  0  0  0  0  0
    2.3056   -1.8630   45.0449 C   0  0  2  0  0  0  0  0  0  0  0  0
    3.0278   -0.6776   45.3637 O   0  0  0  0  0  0  0  0  0  0  0  0
    2.9511   -2.6557   43.8867 C   0  0  2  0  0  0  0  0  0  0  0  0
    2.2061   -3.8848   43.7540 O   0  0  0  0  0  0  0  0  0  0  0  0
    4.4176   -3.0179   44.1153 C   0  0  0  0  0  0  0  0  0  0  0  0
    5.2173   -1.8533   44.2724 O   0  0  0  0  0  0  0  0  0  0  0  0
    3.0454   -6.4068   40.4055 C   0  0  1  0  0  0  0  0  0  0  0  0
    3.7120   -7.4031   39.5470 N   0  3  0  0  0  0  0  0  0  0  0  0
    3.4591   -4.9473   40.0471 C   0  0  2  0  0  0  0  0  0  0  0  0
    4.8688   -4.7824   40.1819 O   0  0  0  0  0  0  0  0  0  0  0  0
    2.7528   -3.9156   40.9747 C   0  0  1  0  0  0  0  0  0  0  0  0
    3.0436   -2.5730   40.4849 O   0  0  0  0  0  0  0  0  0  0  0  0
    1.2043   -4.1286   41.0190 C   0  0  1  0  0  0  0  0  0  0  0  0
    0.8038   -5.6073   41.3252 C   0  0  1  0  0  0  0  0  0  0  0  0
   -0.6622   -5.7984   41.2623 N   0  3  0  0  0  0  0  0  0  0  0  0
    1.4997   -6.5781   40.3364 C   0  0  0  0  0  0  0  0  0  0  0  0
    4.4089   -2.0501   40.5515 C   0  0  1  0  0  0  0  0  0  0  0  0
    4.6761   -1.2071   39.2905 C   0  0  2  0  0  0  0  0  0  0  0  0
    6.0688   -1.1579   38.9932 O   0  0  0  0  0  0  0  0  0  0  0  0
    4.1388    0.1442   39.7857 C   0  0  1  0  0  0  0  0  0  0  0  0
    4.6872    0.2129   41.2014 C   0  0  2  0  0  0  0  0  0  0  0  0
    4.5376   -1.1265   41.6468 O   0  0  0  0  0  0  0  0  0  0  0  0
    3.9484    1.1734   42.1424 C   0  0  0  0  0  0  0  0  0  0  0  0
    2.5464    0.9721   42.0417 O   0  0  0  0  0  0  0  0  0  0  0  0
    2.4330    3.0317   35.6678 C   0  0  1  0  0  0  0  0  0  0  0  0
    2.6077    4.3848   36.0839 O   0  0  0  0  0  0  0  0  0  0  0  0
    3.8215    2.4022   35.3650 C   0  0  2  0  0  0  0  0  0  0  0  0
    3.6237    1.2096   34.6093 O   0  0  0  0  0  0  0  0  0  0  0  0
    4.6917    2.0642   36.6197 C   0  0  1  0  0  0  0  0  0  0  0  0
    5.4497    3.2574   37.0565 N   0  3  0  0  0  0  0  0  0  0  0  0
    3.8443    1.4407   37.7598 C   0  0  1  0  0  0  0  0  0  0  0  0
    4.5529    1.3067   39.0164 O   0  0  0  0  0  0  0  0  0  0  0  0
    1.7191    2.2169   36.7756 C   0  0  1  0  0  0  0  0  0  0  0  0
    2.5943    2.1888   37.9362 O   0  0  0  0  0  0  0  0  0  0  0  0
    0.3266    2.7590   37.1484 C   0  0  0  0  0  0  0  0  0  0  0  0
    0.1768    2.9974   38.5972 N   0  3  0  0  0  0  0  0  0  0  0  0
  1  2  1  6  0  0  0
  1  3  1  0  0  0  0
  1 10  1  0  0  0  0
  3  4  1  6  0  0  0
  3  5  1  0  0  0  0
  5  6  1  1  0  0  0
  5  7  1  0  0  0  0
  7  8  1  6  0  0  0
  7  9  1  0  0  0  0
  9 10  1  0  0  0  0
  9 11  1  1  0  0  0
 11 12  1  0  0  0  0
 13 14  1  6  0  0  0
 13 15  1  0  0  0  0
 13 22  1  0  0  0  0
 15 16  1  1  0  0  0
 15 17  1  0  0  0  0
 17 18  1  6  0  0  0
 17 19  1  0  0  0  0
 19  2  1  1  0  0  0
 19 20  1  0  0  0  0
 20 21  1  6  0  0  0
 20 22  1  0  0  0  0
 23 18  1  6  0  0  0
 23 24  1  0  0  0  0
 23 28  1  0  0  0  0
 24 25  1  1  0  0  0
 24 26  1  0  0  0  0
 26 27  1  0  0  0  0
 26 38  1  6  0  0  0
 27 28  1  0  0  0  0
 27 29  1  1  0  0  0
 29 30  1  0  0  0  0
 31 32  1  1  0  0  0
 31 33  1  0  0  0  0
 31 39  1  0  0  0  0
 33 34  1  1  0  0  0
 33 35  1  0  0  0  0
 35 36  1  1  0  0  0
 35 37  1  0  0  0  0
 37 38  1  1  0  0  0
 37 40  1  0  0  0  0
 39 40  1  0  0  0  0
 39 41  1  1  0  0  0
 41 42  1  0  0  0  0
M  CHG  5   4   1  14   1  21   1  36   1  42   1
M  END
>  <CHROM.1>
-174.76888060,-78.13008740,-33.59312555,59.45080208,-173.28986350,-60.61462465
-66.91042829,67.57038284,155.04260799,-67.12798145,142.77698731,57.90719755
175.92540331,76.20575190,47.42891529,-66.29783504,57.10350752,61.04321114
-58.20663686,-147.14897403,-126.98180692,63.46451897,2.76295392,-1.25925887
40.59197753,2.11913220,-1.23965464,2.90358257

>  <Name>
1pbr

>  <RI>
0

>  <Rbt.Current_Directory>
/home/itssahil/PROJECTS/Mol_Feturizer/New_Systems/rnas/1pbr

>  <Rbt.Executable>
rbdock ($Id: //depot/dev/client3/rdock/2013.1/src/exe/rbdock.cxx#4 $)

>  <Rbt.Library>
libRbt.so (2013.1, Build901 2013/11/27)

>  <Rbt.Parameter_File>
/export/apps/rDock/src/rDock_2013.1_src/data/scripts/dock_solv.prm

>  <Rbt.Receptor>
prm/pocket_docking_4.prm

>  <SCORE>
-46.8628

>  <SCORE.INTER>
-41.336

>  <SCORE.INTER.CONST>
1

>  <SCORE.INTER.POLAR>
-7.47743

>  <SCORE.INTER.ROT>
9

>  <SCORE.INTER.SOLV>
29.6292

>  <SCORE.INTER.VDW>
-22.109

>  <SCORE.INTER.norm>
-0.98419

>  <SCORE.INTRA>
-5.52685

>  <SCORE.INTRA.DIHEDRAL>
-6.15569

>  <SCORE.INTRA.DIHEDRAL.0>
29.7866

>  <SCORE.INTRA.POLAR>
-0.552479

>  <SCORE.INTRA.POLAR.0>
-0.984091

>  <SCORE.INTRA.REPUL>
-0.274115

>  <SCORE.INTRA.REPUL.0>
0.274115

>  <SCORE.INTRA.SOLV>
-0.614403

>  <SCORE.INTRA.SOLV.lig_0>
-152.978

>  <SCORE.INTRA.VDW>
1.1072

>  <SCORE.INTRA.VDW.0>
-6.10719

>  <SCORE.INTRA.norm>
-0.131592

>  <SCORE.RESTR>
0

>  <SCORE.RESTR.CAVITY>
0

>  <SCORE.RESTR.norm>
0

>  <SCORE.SYSTEM>
0

>  <SCORE.SYSTEM.CONST>
0

>  <SCORE.SYSTEM.DIHEDRAL>
0

>  <SCORE.SYSTEM.SOLV>
0

>  <SCORE.SYSTEM.norm>
0

>  <SCORE.heavy>
42

>  <SCORE.norm>
-1.11578

>  <RMSD>
2.995

$$$$
1pbr
 OpenBabel11021811403D
libRbt.so/2013.1/901 2013/11/27
 42 45  0  0  0  0  0  0  0  0999 V2000
    1.0348   -1.3143   45.7160 C   0  0  2  0  0  0  0  0  0  0  0  0
    0.4831   -1.0007   44.4119 O   0  0  0  0  0  0  0  0  0  0  0  0
    0.7085   -0.1732   46.7503 C   0  0  2  0  0  0  0  0  0  0  0  0
   -0.6697    0.3736   46.6502 N   0  3  0  0  0  0  0  0  0  0  0  0
    1.6610    1.0266   46.5905 C   0  0  1  0  0  0  0  0  0  0  0  0
    1.5305    1.9263   47.6891 O   0  0  0  0  0  0  0  0  0  0  0  0
    3.1210    0.5615   46.4820 C   0  0  2  0  0  0  0  0  0  0  0  0
    3.9899    1.6853   46.3789 O   0  0  0  0  0  0  0  0  0  0  0  0
    3.2940   -0.4298   45.3099 C   0  0  2  0  0  0  0  0  0  0  0  0
    2.4615   -1.5723   45.6012 O   0  0  0  0  0  0  0  0  0  0  0  0
    4.7250   -0.9286   45.1163 C   0  0  0  0  0  0  0  0  0  0  0  0
    4.8364   -1.7342   43.9505 O   0  0  0  0  0  0  0  0  0  0  0  0
    0.4481   -5.0565   43.0861 C   0  0  1  0  0  0  0  0  0  0  0  0
    0.2055   -6.3424   42.4069 N   0  3  0  0  0  0  0  0  0  0  0  0
    1.1695   -4.0281   42.1632 C   0  0  2  0  0  0  0  0  0  0  0  0
    2.4234   -4.5464   41.7254 O   0  0  0  0  0  0  0  0  0  0  0  0
    1.4257   -2.6843   42.9061 C   0  0  1  0  0  0  0  0  0  0  0  0
    1.9434   -1.7137   41.9485 O   0  0  0  0  0  0  0  0  0  0  0  0
    0.1252   -2.1202   43.5662 C   0  0  1  0  0  0  0  0  0  0  0  0
   -0.6171   -3.1776   44.4445 C   0  0  1  0  0  0  0  0  0  0  0  0
   -1.8928   -2.6467   44.9739 N   0  3  0  0  0  0  0  0  0  0  0  0
   -0.8868   -4.4707   43.6323 C   0  0  0  0  0  0  0  0  0  0  0  0
    2.0470   -0.3023   42.3213 C   0  0  1  0  0  0  0  0  0  0  0  0
    3.1984    0.3358   41.5218 C   0  0  2  0  0  0  0  0  0  0  0  0
    3.7302    1.4676   42.2046 O   0  0  0  0  0  0  0  0  0  0  0  0
    2.4228    0.7312   40.2561 C   0  0  1  0  0  0  0  0  0  0  0  0
    1.1338    1.2973   40.8284 C   0  0  2  0  0  0  0  0  0  0  0  0
    0.8694    0.4122   41.9061 O   0  0  0  0  0  0  0  0  0  0  0  0
   -0.0545    1.3263   39.8584 C   0  0  0  0  0  0  0  0  0  0  0  0
   -1.2500    1.6311   40.5614 O   0  0  0  0  0  0  0  0  0  0  0  0
    2.6984    2.2115   35.1201 C   0  0  1  0  0  0  0  0  0  0  0  0
    4.0910    2.4156   34.8880 O   0  0  0  0  0  0  0  0  0  0  0  0
    2.4732    0.7774   35.6753 C   0  0  2  0  0  0  0  0  0  0  0  0
    1.0902    0.4548   35.5504 O   0  0  0  0  0  0  0  0  0  0  0  0
    2.9086    0.5584   37.1613 C   0  0  1  0  0  0  0  0  0  0  0  0
    4.3520    0.2415   37.2331 N   0  3  0  0  0  0  0  0  0  0  0  0
    2.5116    1.7571   38.0626 C   0  0  1  0  0  0  0  0  0  0  0  0
    3.0756    1.7053   39.3961 O   0  0  0  0  0  0  0  0  0  0  0  0
    2.1641    3.2551   36.1331 C   0  0  1  0  0  0  0  0  0  0  0  0
    2.8383    3.0253   37.4005 O   0  0  0  0  0  0  0  0  0  0  0  0
    2.3370    4.7148   35.6735 C   0  0  0  0  0  0  0  0  0  0  0  0
    1.9105    4.9270   34.2765 N   0  3  0  0  0  0  0  0  0  0  0  0
  1  2  1  6  0  0  0
  1  3  1  0  0  0  0
  1 10  1  0  0  0  0
  3  4  1  6  0  0  0
  3  5  1  0  0  0  0
  5  6  1  1  0  0  0
  5  7  1  0  0  0  0
  7  8  1  6  0  0  0
  7  9  1  0  0  0  0
  9 10  1  0  0  0  0
  9 11  1  1  0  0  0
 11 12  1  0  0  0  0
 13 14  1  6  0  0  0
 13 15  1  0  0  0  0
 13 22  1  0  0  0  0
 15 16  1  1  0  0  0
 15 17  1  0  0  0  0
 17 18  1  6  0  0  0
 17 19  1  0  0  0  0
 19  2  1  1  0  0  0
 19 20  1  0  0  0  0
 20 21  1  6  0  0  0
 20 22  1  0  0  0  0
 23 18  1  6  0  0  0
 23 24  1  0  0  0  0
 23 28  1  0  0  0  0
 24 25  1  1  0  0  0
 24 26  1  0  0  0  0
 26 27  1  0  0  0  0
 26 38  1  1  0  0  0
 27 28  1  0  0  0  0
 27 29  1  6  0  0  0
 29 30  1  0  0  0  0
 31 32  1  1  0  0  0
 31 33  1  0  0  0  0
 31 39  1  0  0  0  0
 33 34  1  1  0  0  0
 33 35  1  0  0  0  0
 35 36  1  6  0  0  0
 35 37  1  0  0  0  0
 37 38  1  1  0  0  0
 37 40  1  0  0  0  0
 39 40  1  0  0  0  0
 39 41  1  6  0  0  0
 41 42  1  0  0  0  0
M  CHG  5   4   1  14   1  21   1  36   1  42   1
M  END
>  <CHROM.1>
-151.43683615,-79.12331287,78.35937304,-74.37319557,172.09517025,-174.51450805
-56.41137435,73.34721131,68.01328189,169.12834631,151.61080766,-154.13343800
-41.61613482,163.29742721,169.04984459,-166.51993698,62.67200018,-52.57250172
-162.82096537,-74.84190582,46.69552779,28.96779325,1.81200105,-0.11143010
41.58995353,-1.99000691,-1.23188514,-1.54922304

>  <Name>
1pbr

>  <RI>
0

>  <Rbt.Current_Directory>
/home/itssahil/PROJECTS/Mol_Feturizer/New_Systems/rnas/1pbr

>  <Rbt.Executable>
rbdock ($Id: //depot/dev/client3/rdock/2013.1/src/exe/rbdock.cxx#4 $)

>  <Rbt.Library>
libRbt.so (2013.1, Build901 2013/11/27)

>  <Rbt.Parameter_File>
/export/apps/rDock/src/rDock_2013.1_src/data/scripts/dock_solv.prm

>  <Rbt.Receptor>
prm/pocket_docking_3.prm

>  <SCORE>
-39.686

>  <SCORE.INTER>
-40.2855

>  <SCORE.INTER.CONST>
1

>  <SCORE.INTER.POLAR>
-5.67266

>  <SCORE.INTER.ROT>
9

>  <SCORE.INTER.SOLV>
31.0931

>  <SCORE.INTER.VDW>
-27.9125

>  <SCORE.INTER.norm>
-0.959178

>  <SCORE.INTRA>
0.140274

>  <SCORE.INTRA.DIHEDRAL>
-7.71361

>  <SCORE.INTRA.DIHEDRAL.0>
29.7866

>  <SCORE.INTRA.POLAR>
0.957791

>  <SCORE.INTRA.POLAR.0>
-0.984091

>  <SCORE.INTRA.REPUL>
-0.240584

>  <SCORE.INTRA.REPUL.0>
0.274115

>  <SCORE.INTRA.SOLV>
0.503459

>  <SCORE.INTRA.SOLV.lig_0>
-152.978

>  <SCORE.INTRA.VDW>
1.69178

>  <SCORE.INTRA.VDW.0>
-6.10719

>  <SCORE.INTRA.norm>
0.00333985

>  <SCORE.RESTR>
0.459203

>  <SCORE.RESTR.CAVITY>
0.459203

>  <SCORE.RESTR.norm>
0.0109334

>  <SCORE.SYSTEM>
0

>  <SCORE.SYSTEM.CONST>
0

>  <SCORE.SYSTEM.DIHEDRAL>
0

>  <SCORE.SYSTEM.SOLV>
0

>  <SCORE.SYSTEM.norm>
0

>  <SCORE.heavy>
42

>  <SCORE.norm>
-0.944905

>  <RMSD>
3.119

$$$$
1pbr
 OpenBabel11021811403D
libRbt.so/2013.1/901 2013/11/27
 42 45  0  0  0  0  0  0  0  0999 V2000
    0.5683   -2.9368   43.8340 C   0  0  2  0  0  0  0  0  0  0  0  0
    0.3677   -2.6864   42.4197 O   0  0  0  0  0  0  0  0  0  0  0  0
   -0.4542   -2.1093   44.6989 C   0  0  2  0  0  0  0  0  0  0  0  0
   -1.8348   -2.0699   44.1506 N   0  3  0  0  0  0  0  0  0  0  0  0
   -0.0097   -0.6427   44.8537 C   0  0  1  0  0  0  0  0  0  0  0  0
   -0.7912    0.0211   45.8446 O   0  0  0  0  0  0  0  0  0  0  0  0
    1.4766   -0.5534   45.2314 C   0  0  2  0  0  0  0  0  0  0  0  0
    1.8582    0.8066   45.4127 O   0  0  0  0  0  0  0  0  0  0  0  0
    2.3517   -1.2791   44.1853 C   0  0  2  0  0  0  0  0  0  0  0  0
    1.9513   -2.6658   44.1938 O   0  0  0  0  0  0  0  0  0  0  0  0
    3.8509   -1.2214   44.4731 C   0  0  0  0  0  0  0  0  0  0  0  0
    4.1408   -1.6761   45.7884 O   0  0  0  0  0  0  0  0  0  0  0  0
    2.4956   -6.1872   41.2261 C   0  0  1  0  0  0  0  0  0  0  0  0
    3.1233   -7.3089   40.5038 N   0  3  0  0  0  0  0  0  0  0  0  0
    3.1566   -4.8186   40.8803 C   0  0  2  0  0  0  0  0  0  0  0  0
    4.5444   -4.8397   41.2060 O   0  0  0  0  0  0  0  0  0  0  0  0
    2.4857   -3.6528   41.6641 C   0  0  1  0  0  0  0  0  0  0  0  0
    3.0271   -2.3900   41.1750 O   0  0  0  0  0  0  0  0  0  0  0  0
    0.9308   -3.6507   41.4978 C   0  0  1  0  0  0  0  0  0  0  0  0
    0.2871   -5.0429   41.7945 C   0  0  1  0  0  0  0  0  0  0  0  0
   -1.1693   -5.0361   41.5329 N   0  3  0  0  0  0  0  0  0  0  0  0
    0.9646   -6.1503   40.9465 C   0  0  0  0  0  0  0  0  0  0  0  0
    2.3704   -1.6924   40.0687 C   0  0  1  0  0  0  0  0  0  0  0  0
    3.0304   -0.3116   39.8952 C   0  0  2  0  0  0  0  0  0  0  0  0
    2.1322    0.6124   39.2871 O   0  0  0  0  0  0  0  0  0  0  0  0
    4.1794   -0.7098   38.9566 C   0  0  1  0  0  0  0  0  0  0  0  0
    3.4905   -1.6481   37.9795 C   0  0  2  0  0  0  0  0  0  0  0  0
    2.6177   -2.3778   38.8283 O   0  0  0  0  0  0  0  0  0  0  0  0
    4.4226   -2.6043   37.2243 C   0  0  0  0  0  0  0  0  0  0  0  0
    3.7213   -3.7852   36.8639 O   0  0  0  0  0  0  0  0  0  0  0  0
    2.9247    3.4320   35.8433 C   0  0  1  0  0  0  0  0  0  0  0  0
    3.7897    4.4873   36.2592 O   0  0  0  0  0  0  0  0  0  0  0  0
    3.7514    2.3573   35.0835 C   0  0  2  0  0  0  0  0  0  0  0  0
    2.8514    1.5191   34.3622 O   0  0  0  0  0  0  0  0  0  0  0  0
    4.6667    1.4595   35.9790 C   0  0  1  0  0  0  0  0  0  0  0  0
    5.9639    2.1282   36.2218 N   0  3  0  0  0  0  0  0  0  0  0  0
    3.9550    1.0355   37.2907 C   0  0  1  0  0  0  0  0  0  0  0  0
    4.8242    0.3857   38.2505 O   0  0  0  0  0  0  0  0  0  0  0  0
    2.2329    2.7888   37.0714 C   0  0  1  0  0  0  0  0  0  0  0  0
    3.2676    2.1831   37.8939 O   0  0  0  0  0  0  0  0  0  0  0  0
    1.3816    3.7741   37.8939 C   0  0  0  0  0  0  0  0  0  0  0  0
   -0.0461    3.7433   37.5205 N   0  3  0  0  0  0  0  0  0  0  0  0
  1  2  1  6  0  0  0
  1  3  1  0  0  0  0
  1 10  1  0  0  0  0
  3  4  1  6  0  0  0
  3  5  1  0  0  0  0
  5  6  1  1  0  0  0
  5  7  1  0  0  0  0
  7  8  1  6  0  0  0
  7  9  1  0  0  0  0
  9 10  1  0  0  0  0
  9 11  1  1  0  0  0
 11 12  1  0  0  0  0
 13 14  1  6  0  0  0
 13 15  1  0  0  0  0
 13 22  1  0  0  0  0
 15 16  1  1  0  0  0
 15 17  1  0  0  0  0
 17 18  1  6  0  0  0
 17 19  1  0  0  0  0
 19  2  1  1  0  0  0
 19 20  1  0  0  0  0
 20 21  1  6  0  0  0
 20 22  1  0  0  0  0
 23 18  1  1  0  0  0
 23 24  1  0  0  0  0
 23 28  1  0  0  0  0
 24 25  1  6  0  0  0
 24 26  1  0  0  0  0
 26 27  1  0  0  0  0
 26 38  1  6  0  0  0
 27 28  1  0  0  0  0
 27 29  1  1  0  0  0
 29 30  1  0  0  0  0
 31 32  1  1  0  0  0
 31 33  1  0  0  0  0
 31 39  1  0  0  0  0
 33 34  1  1  0  0  0
 33 35  1  0  0  0  0
 35 36  1  1  0  0  0
 35 37  1  0  0  0  0
 37 38  1  1  0  0  0
 37 40  1  0  0  0  0
 39 40  1  0  0  0  0
 39 41  1  1  0  0  0
 41 42  1  0  0  0  0
M  CHG  5   4   1  14   1  21   1  36   1  42   1
M  END
>  <CHROM.1>
-161.73586356,-62.81374483,-170.04325737,170.50565195,-64.21007851,53.15925303
-174.60317427,81.36579174,65.11380961,90.70589129,172.23262946,-59.11286904
175.66283713,-66.48154859,152.57528959,-175.33524290,171.81876055,59.01089983
-89.65837480,-141.77092561,95.69938475,175.51075557,2.34972108,-1.15113401
40.38249470,2.25051319,-1.16071017,2.84686197

>  <Name>
1pbr

>  <RI>
0

>  <Rbt.Current_Directory>
/home/itssahil/PROJECTS/Mol_Feturizer/New_Systems/rnas/1pbr

>  <Rbt.Executable>
rbdock ($Id: //depot/dev/client3/rdock/2013.1/src/exe/rbdock.cxx#4 $)

>  <Rbt.Library>
libRbt.so (2013.1, Build901 2013/11/27)

>  <Rbt.Parameter_File>
/export/apps/rDock/src/rDock_2013.1_src/data/scripts/dock_solv.prm

>  <Rbt.Receptor>
prm/pocket_docking_3.prm

>  <SCORE>
-37.9055

>  <SCORE.INTER>
-37.2129

>  <SCORE.INTER.CONST>
1

>  <SCORE.INTER.POLAR>
-6.20049

>  <SCORE.INTER.ROT>
9

>  <SCORE.INTER.SOLV>
31.39

>  <SCORE.INTER.VDW>
-24.2036

>  <SCORE.INTER.norm>
-0.886021

>  <SCORE.INTRA>
-1.44805

>  <SCORE.INTRA.DIHEDRAL>
-7.8591

>  <SCORE.INTRA.DIHEDRAL.0>
29.7866

>  <SCORE.INTRA.POLAR>
0.271408

>  <SCORE.INTRA.POLAR.0>
-0.984091

>  <SCORE.INTRA.REPUL>
-0.274115

>  <SCORE.INTRA.REPUL.0>
0.274115

>  <SCORE.INTRA.SOLV>
-2.31307

>  <SCORE.INTRA.SOLV.lig_0>
-152.978

>  <SCORE.INTRA.VDW>
4.08582

>  <SCORE.INTRA.VDW.0>
-6.10719

>  <SCORE.INTRA.norm>
-0.0344774

>  <SCORE.RESTR>
0.755481

>  <SCORE.RESTR.CAVITY>
0.755481

>  <SCORE.RESTR.norm>
0.0179876

>  <SCORE.SYSTEM>
0

>  <SCORE.SYSTEM.CONST>
0

>  <SCORE.SYSTEM.DIHEDRAL>
0

>  <SCORE.SYSTEM.SOLV>
0

>  <SCORE.SYSTEM.norm>
0

>  <SCORE.heavy>
42

>  <SCORE.norm>
-0.902511

>  <RMSD>
3.175

$$$$
1pbr
 OpenBabel11021811403D
libRbt.so/2013.1/901 2013/11/27
 42 45  0  0  0  0  0  0  0  0999 V2000
    1.9524   -2.2196   44.9183 C   0  0  2  0  0  0  0  0  0  0  0  0
    1.6511   -1.8882   43.5390 O   0  0  0  0  0  0  0  0  0  0  0  0
    3.0848   -1.2836   45.4838 C   0  0  2  0  0  0  0  0  0  0  0  0
    2.9633    0.1421   45.0828 N   0  3  0  0  0  0  0  0  0  0  0  0
    4.4818   -1.7429   45.0255 C   0  0  1  0  0  0  0  0  0  0  0  0
    5.5022   -1.0583   45.7490 O   0  0  0  0  0  0  0  0  0  0  0  0
    4.6530   -3.2581   45.2112 C   0  0  2  0  0  0  0  0  0  0  0  0
    5.9641   -3.6570   44.8236 O   0  0  0  0  0  0  0  0  0  0  0  0
    3.5509   -4.0305   44.4527 C   0  0  2  0  0  0  0  0  0  0  0  0
    2.2885   -3.6305   45.0267 O   0  0  0  0  0  0  0  0  0  0  0  0
    3.6582   -5.5502   44.5669 C   0  0  0  0  0  0  0  0  0  0  0  0
    3.4079   -5.9858   45.8966 O   0  0  0  0  0  0  0  0  0  0  0  0
   -0.1596   -5.6343   42.5925 C   0  0  1  0  0  0  0  0  0  0  0  0
   -0.9644   -6.7420   42.0455 N   0  3  0  0  0  0  0  0  0  0  0  0
    0.8459   -5.0629   41.5474 C   0  0  2  0  0  0  0  0  0  0  0  0
    1.7350   -6.0845   41.1021 O   0  0  0  0  0  0  0  0  0  0  0  0
    1.6919   -3.9043   42.1519 C   0  0  1  0  0  0  0  0  0  0  0  0
    2.4860   -3.3024   41.0869 O   0  0  0  0  0  0  0  0  0  0  0  0
    0.7971   -2.8075   42.8163 C   0  0  1  0  0  0  0  0  0  0  0  0
   -0.2429   -3.3994   43.8206 C   0  0  1  0  0  0  0  0  0  0  0  0
   -1.1393   -2.3514   44.3569 N   0  3  0  0  0  0  0  0  0  0  0  0
   -1.0858   -4.5108   43.1432 C   0  0  0  0  0  0  0  0  0  0  0  0
    1.8251   -2.7625   39.8979 C   0  0  1  0  0  0  0  0  0  0  0  0
    2.3109   -1.3177   39.6769 C   0  0  2  0  0  0  0  0  0  0  0  0
    1.3462   -0.5582   38.9538 O   0  0  0  0  0  0  0  0  0  0  0  0
    3.5661   -1.6107   38.8412 C   0  0  1  0  0  0  0  0  0  0  0  0
    3.0767   -2.6863   37.8857 C   0  0  2  0  0  0  0  0  0  0  0  0
    2.2475   -3.4774   38.7232 O   0  0  0  0  0  0  0  0  0  0  0  0
    4.1767   -3.5500   37.2553 C   0  0  0  0  0  0  0  0  0  0  0  0
    5.4550   -3.0199   37.5735 O   0  0  0  0  0  0  0  0  0  0  0  0
    2.2107    2.1113   35.2174 C   0  0  1  0  0  0  0  0  0  0  0  0
    3.1079    3.2035   35.4091 O   0  0  0  0  0  0  0  0  0  0  0  0
    2.9944    0.8934   34.6532 C   0  0  2  0  0  0  0  0  0  0  0  0
    2.0584   -0.0415   34.1218 O   0  0  0  0  0  0  0  0  0  0  0  0
    3.9151    0.1554   35.6795 C   0  0  1  0  0  0  0  0  0  0  0  0
    5.2318    0.8249   35.7635 N   0  3  0  0  0  0  0  0  0  0  0  0
    3.2306    0.0012   37.0632 C   0  0  1  0  0  0  0  0  0  0  0  0
    4.1121   -0.4801   38.1074 O   0  0  0  0  0  0  0  0  0  0  0  0
    1.5394    1.7256   36.5595 C   0  0  1  0  0  0  0  0  0  0  0  0
    2.5833    1.2579   37.4569 O   0  0  0  0  0  0  0  0  0  0  0  0
    0.7309    2.8679   37.2026 C   0  0  0  0  0  0  0  0  0  0  0  0
    0.8029    2.8575   38.6768 N   0  3  0  0  0  0  0  0  0  0  0  0
  1  2  1  6  0  0  0
  1  3  1  0  0  0  0
  1 10  1  0  0  0  0
  3  4  1  6  0  0  0
  3  5  1  0  0  0  0
  5  6  1  1  0  0  0
  5  7  1  0  0  0  0
  7  8  1  6  0  0  0
  7  9  1  0  0  0  0
  9 10  1  0  0  0  0
  9 11  1  1  0  0  0
 11 12  1  0  0  0  0
 13 14  1  6  0  0  0
 13 15  1  0  0  0  0
 13 22  1  0  0  0  0
 15 16  1  1  0  0  0
 15 17  1  0  0  0  0
 17 18  1  6  0  0  0
 17 19  1  0  0  0  0
 19  2  1  1  0  0  0
 19 20  1  0  0  0  0
 20 21  1  6  0  0  0
 20 22  1  0  0  0  0
 23 18  1  1  0  0  0
 23 24  1  0  0  0  0
 23 28  1  0  0  0  0
 24 25  1  6  0  0  0
 24 26  1  0  0  0  0
 26 27  1  0  0  0  0
 26 38  1  6  0  0  0
 27 28  1  0  0  0  0
 27 29  1  1  0  0  0
 29 30  1  0  0  0  0
 31 32  1  1  0  0  0
 31 33  1  0  0  0  0
 31 39  1  0  0  0  0
 33 34  1  1  0  0  0
 33 35  1  0  0  0  0
 35 36  1  1  0  0  0
 35 37  1  0  0  0  0
 37 38  1  1  0  0  0
 37 40  1  0  0  0  0
 39 40  1  0  0  0  0
 39 41  1  1  0  0  0
 41 42  1  0  0  0  0
M  CHG  5   4   1  14   1  21   1  36   1  42   1
M  END
>  <CHROM.1>
169.72344615,-88.66437473,61.57260384,-74.13959087,-179.48865683,67.21124607
59.43501709,-48.12785402,-54.79281521,57.09034130,127.86079774,-89.68685631
176.61213216,-65.86707481,-8.12740230,-58.15563775,177.97375160,153.99454622
170.70396467,-129.37867767,-144.82637162,147.99955327,2.48757981,-1.92296110
40.69690447,-1.67728604,-1.03310414,-1.13795360

>  <Name>
1pbr

>  <RI>
0

>  <Rbt.Current_Directory>
/home/itssahil/PROJECTS/Mol_Feturizer/New_Systems/rnas/1pbr

>  <Rbt.Executable>
rbdock ($Id: //depot/dev/client3/rdock/2013.1/src/exe/rbdock.cxx#4 $)

>  <Rbt.Library>
libRbt.so (2013.1, Build901 2013/11/27)

>  <Rbt.Parameter_File>
/export/apps/rDock/src/rDock_2013.1_src/data/scripts/dock_solv.prm

>  <Rbt.Receptor>
prm/pocket_docking_5.prm

>  <SCORE>
-25.2843

>  <SCORE.INTER>
-32.171

>  <SCORE.INTER.CONST>
1

>  <SCORE.INTER.POLAR>
-5.10352

>  <SCORE.INTER.ROT>
9

>  <SCORE.INTER.SOLV>
22.3747

>  <SCORE.INTER.VDW>
-21.4938

>  <SCORE.INTER.norm>
-0.765976

>  <SCORE.INTRA>
6.88671

>  <SCORE.INTRA.DIHEDRAL>
5.31229

>  <SCORE.INTRA.DIHEDRAL.0>
29.7866

>  <SCORE.INTRA.POLAR>
0.0456603

>  <SCORE.INTRA.POLAR.0>
-0.984091

>  <SCORE.INTRA.REPUL>
-0.274115

>  <SCORE.INTRA.REPUL.0>
0.274115

>  <SCORE.INTRA.SOLV>
0.0584926

>  <SCORE.INTRA.SOLV.lig_0>
-152.978

>  <SCORE.INTRA.VDW>
5.41665

>  <SCORE.INTRA.VDW.0>
-6.10719

>  <SCORE.INTRA.norm>
0.163969

>  <SCORE.RESTR>
0

>  <SCORE.RESTR.CAVITY>
0

>  <SCORE.RESTR.norm>
0

>  <SCORE.SYSTEM>
0

>  <SCORE.SYSTEM.CONST>
0

>  <SCORE.SYSTEM.DIHEDRAL>
0

>  <SCORE.SYSTEM.SOLV>
0

>  <SCORE.SYSTEM.norm>
0

>  <SCORE.heavy>
42

>  <SCORE.norm>
-0.602007

>  <RMSD>
3.224

$$$$
1pbr
 OpenBabel11021811403D
libRbt.so/2013.1/901 2013/11/27
 42 45  0  0  0  0  0  0  0  0999 V2000
    3.1351   -1.8510   45.9805 C   0  0  2  0  0  0  0  0  0  0  0  0
    2.4718   -0.9008   45.1086 O   0  0  0  0  0  0  0  0  0  0  0  0
    4.1312   -1.1164   46.9534 C   0  0  2  0  0  0  0  0  0  0  0  0
    3.6149    0.1582   47.5167 N   0  3  0  0  0  0  0  0  0  0  0  0
    5.4584   -0.7714   46.2519 C   0  0  1  0  0  0  0  0  0  0  0  0
    6.4379   -0.3527   47.1999 O   0  0  0  0  0  0  0  0  0  0  0  0
    5.9941   -1.9749   45.4618 C   0  0  2  0  0  0  0  0  0  0  0  0
    7.2420   -1.6512   44.8567 O   0  0  0  0  0  0  0  0  0  0  0  0
    4.9484   -2.4653   44.4358 C   0  0  2  0  0  0  0  0  0  0  0  0
    3.7876   -2.8802   45.1866 O   0  0  0  0  0  0  0  0  0  0  0  0
    5.4085   -3.6508   43.5892 C   0  0  0  0  0  0  0  0  0  0  0  0
    4.3961   -4.0563   42.6774 O   0  0  0  0  0  0  0  0  0  0  0  0
   -0.2082   -3.8168   43.5204 C   0  0  1  0  0  0  0  0  0  0  0  0
   -1.2578   -4.5595   42.7988 N   0  3  0  0  0  0  0  0  0  0  0  0
    0.9223   -3.3188   42.5698 C   0  0  2  0  0  0  0  0  0  0  0  0
    1.5326   -4.4209   41.9022 O   0  0  0  0  0  0  0  0  0  0  0  0
    2.0239   -2.5495   43.3560 C   0  0  1  0  0  0  0  0  0  0  0  0
    2.9577   -1.9661   42.3996 O   0  0  0  0  0  0  0  0  0  0  0  0
    1.4242   -1.4179   44.2532 C   0  0  1  0  0  0  0  0  0  0  0  0
    0.2557   -1.9187   45.1612 C   0  0  1  0  0  0  0  0  0  0  0  0
   -0.3562   -0.8078   45.9233 N   0  3  0  0  0  0  0  0  0  0  0  0
   -0.8300   -2.6297   44.3125 C   0  0  0  0  0  0  0  0  0  0  0  0
    3.4266   -0.5916   42.5807 C   0  0  1  0  0  0  0  0  0  0  0  0
    4.5076   -0.2961   41.5242 C   0  0  2  0  0  0  0  0  0  0  0  0
    5.3884    0.7327   41.9669 O   0  0  0  0  0  0  0  0  0  0  0  0
    3.6007    0.1691   40.3750 C   0  0  1  0  0  0  0  0  0  0  0  0
    2.5967    1.0565   41.0921 C   0  0  2  0  0  0  0  0  0  0  0  0
    2.3678    0.3395   42.2955 O   0  0  0  0  0  0  0  0  0  0  0  0
    1.2751    1.2827   40.3465 C   0  0  0  0  0  0  0  0  0  0  0  0
    0.6839    0.0355   40.0132 O   0  0  0  0  0  0  0  0  0  0  0  0
    3.0303    1.7567   35.2532 C   0  0  1  0  0  0  0  0  0  0  0  0
    4.1212    2.6294   34.9651 O   0  0  0  0  0  0  0  0  0  0  0  0
    3.5732    0.3269   35.5298 C   0  0  2  0  0  0  0  0  0  0  0  0
    2.4885   -0.5944   35.4448 O   0  0  0  0  0  0  0  0  0  0  0  0
    4.2879    0.1367   36.9078 C   0  0  1  0  0  0  0  0  0  0  0  0
    5.7084    0.5389   36.8104 N   0  3  0  0  0  0  0  0  0  0  0  0
    3.5356    0.8627   38.0541 C   0  0  1  0  0  0  0  0  0  0  0  0
    4.2629    0.9002   39.3066 O   0  0  0  0  0  0  0  0  0  0  0  0
    2.2459    2.2669   36.4881 C   0  0  1  0  0  0  0  0  0  0  0  0
    3.1404    2.2117   37.6329 O   0  0  0  0  0  0  0  0  0  0  0  0
    1.6605    3.6808   36.3138 C   0  0  0  0  0  0  0  0  0  0  0  0
    0.7899    4.0797   37.4369 N   0  3  0  0  0  0  0  0  0  0  0  0
  1  2  1  6  0  0  0
  1  3  1  0  0  0  0
  1 10  1  0  0  0  0
  3  4  1  6  0  0  0
  3  5  1  0  0  0  0
  5  6  1  1  0  0  0
  5  7  1  0  0  0  0
  7  8  1  6  0  0  0
  7  9  1  0  0  0  0
  9 10  1  0  0  0  0
  9 11  1  1  0  0  0
 11 12  1  0  0  0  0
 13 14  1  6  0  0  0
 13 15  1  0  0  0  0
 13 22  1  0  0  0  0
 15 16  1  1  0  0  0
 15 17  1  0  0  0  0
 17 18  1  6  0  0  0
 17 19  1  0  0  0  0
 19  2  1  1  0  0  0
 19 20  1  0  0  0  0
 20 21  1  6  0  0  0
 20 22  1  0  0  0  0
 23 18  1  6  0  0  0
 23 24  1  0  0  0  0
 23 28  1  0  0  0  0
 24 25  1  1  0  0  0
 24 26  1  0  0  0  0
 26 27  1  0  0  0  0
 26 38  1  6  0  0  0
 27 28  1  0  0  0  0
 27 29  1  6  0  0  0
 29 30  1  0  0  0  0
 31 32  1  1  0  0  0
 31 33  1  0  0  0  0
 31 39  1  0  0  0  0
 33 34  1  1  0  0  0
 33 35  1  0  0  0  0
 35 36  1  6  0  0  0
 35 37  1  0  0  0  0
 37 38  1  1  0  0  0
 37 40  1  0  0  0  0
 39 40  1  0  0  0  0
 39 41  1  6  0  0  0
 41 42  1  0  0  0  0
M  CHG  5   4   1  14   1  21   1  36   1  42   1
M  END
>  <CHROM.1>
-173.79938826,-57.88513481,172.74649132,-42.22451795,178.38997551,179.48884514
179.86747372,-31.49516968,-146.34318572,136.32606108,173.91639264,-145.43584720
176.32092462,157.37454150,54.39334690,175.40878747,171.69863967,57.28650596
32.89973360,-116.00165269,173.34269424,87.04212902,3.01092792,-0.63736769
41.69305996,-1.54758111,-0.32451557,-1.16460341

>  <Name>
1pbr

>  <RI>
0

>  <Rbt.Current_Directory>
/home/itssahil/PROJECTS/Mol_Feturizer/New_Systems/rnas/1pbr

>  <Rbt.Executable>
rbdock ($Id: //depot/dev/client3/rdock/2013.1/src/exe/rbdock.cxx#4 $)

>  <Rbt.Library>
libRbt.so (2013.1, Build901 2013/11/27)

>  <Rbt.Parameter_File>
/export/apps/rDock/src/rDock_2013.1_src/data/scripts/dock_solv.prm

>  <Rbt.Receptor>
prm/pocket_docking_4.prm

>  <SCORE>
-29.5318

>  <SCORE.INTER>
-32.8163

>  <SCORE.INTER.CONST>
1

>  <SCORE.INTER.POLAR>
-5.12591

>  <SCORE.INTER.ROT>
9

>  <SCORE.INTER.SOLV>
25.8753

>  <SCORE.INTER.VDW>
-23.0163

>  <SCORE.INTER.norm>
-0.781341

>  <SCORE.INTRA>
3.26301

>  <SCORE.INTRA.DIHEDRAL>
0.360997

>  <SCORE.INTRA.DIHEDRAL.0>
29.7866

>  <SCORE.INTRA.POLAR>
-0.276462

>  <SCORE.INTRA.POLAR.0>
-0.984091

>  <SCORE.INTRA.REPUL>
-0.223896

>  <SCORE.INTRA.REPUL.0>
0.274115

>  <SCORE.INTRA.SOLV>
-1.63228

>  <SCORE.INTRA.SOLV.lig_0>
-152.978

>  <SCORE.INTRA.VDW>
5.9581

>  <SCORE.INTRA.VDW.0>
-6.10719

>  <SCORE.INTRA.norm>
0.0776906

>  <SCORE.RESTR>
0.0215545

>  <SCORE.RESTR.CAVITY>
0.0215545

>  <SCORE.RESTR.norm>
0.000513203

>  <SCORE.SYSTEM>
0

>  <SCORE.SYSTEM.CONST>
0

>  <SCORE.SYSTEM.DIHEDRAL>
0

>  <SCORE.SYSTEM.SOLV>
0

>  <SCORE.SYSTEM.norm>
0

>  <SCORE.heavy>
42

>  <SCORE.norm>
-0.703137

>  <RMSD>
3.245

$$$$
1pbr
 OpenBabel11021811403D
libRbt.so/2013.1/901 2013/11/27
 42 45  0  0  0  0  0  0  0  0999 V2000
    0.1621   -1.4403   45.7310 C   0  0  2  0  0  0  0  0  0  0  0  0
   -0.6542   -1.2627   44.5456 O   0  0  0  0  0  0  0  0  0  0  0  0
    0.2982   -0.0873   46.5242 C   0  0  2  0  0  0  0  0  0  0  0  0
   -0.9558    0.7053   46.6104 N   0  3  0  0  0  0  0  0  0  0  0  0
    1.3512    0.8396   45.8880 C   0  0  1  0  0  0  0  0  0  0  0  0
    1.6530    1.9318   46.7537 O   0  0  0  0  0  0  0  0  0  0  0  0
    2.6417    0.0706   45.5673 C   0  0  2  0  0  0  0  0  0  0  0  0
    3.6178    0.9520   45.0209 O   0  0  0  0  0  0  0  0  0  0  0  0
    2.3470   -1.1319   44.6435 C   0  0  2  0  0  0  0  0  0  0  0  0
    1.4515   -2.0046   45.3646 O   0  0  0  0  0  0  0  0  0  0  0  0
    3.5824   -1.9429   44.2561 C   0  0  0  0  0  0  0  0  0  0  0  0
    4.5264   -1.1417   43.5579 O   0  0  0  0  0  0  0  0  0  0  0  0
    0.1299   -5.0638   42.7722 C   0  0  1  0  0  0  0  0  0  0  0  0
    0.0745   -6.3576   42.0672 N   0  3  0  0  0  0  0  0  0  0  0  0
   -0.0018   -3.8543   41.7977 C   0  0  2  0  0  0  0  0  0  0  0  0
    1.0430   -3.8805   40.8280 O   0  0  0  0  0  0  0  0  0  0  0  0
    0.0723   -2.5008   42.5633 C   0  0  1  0  0  0  0  0  0  0  0  0
   -0.2257   -1.4205   41.6300 O   0  0  0  0  0  0  0  0  0  0  0  0
   -0.9333   -2.4463   43.7596 C   0  0  1  0  0  0  0  0  0  0  0  0
   -0.8282   -3.6911   44.6977 C   0  0  1  0  0  0  0  0  0  0  0  0
   -1.8569   -3.6599   45.7609 N   0  3  0  0  0  0  0  0  0  0  0  0
   -0.9601   -5.0032   43.8820 C   0  0  0  0  0  0  0  0  0  0  0  0
    0.1390   -0.0434   41.9649 C   0  0  1  0  0  0  0  0  0  0  0  0
    1.6550    0.1302   41.7555 C   0  0  2  0  0  0  0  0  0  0  0  0
    2.1672    1.1815   42.5696 O   0  0  0  0  0  0  0  0  0  0  0  0
    1.6517    0.4982   40.2640 C   0  0  1  0  0  0  0  0  0  0  0  0
    0.4851    1.4678   40.1711 C   0  0  2  0  0  0  0  0  0  0  0  0
   -0.4688    0.8742   41.0385 O   0  0  0  0  0  0  0  0  0  0  0  0
   -0.1078    1.6441   38.7672 C   0  0  0  0  0  0  0  0  0  0  0  0
   -0.9591    2.7802   38.7368 O   0  0  0  0  0  0  0  0  0  0  0  0
    4.1073    2.1909   35.7651 C   0  0  1  0  0  0  0  0  0  0  0  0
    5.3910    2.6789   36.1509 O   0  0  0  0  0  0  0  0  0  0  0  0
    4.0172    0.6718   36.0812 C   0  0  2  0  0  0  0  0  0  0  0  0
    2.9101    0.1252   35.3684 O   0  0  0  0  0  0  0  0  0  0  0  0
    3.8684    0.3103   37.5955 C   0  0  1  0  0  0  0  0  0  0  0  0
    5.1971    0.2550   38.2440 N   0  3  0  0  0  0  0  0  0  0  0  0
    2.8843    1.2636   38.3232 C   0  0  1  0  0  0  0  0  0  0  0  0
    2.8717    1.1114   39.7640 O   0  0  0  0  0  0  0  0  0  0  0  0
    2.9925    2.9512   36.5266 C   0  0  1  0  0  0  0  0  0  0  0  0
    3.1449    2.6565   37.9421 O   0  0  0  0  0  0  0  0  0  0  0  0
    2.9926    4.4710   36.2770 C   0  0  0  0  0  0  0  0  0  0  0  0
    2.0082    5.1860   37.1127 N   0  3  0  0  0  0  0  0  0  0  0  0
  1  2  1  6  0  0  0
  1  3  1  0  0  0  0
  1 10  1  0  0  0  0
  3  4  1  6  0  0  0
  3  5  1  0  0  0  0
  5  6  1  1  0  0  0
  5  7  1  0  0  0  0
  7  8  1  6  0  0  0
  7  9  1  0  0  0  0
  9 10  1  0  0  0  0
  9 11  1  1  0  0  0
 11 12  1  0  0  0  0
 13 14  1  6  0  0  0
 13 15  1  0  0  0  0
 13 22  1  0  0  0  0
 15 16  1  6  0  0  0
 15 17  1  0  0  0  0
 17 18  1  6  0  0  0
 17 19  1  0  0  0  0
 19  2  1  1  0  0  0
 19 20  1  0  0  0  0
 20 21  1  1  0  0  0
 20 22  1  0  0  0  0
 23 18  1  6  0  0  0
 23 24  1  0  0  0  0
 23 28  1  0  0  0  0
 24 25  1  1  0  0  0
 24 26  1  0  0  0  0
 26 27  1  0  0  0  0
 26 38  1  1  0  0  0
 27 28  1  0  0  0  0
 27 29  1  6  0  0  0
 29 30  1  0  0  0  0
 31 32  1  1  0  0  0
 31 33  1  0  0  0  0
 31 39  1  0  0  0  0
 33 34  1  6  0  0  0
 33 35  1  0  0  0  0
 35 36  1  1  0  0  0
 35 37  1  0  0  0  0
 37 38  1  1  0  0  0
 37 40  1  0  0  0  0
 39 40  1  0  0  0  0
 39 41  1  1  0  0  0
 41 42  1  0  0  0  0
M  CHG  5   4   1  14   1  21   1  36   1  42   1
M  END
>  <CHROM.1>
-176.35907275,-97.77963191,-75.87579298,-44.57969399,-51.89987529,-60.34623585
-172.47193920,-56.47312196,-61.49340132,-162.51398544,76.56904505,-27.84868376
-167.70610654,171.81830853,-166.34157073,66.85798155,-72.86493611,-56.50832584
-166.41615442,-109.05623563,-174.42101938,35.18760656,1.52872615,-0.20344224
41.53487616,-2.66623499,-1.21347199,-2.11757956

>  <Name>
1pbr

>  <RI>
0

>  <Rbt.Current_Directory>
/home/itssahil/PROJECTS/Mol_Feturizer/New_Systems/rnas/1pbr

>  <Rbt.Executable>
rbdock ($Id: //depot/dev/client3/rdock/2013.1/src/exe/rbdock.cxx#4 $)

>  <Rbt.Library>
libRbt.so (2013.1, Build901 2013/11/27)

>  <Rbt.Parameter_File>
/export/apps/rDock/src/rDock_2013.1_src/data/scripts/dock_solv.prm

>  <Rbt.Receptor>
prm/pocket_docking_3.prm

>  <SCORE>
-43.7828

>  <SCORE.INTER>
-41.9686

>  <SCORE.INTER.CONST>
1

>  <SCORE.INTER.POLAR>
-5.95752

>  <SCORE.INTER.ROT>
9

>  <SCORE.INTER.SOLV>
37.4762

>  <SCORE.INTER.VDW>
-30.2128

>  <SCORE.INTER.norm>
-0.999253

>  <SCORE.INTRA>
-1.81413

>  <SCORE.INTRA.DIHEDRAL>
-5.93126

>  <SCORE.INTRA.DIHEDRAL.0>
29.7866

>  <SCORE.INTRA.POLAR>
0.0166809

>  <SCORE.INTRA.POLAR.0>
-0.984091

>  <SCORE.INTRA.REPUL>
-0.202828

>  <SCORE.INTRA.REPUL.0>
0.274115

>  <SCORE.INTRA.SOLV>
-0.364205

>  <SCORE.INTRA.SOLV.lig_0>
-152.978

>  <SCORE.INTRA.VDW>
2.29102

>  <SCORE.INTRA.VDW.0>
-6.10719

>  <SCORE.INTRA.norm>
-0.0431937

>  <SCORE.RESTR>
0

>  <SCORE.RESTR.CAVITY>
0

>  <SCORE.RESTR.norm>
0

>  <SCORE.SYSTEM>
0

>  <SCORE.SYSTEM.CONST>
0

>  <SCORE.SYSTEM.DIHEDRAL>
0

>  <SCORE.SYSTEM.SOLV>
0

>  <SCORE.SYSTEM.norm>
0

>  <SCORE.heavy>
42

>  <SCORE.norm>
-1.04245

>  <RMSD>
3.305

$$$$
1pbr
 OpenBabel11021811403D
libRbt.so/2013.1/901 2013/11/27
 42 45  0  0  0  0  0  0  0  0999 V2000
    4.3007   -2.3531   43.0760 C   0  0  2  0  0  0  0  0  0  0  0  0
    3.6547   -3.6092   43.4047 O   0  0  0  0  0  0  0  0  0  0  0  0
    5.8671   -2.5094   43.0898 C   0  0  2  0  0  0  0  0  0  0  0  0
    6.3659   -3.7706   42.4824 N   0  3  0  0  0  0  0  0  0  0  0  0
    6.4285   -2.4700   44.5236 C   0  0  1  0  0  0  0  0  0  0  0  0
    7.8490   -2.3461   44.5077 O   0  0  0  0  0  0  0  0  0  0  0  0
    5.8232   -1.3052   45.3214 C   0  0  2  0  0  0  0  0  0  0  0  0
    6.3859   -1.2584   46.6289 O   0  0  0  0  0  0  0  0  0  0  0  0
    4.2815   -1.3998   45.3437 C   0  0  2  0  0  0  0  0  0  0  0  0
    3.8363   -1.3074   43.9738 O   0  0  0  0  0  0  0  0  0  0  0  0
    3.5962   -0.2879   46.1363 C   0  0  0  0  0  0  0  0  0  0  0  0
    3.8095   -0.4443   47.5329 O   0  0  0  0  0  0  0  0  0  0  0  0
   -0.2881   -5.1125   42.7699 C   0  0  1  0  0  0  0  0  0  0  0  0
   -1.7412   -5.3590   42.7312 N   0  3  0  0  0  0  0  0  0  0  0  0
    0.1199   -3.8559   41.9427 C   0  0  2  0  0  0  0  0  0  0  0  0
   -0.2719   -4.0083   40.5804 O   0  0  0  0  0  0  0  0  0  0  0  0
    1.6586   -3.6241   41.9884 C   0  0  1  0  0  0  0  0  0  0  0  0
    1.9573   -2.3499   41.3450 O   0  0  0  0  0  0  0  0  0  0  0  0
    2.2075   -3.6082   43.4526 C   0  0  1  0  0  0  0  0  0  0  0  0
    1.7461   -4.8458   44.2869 C   0  0  1  0  0  0  0  0  0  0  0  0
    2.1972   -4.7532   45.6931 N   0  3  0  0  0  0  0  0  0  0  0  0
    0.2028   -4.9908   44.2422 C   0  0  0  0  0  0  0  0  0  0  0  0
    1.6762   -1.0946   42.0429 C   0  0  1  0  0  0  0  0  0  0  0  0
    2.6049   -0.0007   41.4837 C   0  0  2  0  0  0  0  0  0  0  0  0
    2.8141    1.0326   42.4422 O   0  0  0  0  0  0  0  0  0  0  0  0
    1.7417    0.4676   40.3024 C   0  0  1  0  0  0  0  0  0  0  0  0
    0.3517    0.5159   40.9147 C   0  0  2  0  0  0  0  0  0  0  0  0
    0.3457   -0.6402   41.7381 O   0  0  0  0  0  0  0  0  0  0  0  0
   -0.8069    0.4613   39.9105 C   0  0  0  0  0  0  0  0  0  0  0  0
   -1.2046    1.7768   39.5533 O   0  0  0  0  0  0  0  0  0  0  0  0
    2.8883    2.5182   35.5528 C   0  0  1  0  0  0  0  0  0  0  0  0
    4.2163    2.9984   35.7545 O   0  0  0  0  0  0  0  0  0  0  0  0
    2.8075    1.0282   35.9876 C   0  0  2  0  0  0  0  0  0  0  0  0
    1.6164    0.4618   35.4462 O   0  0  0  0  0  0  0  0  0  0  0  0
    2.8263    0.7789   37.5314 C   0  0  1  0  0  0  0  0  0  0  0  0
    4.2192    0.7348   38.0283 N   0  3  0  0  0  0  0  0  0  0  0  0
    1.9493    1.8069   38.2936 C   0  0  1  0  0  0  0  0  0  0  0  0
    2.0989    1.7575   39.7338 O   0  0  0  0  0  0  0  0  0  0  0  0
    1.8819    3.3595   36.3773 C   0  0  1  0  0  0  0  0  0  0  0  0
    2.1898    3.1619   37.7844 O   0  0  0  0  0  0  0  0  0  0  0  0
    1.8808    4.8573   36.0184 C   0  0  0  0  0  0  0  0  0  0  0  0
    1.3799    5.7064   37.1170 N   0  3  0  0  0  0  0  0  0  0  0  0
  1  2  1  1  0  0  0
  1  3  1  0  0  0  0
  1 10  1  0  0  0  0
  3  4  1  1  0  0  0
  3  5  1  0  0  0  0
  5  6  1  6  0  0  0
  5  7  1  0  0  0  0
  7  8  1  1  0  0  0
  7  9  1  0  0  0  0
  9 10  1  0  0  0  0
  9 11  1  1  0  0  0
 11 12  1  0  0  0  0
 13 14  1  1  0  0  0
 13 15  1  0  0  0  0
 13 22  1  0  0  0  0
 15 16  1  6  0  0  0
 15 17  1  0  0  0  0
 17 18  1  1  0  0  0
 17 19  1  0  0  0  0
 19  2  1  6  0  0  0
 19 20  1  0  0  0  0
 20 21  1  1  0  0  0
 20 22  1  0  0  0  0
 23 18  1  6  0  0  0
 23 24  1  0  0  0  0
 23 28  1  0  0  0  0
 24 25  1  1  0  0  0
 24 26  1  0  0  0  0
 26 27  1  0  0  0  0
 26 38  1  1  0  0  0
 27 28  1  0  0  0  0
 27 29  1  6  0  0  0
 29 30  1  0  0  0  0
 31 32  1  1  0  0  0
 31 33  1  0  0  0  0
 31 39  1  0  0  0  0
 33 34  1  1  0  0  0
 33 35  1  0  0  0  0
 35 36  1  1  0  0  0
 35 37  1  0  0  0  0
 37 38  1  1  0  0  0
 37 40  1  0  0  0  0
 39 40  1  0  0  0  0
 39 41  1  6  0  0  0
 41 42  1  0  0  0  0
M  CHG  5   4   1  14   1  21   1  36   1  42   1
M  END
>  <CHROM.1>
178.95953287,76.89077026,57.86084874,-173.23887123,-59.12572839,-70.93534545
68.41960918,63.74362939,47.22657634,75.33525177,155.09418009,-62.48434361
-172.65815170,143.07149063,-92.57283783,-144.50781690,-64.50915407,-59.35744671
-33.48290121,-60.20451299,-156.33438705,19.16889630,2.57080202,-0.78495477
41.37114901,-1.38603626,-0.49709799,-0.83655529

>  <Name>
1pbr

>  <RI>
0

>  <Rbt.Current_Directory>
/home/itssahil/PROJECTS/Mol_Feturizer/New_Systems/rnas/1pbr

>  <Rbt.Executable>
rbdock ($Id: //depot/dev/client3/rdock/2013.1/src/exe/rbdock.cxx#4 $)

>  <Rbt.Library>
libRbt.so (2013.1, Build901 2013/11/27)

>  <Rbt.Parameter_File>
/export/apps/rDock/src/rDock_2013.1_src/data/scripts/dock_solv.prm

>  <Rbt.Receptor>
prm/pocket_docking_5.prm

>  <SCORE>
-37.8946

>  <SCORE.INTER>
-36.0983

>  <SCORE.INTER.CONST>
1

>  <SCORE.INTER.POLAR>
-5.73205

>  <SCORE.INTER.ROT>
9

>  <SCORE.INTER.SOLV>
26.9572

>  <SCORE.INTER.VDW>
-23.5444

>  <SCORE.INTER.norm>
-0.859482

>  <SCORE.INTRA>
-1.79635

>  <SCORE.INTRA.DIHEDRAL>
-3.34113

>  <SCORE.INTRA.DIHEDRAL.0>
29.7866

>  <SCORE.INTRA.POLAR>
0.469775

>  <SCORE.INTRA.POLAR.0>
-0.984091

>  <SCORE.INTRA.REPUL>
-0.274115

>  <SCORE.INTRA.REPUL.0>
0.274115

>  <SCORE.INTRA.SOLV>
-2.12652

>  <SCORE.INTRA.SOLV.lig_0>
-152.978

>  <SCORE.INTRA.VDW>
0.710811

>  <SCORE.INTRA.VDW.0>
-6.10719

>  <SCORE.INTRA.norm>
-0.0427703

>  <SCORE.RESTR>
0

>  <SCORE.RESTR.CAVITY>
0

>  <SCORE.RESTR.norm>
0

>  <SCORE.SYSTEM>
0

>  <SCORE.SYSTEM.CONST>
0

>  <SCORE.SYSTEM.DIHEDRAL>
0

>  <SCORE.SYSTEM.SOLV>
0

>  <SCORE.SYSTEM.norm>
0

>  <SCORE.heavy>
42

>  <SCORE.norm>
-0.902253

>  <RMSD>
3.316

$$$$
1pbr
 OpenBabel11021811403D
libRbt.so/2013.1/901 2013/11/27
 42 45  0  0  0  0  0  0  0  0999 V2000
    0.7290   -1.1567   45.8067 C   0  0  2  0  0  0  0  0  0  0  0  0
    0.4006   -0.5237   44.5439 O   0  0  0  0  0  0  0  0  0  0  0  0
    0.4960   -0.1649   47.0068 C   0  0  2  0  0  0  0  0  0  0  0  0
   -0.7386    0.6551   46.8977 N   0  3  0  0  0  0  0  0  0  0  0  0
    1.6625    0.8300   47.1552 C   0  0  1  0  0  0  0  0  0  0  0  0
    1.5692    1.5389   48.3889 O   0  0  0  0  0  0  0  0  0  0  0  0
    3.0163    0.1077   47.0824 C   0  0  2  0  0  0  0  0  0  0  0  0
    4.0807    1.0362   47.2651 O   0  0  0  0  0  0  0  0  0  0  0  0
    3.1431   -0.6857   45.7630 C   0  0  2  0  0  0  0  0  0  0  0  0
    2.0887   -1.6714   45.7640 O   0  0  0  0  0  0  0  0  0  0  0  0
    4.4725   -1.4203   45.5981 C   0  0  0  0  0  0  0  0  0  0  0  0
    4.5048   -2.1606   44.3851 O   0  0  0  0  0  0  0  0  0  0  0  0
    0.3295   -4.0919   42.2050 C   0  0  1  0  0  0  0  0  0  0  0  0
    0.0571   -5.1637   41.2298 N   0  3  0  0  0  0  0  0  0  0  0  0
    0.9655   -2.8347   41.5383 C   0  0  2  0  0  0  0  0  0  0  0  0
    2.1915   -3.1780   40.8968 O   0  0  0  0  0  0  0  0  0  0  0  0
    1.2552   -1.7232   42.5892 C   0  0  1  0  0  0  0  0  0  0  0  0
    1.6864   -0.5195   41.8875 O   0  0  0  0  0  0  0  0  0  0  0  0
   -0.0016   -1.3952   43.4598 C   0  0  1  0  0  0  0  0  0  0  0  0
   -0.6612   -2.6697   44.0773 C   0  0  1  0  0  0  0  0  0  0  0  0
   -1.9024   -2.3387   44.8118 N   0  3  0  0  0  0  0  0  0  0  0  0
   -0.9703   -3.7145   42.9740 C   0  0  0  0  0  0  0  0  0  0  0  0
    0.9918   -0.0932   40.6720 C   0  0  1  0  0  0  0  0  0  0  0  0
    1.1680    1.4283   40.5111 C   0  0  2  0  0  0  0  0  0  0  0  0
    0.1043    1.9889   39.7465 O   0  0  0  0  0  0  0  0  0  0  0  0
    2.5010    1.4372   39.7476 C   0  0  1  0  0  0  0  0  0  0  0  0
    2.3069    0.3145   38.7418 C   0  0  2  0  0  0  0  0  0  0  0  0
    1.6217   -0.6624   39.5106 O   0  0  0  0  0  0  0  0  0  0  0  0
    3.5996   -0.2739   38.1619 C   0  0  0  0  0  0  0  0  0  0  0  0
    3.2921   -1.2782   37.2062 O   0  0  0  0  0  0  0  0  0  0  0  0
    1.3713    4.3384   35.3565 C   0  0  1  0  0  0  0  0  0  0  0  0
    1.8613    5.6562   35.5979 O   0  0  0  0  0  0  0  0  0  0  0  0
    2.5693    3.3532   35.2579 C   0  0  2  0  0  0  0  0  0  0  0  0
    2.1131    2.1432   34.6575 O   0  0  0  0  0  0  0  0  0  0  0  0
    3.2674    3.0095   36.6145 C   0  0  1  0  0  0  0  0  0  0  0  0
    4.2801    4.0359   36.9463 N   0  3  0  0  0  0  0  0  0  0  0  0
    2.2385    2.7905   37.7547 C   0  0  1  0  0  0  0  0  0  0  0  0
    2.8315    2.6818   39.0721 O   0  0  0  0  0  0  0  0  0  0  0  0
    0.4249    3.8990   36.5018 C   0  0  1  0  0  0  0  0  0  0  0  0
    1.2101    3.8368   37.7239 O   0  0  0  0  0  0  0  0  0  0  0  0
   -0.8022    4.8123   36.6811 C   0  0  0  0  0  0  0  0  0  0  0  0
   -0.4383    6.1814   37.0952 N   0  3  0  0  0  0  0  0  0  0  0  0
  1  2  1  6  0  0  0
  1  3  1  0  0  0  0
  1 10  1  0  0  0  0
  3  4  1  6  0  0  0
  3  5  1  0  0  0  0
  5  6  1  1  0  0  0
  5  7  1  0  0  0  0
  7  8  1  6  0  0  0
  7  9  1  0  0  0  0
  9 10  1  0  0  0  0
  9 11  1  1  0  0  0
 11 12  1  0  0  0  0
 13 14  1  6  0  0  0
 13 15  1  0  0  0  0
 13 22  1  0  0  0  0
 15 16  1  1  0  0  0
 15 17  1  0  0  0  0
 17 18  1  6  0  0  0
 17 19  1  0  0  0  0
 19  2  1  1  0  0  0
 19 20  1  0  0  0  0
 20 21  1  6  0  0  0
 20 22  1  0  0  0  0
 23 18  1  1  0  0  0
 23 24  1  0  0  0  0
 23 28  1  0  0  0  0
 24 25  1  6  0  0  0
 24 26  1  0  0  0  0
 26 27  1  0  0  0  0
 26 38  1  6  0  0  0
 27 28  1  0  0  0  0
 27 29  1  1  0  0  0
 29 30  1  0  0  0  0
 31 32  1  1  0  0  0
 31 33  1  0  0  0  0
 31 39  1  0  0  0  0
 33 34  1  1  0  0  0
 33 35  1  0  0  0  0
 35 36  1  1  0  0  0
 35 37  1  0  0  0  0
 37 38  1  1  0  0  0
 37 40  1  0  0  0  0
 39 40  1  0  0  0  0
 39 41  1  1  0  0  0
 41 42  1  0  0  0  0
M  CHG  5   4   1  14   1  21   1  36   1  42   1
M  END
>  <CHROM.1>
-153.81957066,-94.51878817,-171.65551394,84.46429749,148.19910911,178.20382705
-51.77711161,-60.75963062,61.88201818,42.95722705,154.30112850,19.67898805
-162.92402767,-84.92913293,-178.05377258,-171.46601106,-48.74541613,-177.36777538
-152.17449530,-122.62435143,-64.54771224,-64.29048649,1.55596078,0.45665636
41.29625684,-2.03876824,-1.47079263,-1.55694915

>  <Name>
1pbr

>  <RI>
0

>  <Rbt.Current_Directory>
/home/itssahil/PROJECTS/Mol_Feturizer/New_Systems/rnas/1pbr

>  <Rbt.Executable>
rbdock ($Id: //depot/dev/client3/rdock/2013.1/src/exe/rbdock.cxx#4 $)

>  <Rbt.Library>
libRbt.so (2013.1, Build901 2013/11/27)

>  <Rbt.Parameter_File>
/export/apps/rDock/src/rDock_2013.1_src/data/scripts/dock_solv.prm

>  <Rbt.Receptor>
prm/pocket_docking_5.prm

>  <SCORE>
-33.5115

>  <SCORE.INTER>
-40.9474

>  <SCORE.INTER.CONST>
1

>  <SCORE.INTER.POLAR>
-5.84298

>  <SCORE.INTER.ROT>
9

>  <SCORE.INTER.SOLV>
38.842

>  <SCORE.INTER.VDW>
-30.369

>  <SCORE.INTER.norm>
-0.974939

>  <SCORE.INTRA>
7.3769

>  <SCORE.INTRA.DIHEDRAL>
5.71125

>  <SCORE.INTRA.DIHEDRAL.0>
29.7866

>  <SCORE.INTRA.POLAR>
-0.189791

>  <SCORE.INTRA.POLAR.0>
-0.984091

>  <SCORE.INTRA.REPUL>
-0.274115

>  <SCORE.INTRA.REPUL.0>
0.274115

>  <SCORE.INTRA.SOLV>
1.77546

>  <SCORE.INTRA.SOLV.lig_0>
-152.978

>  <SCORE.INTRA.VDW>
5.64941

>  <SCORE.INTRA.VDW.0>
-6.10719

>  <SCORE.INTRA.norm>
0.175641

>  <SCORE.RESTR>
0.0590121

>  <SCORE.RESTR.CAVITY>
0.0590121

>  <SCORE.RESTR.norm>
0.00140505

>  <SCORE.SYSTEM>
0

>  <SCORE.SYSTEM.CONST>
0

>  <SCORE.SYSTEM.DIHEDRAL>
0

>  <SCORE.SYSTEM.SOLV>
0

>  <SCORE.SYSTEM.norm>
0

>  <SCORE.heavy>
42

>  <SCORE.norm>
-0.797893

>  <RMSD>
3.331

$$$$
1pbr
 OpenBabel11021811403D
libRbt.so/2013.1/901 2013/11/27
 42 45  0  0  0  0  0  0  0  0999 V2000
    2.3678   -1.1134   44.4729 C   0  0  2  0  0  0  0  0  0  0  0  0
    2.9924   -2.2717   45.0824 O   0  0  0  0  0  0  0  0  0  0  0  0
    2.6177    0.1773   45.3388 C   0  0  2  0  0  0  0  0  0  0  0  0
    3.9924    0.2921   45.8911 N   0  3  0  0  0  0  0  0  0  0  0  0
    1.6616    0.2452   46.5446 C   0  0  1  0  0  0  0  0  0  0  0  0
    1.7152    1.5298   47.1613 O   0  0  0  0  0  0  0  0  0  0  0  0
    0.2165   -0.0579   46.1209 C   0  0  2  0  0  0  0  0  0  0  0  0
   -0.6584    0.0524   47.2392 O   0  0  0  0  0  0  0  0  0  0  0  0
    0.1260   -1.4379   45.4325 C   0  0  2  0  0  0  0  0  0  0  0  0
    0.9537   -1.3721   44.2518 O   0  0  0  0  0  0  0  0  0  0  0  0
   -1.2846   -1.8297   44.9958 C   0  0  0  0  0  0  0  0  0  0  0  0
   -1.3170   -3.1578   44.4902 O   0  0  0  0  0  0  0  0  0  0  0  0
    4.1618   -6.2457   44.0588 C   0  0  1  0  0  0  0  0  0  0  0  0
    4.3346   -7.5815   43.4592 N   0  3  0  0  0  0  0  0  0  0  0  0
    4.6661   -5.1077   43.1205 C   0  0  2  0  0  0  0  0  0  0  0  0
    6.0478   -5.2873   42.8186 O   0  0  0  0  0  0  0  0  0  0  0  0
    4.4850   -3.7093   43.7802 C   0  0  1  0  0  0  0  0  0  0  0  0
    4.8125   -2.6839   42.7962 O   0  0  0  0  0  0  0  0  0  0  0  0
    3.0257   -3.4872   44.2962 C   0  0  1  0  0  0  0  0  0  0  0  0
    2.5133   -4.6610   45.1906 C   0  0  1  0  0  0  0  0  0  0  0  0
    1.0987   -4.4706   45.5810 N   0  3  0  0  0  0  0  0  0  0  0  0
    2.6743   -6.0178   44.4573 C   0  0  0  0  0  0  0  0  0  0  0  0
    6.1551   -2.1022   42.7654 C   0  0  1  0  0  0  0  0  0  0  0  0
    6.6271   -2.0283   41.3012 C   0  0  2  0  0  0  0  0  0  0  0  0
    8.0497   -2.0371   41.2208 O   0  0  0  0  0  0  0  0  0  0  0  0
    6.0315   -0.6633   40.9245 C   0  0  1  0  0  0  0  0  0  0  0  0
    6.3493    0.1790   42.1490 C   0  0  2  0  0  0  0  0  0  0  0  0
    6.1178   -0.7346   43.2103 O   0  0  0  0  0  0  0  0  0  0  0  0
    5.4803    1.4311   42.3242 C   0  0  0  0  0  0  0  0  0  0  0  0
    4.3167    1.1157   43.0745 O   0  0  0  0  0  0  0  0  0  0  0  0
    5.7653   -0.8049   35.5445 C   0  0  1  0  0  0  0  0  0  0  0  0
    7.0075   -0.2853   35.0737 O   0  0  0  0  0  0  0  0  0  0  0  0
    6.0324   -2.0475   36.4391 C   0  0  2  0  0  0  0  0  0  0  0  0
    4.8113   -2.7673   36.5919 O   0  0  0  0  0  0  0  0  0  0  0  0
    6.6154   -1.7392   37.8571 C   0  0  1  0  0  0  0  0  0  0  0  0
    8.0874   -1.6069   37.7905 N   0  3  0  0  0  0  0  0  0  0  0  0
    5.9309   -0.5087   38.5084 C   0  0  1  0  0  0  0  0  0  0  0  0
    6.5738   -0.0496   39.7229 O   0  0  0  0  0  0  0  0  0  0  0  0
    5.0061    0.2728   36.3586 C   0  0  1  0  0  0  0  0  0  0  0  0
    5.8039    0.5814   37.5342 O   0  0  0  0  0  0  0  0  0  0  0  0
    4.6881    1.5494   35.5578 C   0  0  0  0  0  0  0  0  0  0  0  0
    4.6196    2.7537   36.4084 N   0  3  0  0  0  0  0  0  0  0  0  0
  1  2  1  1  0  0  0
  1  3  1  0  0  0  0
  1 10  1  0  0  0  0
  3  4  1  1  0  0  0
  3  5  1  0  0  0  0
  5  6  1  6  0  0  0
  5  7  1  0  0  0  0
  7  8  1  1  0  0  0
  7  9  1  0  0  0  0
  9 10  1  0  0  0  0
  9 11  1  6  0  0  0
 11 12  1  0  0  0  0
 13 14  1  6  0  0  0
 13 15  1  0  0  0  0
 13 22  1  0  0  0  0
 15 16  1  1  0  0  0
 15 17  1  0  0  0  0
 17 18  1  6  0  0  0
 17 19  1  0  0  0  0
 19  2  1  1  0  0  0
 19 20  1  0  0  0  0
 20 21  1  6  0  0  0
 20 22  1  0  0  0  0
 23 18  1  6  0  0  0
 23 24  1  0  0  0  0
 23 28  1  0  0  0  0
 24 25  1  1  0  0  0
 24 26  1  0  0  0  0
 26 27  1  0  0  0  0
 26 38  1  6  0  0  0
 27 28  1  0  0  0  0
 27 29  1  1  0  0  0
 29 30  1  0  0  0  0
 31 32  1  1  0  0  0
 31 33  1  0  0  0  0
 31 39  1  0  0  0  0
 33 34  1  1  0  0  0
 33 35  1  0  0  0  0
 35 36  1  6  0  0  0
 35 37  1  0  0  0  0
 37 38  1  1  0  0  0
 37 40  1  0  0  0  0
 39 40  1  0  0  0  0
 39 41  1  6  0  0  0
 41 42  1  0  0  0  0
M  CHG  5   4   1  14   1  21   1  36   1  42   1
M  END
>  <CHROM.1>
-170.63034367,105.94103540,-157.68360246,-173.48249720,-57.05880643,-174.33023267
-174.01599385,176.67124068,70.24362819,-95.71597001,135.36837838,-64.88997974
178.23104145,84.84825818,88.99965345,176.03836445,173.32730766,69.24133853
-72.79612672,-91.11274465,-150.86556552,117.01840852,4.07673927,-1.59765510
42.06678245,2.58563840,-0.95885321,2.69151880

>  <Name>
1pbr

>  <RI>
0

>  <Rbt.Current_Directory>
/home/itssahil/PROJECTS/Mol_Feturizer/New_Systems/rnas/1pbr

>  <Rbt.Executable>
rbdock ($Id: //depot/dev/client3/rdock/2013.1/src/exe/rbdock.cxx#4 $)

>  <Rbt.Library>
libRbt.so (2013.1, Build901 2013/11/27)

>  <Rbt.Parameter_File>
/export/apps/rDock/src/rDock_2013.1_src/data/scripts/dock_solv.prm

>  <Rbt.Receptor>
prm/pocket_docking_8.prm

>  <SCORE>
-35.5298

>  <SCORE.INTER>
-37.1072

>  <SCORE.INTER.CONST>
1

>  <SCORE.INTER.POLAR>
-5.29799

>  <SCORE.INTER.ROT>
9

>  <SCORE.INTER.SOLV>
25.4165

>  <SCORE.INTER.VDW>
-25.1503

>  <SCORE.INTER.norm>
-0.883504

>  <SCORE.INTRA>
1.57734

>  <SCORE.INTRA.DIHEDRAL>
6.7034

>  <SCORE.INTRA.DIHEDRAL.0>
29.7866

>  <SCORE.INTRA.POLAR>
-0.693163

>  <SCORE.INTRA.POLAR.0>
-0.984091

>  <SCORE.INTRA.REPUL>
-0.274115

>  <SCORE.INTRA.REPUL.0>
0.274115

>  <SCORE.INTRA.SOLV>
6.16587

>  <SCORE.INTRA.SOLV.lig_0>
-152.978

>  <SCORE.INTRA.VDW>
-1.12997

>  <SCORE.INTRA.VDW.0>
-6.10719

>  <SCORE.INTRA.norm>
0.0375557

>  <SCORE.RESTR>
0

>  <SCORE.RESTR.CAVITY>
0

>  <SCORE.RESTR.norm>
0

>  <SCORE.SYSTEM>
0

>  <SCORE.SYSTEM.CONST>
0

>  <SCORE.SYSTEM.DIHEDRAL>
0

>  <SCORE.SYSTEM.SOLV>
0

>  <SCORE.SYSTEM.norm>
0

>  <SCORE.heavy>
42

>  <SCORE.norm>
-0.845948

>  <RMSD>
3.350

$$$$
1pbr
 OpenBabel11021811403D
libRbt.so/2013.1/901 2013/11/27
 42 45  0  0  0  0  0  0  0  0999 V2000
    3.3824   -1.4349   46.0524 C   0  0  2  0  0  0  0  0  0  0  0  0
    2.8429   -0.4896   45.0940 O   0  0  0  0  0  0  0  0  0  0  0  0
    4.6335   -0.8294   46.7916 C   0  0  2  0  0  0  0  0  0  0  0  0
    4.4920    0.6000   47.1726 N   0  3  0  0  0  0  0  0  0  0  0  0
    5.9036   -0.9208   45.9248 C   0  0  1  0  0  0  0  0  0  0  0  0
    7.0648   -0.6181   46.6951 O   0  0  0  0  0  0  0  0  0  0  0  0
    6.0508   -2.3197   45.3074 C   0  0  2  0  0  0  0  0  0  0  0  0
    7.2517   -2.3984   44.5460 O   0  0  0  0  0  0  0  0  0  0  0  0
    4.7997   -2.6866   44.4788 C   0  0  2  0  0  0  0  0  0  0  0  0
    3.6810   -2.6952   45.3908 O   0  0  0  0  0  0  0  0  0  0  0  0
    4.8706   -4.0582   43.8096 C   0  0  0  0  0  0  0  0  0  0  0  0
    4.6957   -5.1032   44.7571 O   0  0  0  0  0  0  0  0  0  0  0  0
   -0.0943   -3.2100   43.6175 C   0  0  1  0  0  0  0  0  0  0  0  0
   -1.2484   -3.8684   42.9784 N   0  3  0  0  0  0  0  0  0  0  0  0
    0.9109   -2.6361   42.5735 C   0  0  2  0  0  0  0  0  0  0  0  0
    1.3999   -3.6761   41.7297 O   0  0  0  0  0  0  0  0  0  0  0  0
    2.1257   -1.9580   43.2720 C   0  0  1  0  0  0  0  0  0  0  0  0
    2.9372   -1.2963   42.2567 O   0  0  0  0  0  0  0  0  0  0  0  0
    1.6784   -0.9107   44.3435 C   0  0  1  0  0  0  0  0  0  0  0  0
    0.6298   -1.4829   45.3504 C   0  0  1  0  0  0  0  0  0  0  0  0
    0.1521   -0.4431   46.2885 N   0  3  0  0  0  0  0  0  0  0  0  0
   -0.5762   -2.0972   44.5936 C   0  0  0  0  0  0  0  0  0  0  0  0
    2.3762   -1.0297   40.9316 C   0  0  1  0  0  0  0  0  0  0  0  0
    2.3964    0.4903   40.6842 C   0  0  2  0  0  0  0  0  0  0  0  0
    1.3935    0.8697   39.7459 O   0  0  0  0  0  0  0  0  0  0  0  0
    3.8136    0.6217   40.1062 C   0  0  1  0  0  0  0  0  0  0  0  0
    3.8941   -0.5718   39.1688 C   0  0  2  0  0  0  0  0  0  0  0  0
    3.2249   -1.5811   39.9092 O   0  0  0  0  0  0  0  0  0  0  0  0
    5.3148   -1.0267   38.8106 C   0  0  0  0  0  0  0  0  0  0  0  0
    5.8522   -1.8182   39.8599 O   0  0  0  0  0  0  0  0  0  0  0  0
    2.4060    3.3427   35.6978 C   0  0  1  0  0  0  0  0  0  0  0  0
    2.6915    4.7145   35.9649 O   0  0  0  0  0  0  0  0  0  0  0  0
    3.7388    2.5508   35.5880 C   0  0  2  0  0  0  0  0  0  0  0  0
    3.4713    1.2971   34.9641 O   0  0  0  0  0  0  0  0  0  0  0  0
    4.4775    2.2914   36.9418 C   0  0  1  0  0  0  0  0  0  0  0  0
    5.3233    3.4522   37.2969 N   0  3  0  0  0  0  0  0  0  0  0  0
    3.4905    1.8995   38.0728 C   0  0  1  0  0  0  0  0  0  0  0  0
    4.0900    1.8573   39.3911 O   0  0  0  0  0  0  0  0  0  0  0  0
    1.5337    2.7452   36.8304 C   0  0  1  0  0  0  0  0  0  0  0  0
    2.3164    2.7796   38.0552 O   0  0  0  0  0  0  0  0  0  0  0  0
    0.1827    3.4601   37.0194 C   0  0  0  0  0  0  0  0  0  0  0  0
    0.3153    4.7546   37.7159 N   0  3  0  0  0  0  0  0  0  0  0  0
  1  2  1  6  0  0  0
  1  3  1  0  0  0  0
  1 10  1  0  0  0  0
  3  4  1  6  0  0  0
  3  5  1  0  0  0  0
  5  6  1  1  0  0  0
  5  7  1  0  0  0  0
  7  8  1  6  0  0  0
  7  9  1  0  0  0  0
  9 10  1  0  0  0  0
  9 11  1  1  0  0  0
 11 12  1  0  0  0  0
 13 14  1  6  0  0  0
 13 15  1  0  0  0  0
 13 22  1  0  0  0  0
 15 16  1  6  0  0  0
 15 17  1  0  0  0  0
 17 18  1  6  0  0  0
 17 19  1  0  0  0  0
 19  2  1  1  0  0  0
 19 20  1  0  0  0  0
 20 21  1  1  0  0  0
 20 22  1  0  0  0  0
 23 18  1  1  0  0  0
 23 24  1  0  0  0  0
 23 28  1  0  0  0  0
 24 25  1  6  0  0  0
 24 26  1  0  0  0  0
 26 27  1  0  0  0  0
 26 38  1  6  0  0  0
 27 28  1  0  0  0  0
 27 29  1  1  0  0  0
 29 30  1  0  0  0  0
 31 32  1  1  0  0  0
 31 33  1  0  0  0  0
 31 39  1  0  0  0  0
 33 34  1  1  0  0  0
 33 35  1  0  0  0  0
 35 36  1  1  0  0  0
 35 37  1  0  0  0  0
 37 38  1  1  0  0  0
 37 40  1  0  0  0  0
 39 40  1  0  0  0  0
 39 41  1  1  0  0  0
 41 42  1  0  0  0  0
M  CHG  5   4   1  14   1  21   1  36   1  42   1
M  END
>  <CHROM.1>
-179.58678534,-73.87454920,-87.36125664,54.92253602,175.35374179,74.15863296
-169.14166997,87.37713397,64.16020063,16.82823991,119.72002044,-177.57862617
-174.75085895,-75.51445017,80.22935947,-175.86402194,159.69230262,161.91557951
-47.80999407,-129.47430888,-76.27781721,66.81614413,3.10768192,-0.30669536
41.56209853,-1.49016359,-0.06509702,-1.03485629

>  <Name>
1pbr

>  <RI>
0

>  <Rbt.Current_Directory>
/home/itssahil/PROJECTS/Mol_Feturizer/New_Systems/rnas/1pbr

>  <Rbt.Executable>
rbdock ($Id: //depot/dev/client3/rdock/2013.1/src/exe/rbdock.cxx#4 $)

>  <Rbt.Library>
libRbt.so (2013.1, Build901 2013/11/27)

>  <Rbt.Parameter_File>
/export/apps/rDock/src/rDock_2013.1_src/data/scripts/dock_solv.prm

>  <Rbt.Receptor>
prm/pocket_docking_8.prm

>  <SCORE>
-30.7673

>  <SCORE.INTER>
-38.3095

>  <SCORE.INTER.CONST>
1

>  <SCORE.INTER.POLAR>
-6.57657

>  <SCORE.INTER.ROT>
9

>  <SCORE.INTER.SOLV>
36.7873

>  <SCORE.INTER.VDW>
-25.4802

>  <SCORE.INTER.norm>
-0.91213

>  <SCORE.INTRA>
7.54221

>  <SCORE.INTRA.DIHEDRAL>
3.58894

>  <SCORE.INTRA.DIHEDRAL.0>
29.7866

>  <SCORE.INTRA.POLAR>
0.434246

>  <SCORE.INTRA.POLAR.0>
-0.984091

>  <SCORE.INTRA.REPUL>
-0.240324

>  <SCORE.INTRA.REPUL.0>
0.274115

>  <SCORE.INTRA.SOLV>
0.267653

>  <SCORE.INTRA.SOLV.lig_0>
-152.978

>  <SCORE.INTRA.VDW>
5.3391

>  <SCORE.INTRA.VDW.0>
-6.10719

>  <SCORE.INTRA.norm>
0.179576

>  <SCORE.RESTR>
0

>  <SCORE.RESTR.CAVITY>
0

>  <SCORE.RESTR.norm>
0

>  <SCORE.SYSTEM>
0

>  <SCORE.SYSTEM.CONST>
0

>  <SCORE.SYSTEM.DIHEDRAL>
0

>  <SCORE.SYSTEM.SOLV>
0

>  <SCORE.SYSTEM.norm>
0

>  <SCORE.heavy>
42

>  <SCORE.norm>
-0.732554

>  <RMSD>
3.431

$$$$
1pbr
 OpenBabel11021811403D
libRbt.so/2013.1/901 2013/11/27
 42 45  0  0  0  0  0  0  0  0999 V2000
    3.6828   -3.1293   42.4228 C   0  0  2  0  0  0  0  0  0  0  0  0
    3.4761   -4.5639   42.4740 O   0  0  0  0  0  0  0  0  0  0  0  0
    4.2086   -2.5904   43.8053 C   0  0  2  0  0  0  0  0  0  0  0  0
    5.2272   -3.4545   44.4565 N   0  3  0  0  0  0  0  0  0  0  0  0
    3.0643   -2.4303   44.8240 C   0  0  1  0  0  0  0  0  0  0  0  0
    3.5034   -1.7009   45.9679 O   0  0  0  0  0  0  0  0  0  0  0  0
    1.8602   -1.7147   44.1934 C   0  0  2  0  0  0  0  0  0  0  0  0
    0.8304   -1.5370   45.1610 O   0  0  0  0  0  0  0  0  0  0  0  0
    1.3694   -2.4711   42.9390 C   0  0  2  0  0  0  0  0  0  0  0  0
    2.4605   -2.4677   41.9942 O   0  0  0  0  0  0  0  0  0  0  0  0
    0.1571   -1.8373   42.2587 C   0  0  0  0  0  0  0  0  0  0  0  0
    0.5252   -0.6735   41.5303 O   0  0  0  0  0  0  0  0  0  0  0  0
    3.4396   -7.5213   39.3983 C   0  0  1  0  0  0  0  0  0  0  0  0
    3.1548   -8.3711   38.2275 N   0  3  0  0  0  0  0  0  0  0  0  0
    3.9265   -6.0979   38.9902 C   0  0  2  0  0  0  0  0  0  0  0  0
    5.1110   -6.1843   38.2014 O   0  0  0  0  0  0  0  0  0  0  0  0
    4.2326   -5.2247   40.2421 C   0  0  1  0  0  0  0  0  0  0  0  0
    4.5166   -3.8633   39.8027 O   0  0  0  0  0  0  0  0  0  0  0  0
    3.0390   -5.2063   41.2522 C   0  0  1  0  0  0  0  0  0  0  0  0
    2.5253   -6.6376   41.6103 C   0  0  1  0  0  0  0  0  0  0  0  0
    1.3350   -6.5851   42.4877 N   0  3  0  0  0  0  0  0  0  0  0  0
    2.1909   -7.4362   40.3239 C   0  0  0  0  0  0  0  0  0  0  0  0
    3.4472   -3.0391   39.2380 C   0  0  1  0  0  0  0  0  0  0  0  0
    3.7544   -1.5598   39.5371 C   0  0  2  0  0  0  0  0  0  0  0  0
    2.5604   -0.7825   39.5554 O   0  0  0  0  0  0  0  0  0  0  0  0
    4.6349   -1.2453   38.3181 C   0  0  1  0  0  0  0  0  0  0  0  0
    3.8824   -1.9292   37.1886 C   0  0  2  0  0  0  0  0  0  0  0  0
    3.4485   -3.1332   37.8025 O   0  0  0  0  0  0  0  0  0  0  0  0
    4.7183   -2.2385   35.9399 C   0  0  0  0  0  0  0  0  0  0  0  0
    5.6859   -3.2348   36.2357 O   0  0  0  0  0  0  0  0  0  0  0  0
    1.8006    2.9402   36.6750 C   0  0  1  0  0  0  0  0  0  0  0  0
    2.2152    4.0109   37.5214 O   0  0  0  0  0  0  0  0  0  0  0  0
    2.9394    2.6061   35.6714 C   0  0  2  0  0  0  0  0  0  0  0  0
    2.3957    1.8191   34.6142 O   0  0  0  0  0  0  0  0  0  0  0  0
    4.1680    1.8529   36.2786 C   0  0  1  0  0  0  0  0  0  0  0  0
    5.1213    2.8171   36.8707 N   0  3  0  0  0  0  0  0  0  0  0  0
    3.7328    0.7485   37.2776 C   0  0  1  0  0  0  0  0  0  0  0  0
    4.8272    0.1665   38.0277 O   0  0  0  0  0  0  0  0  0  0  0  0
    1.4637    1.6864   37.5208 C   0  0  1  0  0  0  0  0  0  0  0  0
    2.6877    1.2536   38.1753 O   0  0  0  0  0  0  0  0  0  0  0  0
    0.3392    1.9121   38.5487 C   0  0  0  0  0  0  0  0  0  0  0  0
    0.7889    1.7082   39.9396 N   0  3  0  0  0  0  0  0  0  0  0  0
  1  2  1  1  0  0  0
  1  3  1  0  0  0  0
  1 10  1  0  0  0  0
  3  4  1  1  0  0  0
  3  5  1  0  0  0  0
  5  6  1  1  0  0  0
  5  7  1  0  0  0  0
  7  8  1  1  0  0  0
  7  9  1  0  0  0  0
  9 10  1  0  0  0  0
  9 11  1  6  0  0  0
 11 12  1  0  0  0  0
 13 14  1  6  0  0  0
 13 15  1  0  0  0  0
 13 22  1  0  0  0  0
 15 16  1  6  0  0  0
 15 17  1  0  0  0  0
 17 18  1  6  0  0  0
 17 19  1  0  0  0  0
 19  2  1  1  0  0  0
 19 20  1  0  0  0  0
 20 21  1  1  0  0  0
 20 22  1  0  0  0  0
 23 18  1  1  0  0  0
 23 24  1  0  0  0  0
 23 28  1  0  0  0  0
 24 25  1  6  0  0  0
 24 26  1  0  0  0  0
 26 27  1  0  0  0  0
 26 38  1  6  0  0  0
 27 28  1  0  0  0  0
 27 29  1  6  0  0  0
 29 30  1  0  0  0  0
 31 32  1  1  0  0  0
 31 33  1  0  0  0  0
 31 39  1  0  0  0  0
 33 34  1  6  0  0  0
 33 35  1  0  0  0  0
 35 36  1  1  0  0  0
 35 37  1  0  0  0  0
 37 38  1  1  0  0  0
 37 40  1  0  0  0  0
 39 40  1  0  0  0  0
 39 41  1  1  0  0  0
 41 42  1  0  0  0  0
M  CHG  5   4   1  14   1  21   1  36   1  42   1
M  END
>  <CHROM.1>
-177.76350179,71.75175362,-172.01789803,-172.04669150,-39.91096591,75.28778188
177.35131239,-170.51879363,78.14517451,68.73473627,150.87449547,178.62813099
67.80830641,-82.35406787,67.68871578,-66.95153085,-72.88674394,-58.84763213
55.55735907,-146.05542053,-118.58777531,61.34016433,3.05564482,-2.01325894
39.86191592,1.54717633,-1.24122394,2.46558408

>  <Name>
1pbr

>  <RI>
0

>  <Rbt.Current_Directory>
/home/itssahil/PROJECTS/Mol_Feturizer/New_Systems/rnas/1pbr

>  <Rbt.Executable>
rbdock ($Id: //depot/dev/client3/rdock/2013.1/src/exe/rbdock.cxx#4 $)

>  <Rbt.Library>
libRbt.so (2013.1, Build901 2013/11/27)

>  <Rbt.Parameter_File>
/export/apps/rDock/src/rDock_2013.1_src/data/scripts/dock_solv.prm

>  <Rbt.Receptor>
prm/pocket_docking_5.prm

>  <SCORE>
-37.8893

>  <SCORE.INTER>
-29.7218

>  <SCORE.INTER.CONST>
1

>  <SCORE.INTER.POLAR>
-5.22124

>  <SCORE.INTER.ROT>
9

>  <SCORE.INTER.SOLV>
23.7196

>  <SCORE.INTER.VDW>
-19.917

>  <SCORE.INTER.norm>
-0.707663

>  <SCORE.INTRA>
-8.16743

>  <SCORE.INTRA.DIHEDRAL>
-6.2794

>  <SCORE.INTRA.DIHEDRAL.0>
29.7866

>  <SCORE.INTRA.POLAR>
-2.30697

>  <SCORE.INTRA.POLAR.0>
-0.984091

>  <SCORE.INTRA.REPUL>
-0.243745

>  <SCORE.INTRA.REPUL.0>
0.274115

>  <SCORE.INTRA.SOLV>
4.76283

>  <SCORE.INTRA.SOLV.lig_0>
-152.978

>  <SCORE.INTRA.VDW>
1.65326

>  <SCORE.INTRA.VDW.0>
-6.10719

>  <SCORE.INTRA.norm>
-0.194463

>  <SCORE.RESTR>
0

>  <SCORE.RESTR.CAVITY>
0

>  <SCORE.RESTR.norm>
0

>  <SCORE.SYSTEM>
0

>  <SCORE.SYSTEM.CONST>
0

>  <SCORE.SYSTEM.DIHEDRAL>
0

>  <SCORE.SYSTEM.SOLV>
0

>  <SCORE.SYSTEM.norm>
0

>  <SCORE.heavy>
42

>  <SCORE.norm>
-0.902125

>  <RMSD>
3.478

$$$$
1pbr
 OpenBabel11021811403D
libRbt.so/2013.1/901 2013/11/27
 42 45  0  0  0  0  0  0  0  0999 V2000
    0.0662   -1.4799   45.7946 C   0  0  2  0  0  0  0  0  0  0  0  0
   -0.7658   -1.3402   44.6150 O   0  0  0  0  0  0  0  0  0  0  0  0
    0.2433   -0.0946   46.5212 C   0  0  2  0  0  0  0  0  0  0  0  0
   -0.9925    0.7278   46.5897 N   0  3  0  0  0  0  0  0  0  0  0  0
    1.3045    0.7790   45.8260 C   0  0  1  0  0  0  0  0  0  0  0  0
    1.6431    1.9036   46.6347 O   0  0  0  0  0  0  0  0  0  0  0  0
    2.5734   -0.0316   45.5216 C   0  0  2  0  0  0  0  0  0  0  0  0
    3.5583    0.8023   44.9194 O   0  0  0  0  0  0  0  0  0  0  0  0
    2.2386   -1.2693   44.6599 C   0  0  2  0  0  0  0  0  0  0  0  0
    1.3374   -2.0881   45.4349 O   0  0  0  0  0  0  0  0  0  0  0  0
    3.4505   -2.1237   44.2918 C   0  0  0  0  0  0  0  0  0  0  0  0
    4.2272   -1.5049   43.2748 O   0  0  0  0  0  0  0  0  0  0  0  0
    0.2682   -5.0690   42.8165 C   0  0  1  0  0  0  0  0  0  0  0  0
    0.3012   -6.3539   42.0941 N   0  3  0  0  0  0  0  0  0  0  0  0
    0.0991   -3.8547   41.8541 C   0  0  2  0  0  0  0  0  0  0  0  0
    1.1700   -3.8119   40.9140 O   0  0  0  0  0  0  0  0  0  0  0  0
    0.0798   -2.5101   42.6385 C   0  0  1  0  0  0  0  0  0  0  0  0
   -0.2496   -1.4340   41.7108 O   0  0  0  0  0  0  0  0  0  0  0  0
   -0.9597   -2.5257   43.8065 C   0  0  1  0  0  0  0  0  0  0  0  0
   -0.8142   -3.7763   44.7315 C   0  0  1  0  0  0  0  0  0  0  0  0
   -1.8720   -3.8146   45.7655 N   0  3  0  0  0  0  0  0  0  0  0  0
   -0.8536   -5.0819   43.8959 C   0  0  0  0  0  0  0  0  0  0  0  0
    0.1496   -0.0591   42.0143 C   0  0  1  0  0  0  0  0  0  0  0  0
    1.6825    0.0448   41.9060 C   0  0  2  0  0  0  0  0  0  0  0  0
    2.1816    1.1093   42.7107 O   0  0  0  0  0  0  0  0  0  0  0  0
    1.7980    0.3470   40.4043 C   0  0  1  0  0  0  0  0  0  0  0  0
    0.6832    1.3572   40.1894 C   0  0  2  0  0  0  0  0  0  0  0  0
   -0.3529    0.8405   41.0104 O   0  0  0  0  0  0  0  0  0  0  0  0
    0.1969    1.4954   38.7409 C   0  0  0  0  0  0  0  0  0  0  0  0
   -0.4786    2.7326   38.5696 O   0  0  0  0  0  0  0  0  0  0  0  0
    5.4006    0.2214   36.3857 C   0  0  1  0  0  0  0  0  0  0  0  0
    6.5447    0.9457   36.8344 O   0  0  0  0  0  0  0  0  0  0  0  0
    5.1739   -1.0078   37.3094 C   0  0  2  0  0  0  0  0  0  0  0  0
    4.2875   -1.9111   36.6529 O   0  0  0  0  0  0  0  0  0  0  0  0
    4.6015   -0.6832   38.7281 C   0  0  1  0  0  0  0  0  0  0  0  0
    5.6974   -0.3260   39.6556 N   0  3  0  0  0  0  0  0  0  0  0  0
    3.4889    0.3964   38.6692 C   0  0  1  0  0  0  0  0  0  0  0  0
    3.0748    0.8888   39.9674 O   0  0  0  0  0  0  0  0  0  0  0  0
    4.1465    1.1310   36.4075 C   0  0  1  0  0  0  0  0  0  0  0  0
    3.8929    1.5001   37.7906 O   0  0  0  0  0  0  0  0  0  0  0  0
    4.2683    2.3816   35.5168 C   0  0  0  0  0  0  0  0  0  0  0  0
    4.0375    3.6356   36.2602 N   0  3  0  0  0  0  0  0  0  0  0  0
  1  2  1  6  0  0  0
  1  3  1  0  0  0  0
  1 10  1  0  0  0  0
  3  4  1  6  0  0  0
  3  5  1  0  0  0  0
  5  6  1  1  0  0  0
  5  7  1  0  0  0  0
  7  8  1  6  0  0  0
  7  9  1  0  0  0  0
  9 10  1  0  0  0  0
  9 11  1  1  0  0  0
 11 12  1  0  0  0  0
 13 14  1  6  0  0  0
 13 15  1  0  0  0  0
 13 22  1  0  0  0  0
 15 16  1  6  0  0  0
 15 17  1  0  0  0  0
 17 18  1  6  0  0  0
 17 19  1  0  0  0  0
 19  2  1  1  0  0  0
 19 20  1  0  0  0  0
 20 21  1  1  0  0  0
 20 22  1  0  0  0  0
 23 18  1  6  0  0  0
 23 24  1  0  0  0  0
 23 28  1  0  0  0  0
 24 25  1  1  0  0  0
 24 26  1  0  0  0  0
 26 27  1  0  0  0  0
 26 38  1  1  0  0  0
 27 28  1  0  0  0  0
 27 29  1  6  0  0  0
 29 30  1  0  0  0  0
 31 32  1  1  0  0  0
 31 33  1  0  0  0  0
 31 39  1  0  0  0  0
 33 34  1  6  0  0  0
 33 35  1  0  0  0  0
 35 36  1  1  0  0  0
 35 37  1  0  0  0  0
 37 38  1  1  0  0  0
 37 40  1  0  0  0  0
 39 40  1  0  0  0  0
 39 41  1  6  0  0  0
 41 42  1  0  0  0  0
M  CHG  5   4   1  14   1  21   1  36   1  42   1
M  END
>  <CHROM.1>
176.95687699,-95.60019676,48.68788956,64.30543710,-52.45375155,-75.21632683
-171.46927006,-50.35866742,60.01728561,-156.52347407,69.28375845,30.35073852
-57.10093378,142.80862829,-160.09441749,-177.13326236,-57.18780521,-60.72523632
-154.45910746,-103.68867133,-124.36799294,141.33290405,1.84172423,-0.65622446
41.65867182,-2.97393532,-1.10180383,-2.57156516

>  <Name>
1pbr

>  <RI>
0

>  <Rbt.Current_Directory>
/home/itssahil/PROJECTS/Mol_Feturizer/New_Systems/rnas/1pbr

>  <Rbt.Executable>
rbdock ($Id: //depot/dev/client3/rdock/2013.1/src/exe/rbdock.cxx#4 $)

>  <Rbt.Library>
libRbt.so (2013.1, Build901 2013/11/27)

>  <Rbt.Parameter_File>
/export/apps/rDock/src/rDock_2013.1_src/data/scripts/dock_solv.prm

>  <Rbt.Receptor>
prm/pocket_docking_3.prm

>  <SCORE>
-36.0673

>  <SCORE.INTER>
-37.9639

>  <SCORE.INTER.CONST>
1

>  <SCORE.INTER.POLAR>
-5.85855

>  <SCORE.INTER.ROT>
9

>  <SCORE.INTER.SOLV>
34.8901

>  <SCORE.INTER.VDW>
-27.0108

>  <SCORE.INTER.norm>
-0.903902

>  <SCORE.INTRA>
1.87535

>  <SCORE.INTRA.DIHEDRAL>
3.64694

>  <SCORE.INTRA.DIHEDRAL.0>
29.7866

>  <SCORE.INTRA.POLAR>
-0.281961

>  <SCORE.INTRA.POLAR.0>
-0.984091

>  <SCORE.INTRA.REPUL>
-0.274115

>  <SCORE.INTRA.REPUL.0>
0.274115

>  <SCORE.INTRA.SOLV>
0.595115

>  <SCORE.INTRA.SOLV.lig_0>
-152.978

>  <SCORE.INTRA.VDW>
2.08356

>  <SCORE.INTRA.VDW.0>
-6.10719

>  <SCORE.INTRA.norm>
0.0446512

>  <SCORE.RESTR>
0.0212604

>  <SCORE.RESTR.CAVITY>
0.0212604

>  <SCORE.RESTR.norm>
0.0005062

>  <SCORE.SYSTEM>
0

>  <SCORE.SYSTEM.CONST>
0

>  <SCORE.SYSTEM.DIHEDRAL>
0

>  <SCORE.SYSTEM.SOLV>
0

>  <SCORE.SYSTEM.norm>
0

>  <SCORE.heavy>
42

>  <SCORE.norm>
-0.858745

>  <RMSD>
3.574

$$$$
1pbr
 OpenBabel11021811403D
libRbt.so/2013.1/901 2013/11/27
 42 45  0  0  0  0  0  0  0  0999 V2000
    2.7602   -2.9532   42.8468 C   0  0  2  0  0  0  0  0  0  0  0  0
    1.8610   -3.4183   43.8852 O   0  0  0  0  0  0  0  0  0  0  0  0
    4.2272   -2.8107   43.4000 C   0  0  2  0  0  0  0  0  0  0  0  0
    4.6558   -3.9121   44.3009 N   0  3  0  0  0  0  0  0  0  0  0  0
    4.4082   -1.5058   44.1980 C   0  0  1  0  0  0  0  0  0  0  0  0
    5.7879   -1.2621   44.4633 O   0  0  0  0  0  0  0  0  0  0  0  0
    3.8147   -0.3086   43.4402 C   0  0  2  0  0  0  0  0  0  0  0  0
    4.0300    0.8939   44.1723 O   0  0  0  0  0  0  0  0  0  0  0  0
    2.3223   -0.5481   43.1213 C   0  0  2  0  0  0  0  0  0  0  0  0
    2.2570   -1.7147   42.2739 O   0  0  0  0  0  0  0  0  0  0  0  0
    1.6453    0.6062   42.3842 C   0  0  0  0  0  0  0  0  0  0  0  0
    0.2645    0.3429   42.1726 O   0  0  0  0  0  0  0  0  0  0  0  0
   -1.3610   -6.1576   43.3174 C   0  0  1  0  0  0  0  0  0  0  0  0
   -2.6395   -6.8270   43.0151 N   0  3  0  0  0  0  0  0  0  0  0  0
   -0.6387   -5.6555   42.0306 C   0  0  2  0  0  0  0  0  0  0  0  0
   -0.3757   -6.7455   41.1501 O   0  0  0  0  0  0  0  0  0  0  0  0
    0.7132   -4.9644   42.3745 C   0  0  1  0  0  0  0  0  0  0  0  0
    1.2552   -4.3697   41.1581 O   0  0  0  0  0  0  0  0  0  0  0  0
    0.5464   -3.8562   43.4650 C   0  0  1  0  0  0  0  0  0  0  0  0
   -0.2271   -4.3578   44.7263 C   0  0  1  0  0  0  0  0  0  0  0  0
   -0.4562   -3.2633   45.6954 N   0  3  0  0  0  0  0  0  0  0  0  0
   -1.5845   -4.9882   44.3204 C   0  0  0  0  0  0  0  0  0  0  0  0
    1.7604   -5.2289   40.0864 C   0  0  1  0  0  0  0  0  0  0  0  0
    2.1715   -4.3423   38.8960 C   0  0  2  0  0  0  0  0  0  0  0  0
    2.1136   -5.0695   37.6720 O   0  0  0  0  0  0  0  0  0  0  0  0
    3.6146   -4.0268   39.3176 C   0  0  1  0  0  0  0  0  0  0  0  0
    4.1108   -5.3753   39.8125 C   0  0  2  0  0  0  0  0  0  0  0  0
    2.9752   -5.8801   40.4983 O   0  0  0  0  0  0  0  0  0  0  0  0
    5.3213   -5.3210   40.7535 C   0  0  0  0  0  0  0  0  0  0  0  0
    5.7924   -6.6342   41.0179 O   0  0  0  0  0  0  0  0  0  0  0  0
    4.1991    0.5697   36.8786 C   0  0  1  0  0  0  0  0  0  0  0  0
    5.5353    0.9216   37.2328 O   0  0  0  0  0  0  0  0  0  0  0  0
    4.2295   -0.5374   35.7882 C   0  0  2  0  0  0  0  0  0  0  0  0
    2.9409   -0.6132   35.1829 O   0  0  0  0  0  0  0  0  0  0  0  0
    4.6337   -1.9621   36.2910 C   0  0  1  0  0  0  0  0  0  0  0  0
    6.1065   -2.0998   36.3168 N   0  3  0  0  0  0  0  0  0  0  0  0
    3.9749   -2.3023   37.6538 C   0  0  1  0  0  0  0  0  0  0  0  0
    4.4797   -3.5139   38.2673 O   0  0  0  0  0  0  0  0  0  0  0  0
    3.4307    0.0580   38.1230 C   0  0  1  0  0  0  0  0  0  0  0  0
    4.0805   -1.1626   38.5720 O   0  0  0  0  0  0  0  0  0  0  0  0
    3.3400    1.0866   39.2657 C   0  0  0  0  0  0  0  0  0  0  0  0
    4.6328    1.2992   39.9453 N   0  3  0  0  0  0  0  0  0  0  0  0
  1  2  1  1  0  0  0
  1  3  1  0  0  0  0
  1 10  1  0  0  0  0
  3  4  1  1  0  0  0
  3  5  1  0  0  0  0
  5  6  1  6  0  0  0
  5  7  1  0  0  0  0
  7  8  1  1  0  0  0
  7  9  1  0  0  0  0
  9 10  1  0  0  0  0
  9 11  1  6  0  0  0
 11 12  1  0  0  0  0
 13 14  1  6  0  0  0
 13 15  1  0  0  0  0
 13 22  1  0  0  0  0
 15 16  1  6  0  0  0
 15 17  1  0  0  0  0
 17 18  1  6  0  0  0
 17 19  1  0  0  0  0
 19  2  1  1  0  0  0
 19 20  1  0  0  0  0
 20 21  1  1  0  0  0
 20 22  1  0  0  0  0
 23 18  1  1  0  0  0
 23 24  1  0  0  0  0
 23 28  1  0  0  0  0
 24 25  1  6  0  0  0
 24 26  1  0  0  0  0
 26 27  1  0  0  0  0
 26 38  1  6  0  0  0
 27 28  1  0  0  0  0
 27 29  1  1  0  0  0
 29 30  1  0  0  0  0
 31 32  1  1  0  0  0
 31 33  1  0  0  0  0
 31 39  1  0  0  0  0
 33 34  1  1  0  0  0
 33 35  1  0  0  0  0
 35 36  1  1  0  0  0
 35 37  1  0  0  0  0
 37 38  1  1  0  0  0
 37 40  1  0  0  0  0
 39 40  1  0  0  0  0
 39 41  1  1  0  0  0
 41 42  1  0  0  0  0
M  CHG  5   4   1  14   1  21   1  36   1  42   1
M  END
>  <CHROM.1>
-167.74214083,55.15171811,-43.46144273,171.45273082,-58.30008298,-177.57693994
176.15252445,-177.40131651,-58.48227703,-69.88526510,175.95354289,-176.95337394
71.54197560,57.75038776,-172.95070582,71.01798093,60.40712920,-58.96228776
-168.66286869,-163.28656649,-71.44252807,-72.91721153,2.70721263,-2.79539480
40.94380678,-2.80652858,-0.99706468,-2.16240690

>  <Name>
1pbr

>  <RI>
0

>  <Rbt.Current_Directory>
/home/itssahil/PROJECTS/Mol_Feturizer/New_Systems/rnas/1pbr

>  <Rbt.Executable>
rbdock ($Id: //depot/dev/client3/rdock/2013.1/src/exe/rbdock.cxx#4 $)

>  <Rbt.Library>
libRbt.so (2013.1, Build901 2013/11/27)

>  <Rbt.Parameter_File>
/export/apps/rDock/src/rDock_2013.1_src/data/scripts/dock_solv.prm

>  <Rbt.Receptor>
prm/pocket_docking_5.prm

>  <SCORE>
-39.6666

>  <SCORE.INTER>
-27.1503

>  <SCORE.INTER.CONST>
1

>  <SCORE.INTER.POLAR>
-4.3332

>  <SCORE.INTER.ROT>
9

>  <SCORE.INTER.SOLV>
25.2622

>  <SCORE.INTER.VDW>
-21.677

>  <SCORE.INTER.norm>
-0.646437

>  <SCORE.INTRA>
-12.5163

>  <SCORE.INTRA.DIHEDRAL>
-22.598

>  <SCORE.INTRA.DIHEDRAL.0>
29.7866

>  <SCORE.INTRA.POLAR>
0.221575

>  <SCORE.INTRA.POLAR.0>
-0.984091

>  <SCORE.INTRA.REPUL>
-0.255933

>  <SCORE.INTRA.REPUL.0>
0.274115

>  <SCORE.INTRA.SOLV>
-1.63456

>  <SCORE.INTRA.SOLV.lig_0>
-152.978

>  <SCORE.INTRA.VDW>
0.126306

>  <SCORE.INTRA.VDW.0>
-6.10719

>  <SCORE.INTRA.norm>
-0.298007

>  <SCORE.RESTR>
0

>  <SCORE.RESTR.CAVITY>
0

>  <SCORE.RESTR.norm>
0

>  <SCORE.SYSTEM>
0

>  <SCORE.SYSTEM.CONST>
0

>  <SCORE.SYSTEM.DIHEDRAL>
0

>  <SCORE.SYSTEM.SOLV>
0

>  <SCORE.SYSTEM.norm>
0

>  <SCORE.heavy>
42

>  <SCORE.norm>
-0.944444

>  <RMSD>
3.580

$$$$
1pbr
 OpenBabel11021811403D
libRbt.so/2013.1/901 2013/11/27
 42 45  0  0  0  0  0  0  0  0999 V2000
    2.6294   -3.1322   43.8927 C   0  0  2  0  0  0  0  0  0  0  0  0
    1.7155   -2.7224   42.8439 O   0  0  0  0  0  0  0  0  0  0  0  0
    2.8828   -1.9540   44.9055 C   0  0  2  0  0  0  0  0  0  0  0  0
    1.6695   -1.1708   45.2559 N   0  3  0  0  0  0  0  0  0  0  0  0
    3.9048   -0.9419   44.3541 C   0  0  1  0  0  0  0  0  0  0  0  0
    4.3208   -0.0362   45.3738 O   0  0  0  0  0  0  0  0  0  0  0  0
    5.1339   -1.6587   43.7752 C   0  0  2  0  0  0  0  0  0  0  0  0
    6.0859   -0.7068   43.3105 O   0  0  0  0  0  0  0  0  0  0  0  0
    4.7159   -2.6620   42.6775 C   0  0  2  0  0  0  0  0  0  0  0  0
    3.8603   -3.6392   43.3070 O   0  0  0  0  0  0  0  0  0  0  0  0
    5.8828   -3.4065   42.0309 C   0  0  0  0  0  0  0  0  0  0  0  0
    5.5333   -3.8912   40.7411 O   0  0  0  0  0  0  0  0  0  0  0  0
    0.0934   -6.6297   42.2873 C   0  0  1  0  0  0  0  0  0  0  0  0
   -0.6209   -7.8354   41.8289 N   0  3  0  0  0  0  0  0  0  0  0  0
    1.2100   -6.1908   41.2921 C   0  0  2  0  0  0  0  0  0  0  0  0
    2.1629   -7.2372   41.1203 O   0  0  0  0  0  0  0  0  0  0  0  0
    1.9574   -4.9247   41.8038 C   0  0  1  0  0  0  0  0  0  0  0  0
    2.8661   -4.4661   40.7593 O   0  0  0  0  0  0  0  0  0  0  0  0
    0.9709   -3.7706   42.1779 C   0  0  1  0  0  0  0  0  0  0  0  0
   -0.1746   -4.2372   43.1323 C   0  0  1  0  0  0  0  0  0  0  0  0
   -1.1463   -3.1510   43.3883 N   0  3  0  0  0  0  0  0  0  0  0  0
   -0.9108   -5.4678   42.5421 C   0  0  0  0  0  0  0  0  0  0  0  0
    2.3533   -3.6765   39.6389 C   0  0  1  0  0  0  0  0  0  0  0  0
    2.4917   -2.1820   39.9845 C   0  0  2  0  0  0  0  0  0  0  0  0
    1.5390   -1.4006   39.2690 O   0  0  0  0  0  0  0  0  0  0  0  0
    3.9261   -1.9510   39.4855 C   0  0  1  0  0  0  0  0  0  0  0  0
    3.9363   -2.7043   38.1657 C   0  0  2  0  0  0  0  0  0  0  0  0
    3.1790   -3.8640   38.4758 O   0  0  0  0  0  0  0  0  0  0  0  0
    5.3261   -3.0976   37.6485 C   0  0  0  0  0  0  0  0  0  0  0  0
    5.2317   -3.5805   36.3165 O   0  0  0  0  0  0  0  0  0  0  0  0
    3.5521    2.1288   35.9910 C   0  0  1  0  0  0  0  0  0  0  0  0
    4.6955    2.9488   36.2250 O   0  0  0  0  0  0  0  0  0  0  0  0
    4.0151    0.6908   35.6259 C   0  0  2  0  0  0  0  0  0  0  0  0
    2.9169   -0.0043   35.0398 O   0  0  0  0  0  0  0  0  0  0  0  0
    4.5692   -0.1574   36.8172 C   0  0  1  0  0  0  0  0  0  0  0  0
    6.0041    0.1326   37.0316 N   0  3  0  0  0  0  0  0  0  0  0  0
    3.7206    0.0282   38.1026 C   0  0  1  0  0  0  0  0  0  0  0  0
    4.3082   -0.5619   39.2882 O   0  0  0  0  0  0  0  0  0  0  0  0
    2.6549    2.0851   37.2535 C   0  0  1  0  0  0  0  0  0  0  0  0
    3.4173    1.4482   38.3150 O   0  0  0  0  0  0  0  0  0  0  0  0
    2.1380    3.4660   37.6985 C   0  0  0  0  0  0  0  0  0  0  0  0
    0.9312    3.3777   38.5437 N   0  3  0  0  0  0  0  0  0  0  0  0
  1  2  1  6  0  0  0
  1  3  1  0  0  0  0
  1 10  1  0  0  0  0
  3  4  1  6  0  0  0
  3  5  1  0  0  0  0
  5  6  1  1  0  0  0
  5  7  1  0  0  0  0
  7  8  1  6  0  0  0
  7  9  1  0  0  0  0
  9 10  1  0  0  0  0
  9 11  1  1  0  0  0
 11 12  1  0  0  0  0
 13 14  1  6  0  0  0
 13 15  1  0  0  0  0
 13 22  1  0  0  0  0
 15 16  1  1  0  0  0
 15 17  1  0  0  0  0
 17 18  1  6  0  0  0
 17 19  1  0  0  0  0
 19  2  1  1  0  0  0
 19 20  1  0  0  0  0
 20 21  1  6  0  0  0
 20 22  1  0  0  0  0
 23 18  1  1  0  0  0
 23 24  1  0  0  0  0
 23 28  1  0  0  0  0
 24 25  1  6  0  0  0
 24 26  1  0  0  0  0
 26 27  1  0  0  0  0
 26 38  1  6  0  0  0
 27 28  1  0  0  0  0
 27 29  1  1  0  0  0
 29 30  1  0  0  0  0
 31 32  1  1  0  0  0
 31 33  1  0  0  0  0
 31 39  1  0  0  0  0
 33 34  1  1  0  0  0
 33 35  1  0  0  0  0
 35 36  1  1  0  0  0
 35 37  1  0  0  0  0
 37 38  1  1  0  0  0
 37 40  1  0  0  0  0
 39 40  1  0  0  0  0
 39 41  1  1  0  0  0
 41 42  1  0  0  0  0
M  CHG  5   4   1  14   1  21   1  36   1  42   1
M  END
>  <CHROM.1>
-155.69269555,-46.87246124,-40.27737118,-178.26486760,-53.42244668,-157.28919439
-48.96389870,-41.98362753,71.37498832,80.12869271,92.82126201,46.86883981
179.26260428,-74.45714489,-169.89456112,-68.57978020,-177.02337347,-51.99262331
90.52308240,-88.73590142,158.60670230,-80.41544530,2.99442490,-2.04149145
40.40954222,-2.52881165,-1.23668474,-1.74628133

>  <Name>
1pbr

>  <RI>
0

>  <Rbt.Current_Directory>
/home/itssahil/PROJECTS/Mol_Feturizer/New_Systems/rnas/1pbr

>  <Rbt.Executable>
rbdock ($Id: //depot/dev/client3/rdock/2013.1/src/exe/rbdock.cxx#4 $)

>  <Rbt.Library>
libRbt.so (2013.1, Build901 2013/11/27)

>  <Rbt.Parameter_File>
/export/apps/rDock/src/rDock_2013.1_src/data/scripts/dock_solv.prm

>  <Rbt.Receptor>
prm/pocket_docking_3.prm

>  <SCORE>
-34.4575

>  <SCORE.INTER>
-34.2826

>  <SCORE.INTER.CONST>
1

>  <SCORE.INTER.POLAR>
-6.93596

>  <SCORE.INTER.ROT>
9

>  <SCORE.INTER.SOLV>
20.0522

>  <SCORE.INTER.VDW>
-16.0192

>  <SCORE.INTER.norm>
-0.816252

>  <SCORE.INTRA>
-1.29667

>  <SCORE.INTRA.DIHEDRAL>
-5.27857

>  <SCORE.INTRA.DIHEDRAL.0>
29.7866

>  <SCORE.INTRA.POLAR>
-0.0835954

>  <SCORE.INTRA.POLAR.0>
-0.984091

>  <SCORE.INTRA.REPUL>
-0.274115

>  <SCORE.INTRA.REPUL.0>
0.274115

>  <SCORE.INTRA.SOLV>
1.14155

>  <SCORE.INTRA.SOLV.lig_0>
-152.978

>  <SCORE.INTRA.VDW>
2.42664

>  <SCORE.INTRA.VDW.0>
-6.10719

>  <SCORE.INTRA.norm>
-0.030873

>  <SCORE.RESTR>
1.12173

>  <SCORE.RESTR.CAVITY>
1.12173

>  <SCORE.RESTR.norm>
0.0267077

>  <SCORE.SYSTEM>
0

>  <SCORE.SYSTEM.CONST>
0

>  <SCORE.SYSTEM.DIHEDRAL>
0

>  <SCORE.SYSTEM.SOLV>
0

>  <SCORE.SYSTEM.norm>
0

>  <SCORE.heavy>
42

>  <SCORE.norm>
-0.820417

>  <RMSD>
3.589

$$$$
1pbr
 OpenBabel11021811403D
libRbt.so/2013.1/901 2013/11/27
 42 45  0  0  0  0  0  0  0  0999 V2000
    0.6142   -3.1253   41.6854 C   0  0  2  0  0  0  0  0  0  0  0  0
    1.5888   -4.1849   41.8598 O   0  0  0  0  0  0  0  0  0  0  0  0
    1.3094   -1.8012   41.1936 C   0  0  2  0  0  0  0  0  0  0  0  0
    2.3631   -2.0038   40.1655 N   0  3  0  0  0  0  0  0  0  0  0  0
    1.9813   -1.0475   42.3569 C   0  0  1  0  0  0  0  0  0  0  0  0
    2.3717    0.2629   41.9524 O   0  0  0  0  0  0  0  0  0  0  0  0
    1.0406   -0.9493   43.5673 C   0  0  2  0  0  0  0  0  0  0  0  0
    1.6618   -0.2123   44.6157 O   0  0  0  0  0  0  0  0  0  0  0  0
    0.5840   -2.3536   44.0211 C   0  0  2  0  0  0  0  0  0  0  0  0
   -0.1382   -2.9368   42.9158 O   0  0  0  0  0  0  0  0  0  0  0  0
   -0.3410   -2.3501   45.2369 C   0  0  0  0  0  0  0  0  0  0  0  0
   -0.5946   -3.6715   45.6951 O   0  0  0  0  0  0  0  0  0  0  0  0
    2.1968   -8.1023   40.2813 C   0  0  1  0  0  0  0  0  0  0  0  0
    2.2734   -9.3207   39.4544 N   0  3  0  0  0  0  0  0  0  0  0  0
    3.1782   -6.9944   39.7925 C   0  0  2  0  0  0  0  0  0  0  0  0
    4.5215   -7.4712   39.8217 O   0  0  0  0  0  0  0  0  0  0  0  0
    3.0881   -5.7242   40.6881 C   0  0  1  0  0  0  0  0  0  0  0  0
    3.8962   -4.6705   40.0851 O   0  0  0  0  0  0  0  0  0  0  0  0
    1.6161   -5.2221   40.8498 C   0  0  1  0  0  0  0  0  0  0  0  0
    0.6332   -6.3549   41.2872 C   0  0  1  0  0  0  0  0  0  0  0  0
   -0.7653   -5.8739   41.3351 N   0  3  0  0  0  0  0  0  0  0  0  0
    0.7353   -7.5682   40.3269 C   0  0  0  0  0  0  0  0  0  0  0  0
    5.3489   -4.6707   40.2628 C   0  0  1  0  0  0  0  0  0  0  0  0
    5.9763   -3.7529   39.1969 C   0  0  2  0  0  0  0  0  0  0  0  0
    7.3226   -4.1313   38.9239 O   0  0  0  0  0  0  0  0  0  0  0  0
    5.8886   -2.4159   39.9483 C   0  0  1  0  0  0  0  0  0  0  0  0
    6.3217   -2.8032   41.3526 C   0  0  2  0  0  0  0  0  0  0  0  0
    5.6986   -4.0674   41.5211 O   0  0  0  0  0  0  0  0  0  0  0  0
    5.8807   -1.8393   42.4616 C   0  0  0  0  0  0  0  0  0  0  0  0
    6.4811   -2.2075   43.6946 O   0  0  0  0  0  0  0  0  0  0  0  0
    6.3909    0.9111   35.7573 C   0  0  1  0  0  0  0  0  0  0  0  0
    7.1881    2.0068   36.2029 O   0  0  0  0  0  0  0  0  0  0  0  0
    7.2628   -0.3746   35.7090 C   0  0  2  0  0  0  0  0  0  0  0  0
    6.5841   -1.3537   34.9258 O   0  0  0  0  0  0  0  0  0  0  0  0
    7.6145   -0.9982   37.0994 C   0  0  1  0  0  0  0  0  0  0  0  0
    8.8103   -0.3403   37.6706 N   0  3  0  0  0  0  0  0  0  0  0  0
    6.4002   -0.9795   38.0649 C   0  0  1  0  0  0  0  0  0  0  0  0
    6.7247   -1.3456   39.4287 O   0  0  0  0  0  0  0  0  0  0  0  0
    5.1919    0.6949   36.7145 C   0  0  1  0  0  0  0  0  0  0  0  0
    5.7263    0.3230   38.0144 O   0  0  0  0  0  0  0  0  0  0  0  0
    4.2594    1.9152   36.8306 C   0  0  0  0  0  0  0  0  0  0  0  0
    3.1662    1.7071   37.8001 N   0  3  0  0  0  0  0  0  0  0  0  0
  1  2  1  1  0  0  0
  1  3  1  0  0  0  0
  1 10  1  0  0  0  0
  3  4  1  6  0  0  0
  3  5  1  0  0  0  0
  5  6  1  6  0  0  0
  5  7  1  0  0  0  0
  7  8  1  1  0  0  0
  7  9  1  0  0  0  0
  9 10  1  0  0  0  0
  9 11  1  1  0  0  0
 11 12  1  0  0  0  0
 13 14  1  6  0  0  0
 13 15  1  0  0  0  0
 13 22  1  0  0  0  0
 15 16  1  1  0  0  0
 15 17  1  0  0  0  0
 17 18  1  6  0  0  0
 17 19  1  0  0  0  0
 19  2  1  1  0  0  0
 19 20  1  0  0  0  0
 20 21  1  6  0  0  0
 20 22  1  0  0  0  0
 23 18  1  6  0  0  0
 23 24  1  0  0  0  0
 23 28  1  0  0  0  0
 24 25  1  1  0  0  0
 24 26  1  0  0  0  0
 26 27  1  0  0  0  0
 26 38  1  6  0  0  0
 27 28  1  0  0  0  0
 27 29  1  1  0  0  0
 29 30  1  0  0  0  0
 31 32  1  1  0  0  0
 31 33  1  0  0  0  0
 31 39  1  0  0  0  0
 33 34  1  6  0  0  0
 33 35  1  0  0  0  0
 35 36  1  1  0  0  0
 35 37  1  0  0  0  0
 37 38  1  1  0  0  0
 37 40  1  0  0  0  0
 39 40  1  0  0  0  0
 39 41  1  1  0  0  0
 41 42  1  0  0  0  0
M  CHG  5   4   1  14   1  21   1  36   1  42   1
M  END
>  <CHROM.1>
-104.98551063,147.18742248,79.49417222,-174.92086535,-58.00410618,-173.12285439
168.97906807,76.17934607,166.06512079,-79.66027601,162.45061846,54.07971381
170.61496501,61.28613324,-172.61265890,-56.63104901,171.32844790,56.18099258
-172.37567415,-126.82382923,-177.05037756,61.95548370,3.77677313,-2.72601040
40.26565553,2.69901342,-0.80332581,-3.00536813

>  <Name>
1pbr

>  <RI>
0

>  <Rbt.Current_Directory>
/home/itssahil/PROJECTS/Mol_Feturizer/New_Systems/rnas/1pbr

>  <Rbt.Executable>
rbdock ($Id: //depot/dev/client3/rdock/2013.1/src/exe/rbdock.cxx#4 $)

>  <Rbt.Library>
libRbt.so (2013.1, Build901 2013/11/27)

>  <Rbt.Parameter_File>
/export/apps/rDock/src/rDock_2013.1_src/data/scripts/dock_solv.prm

>  <Rbt.Receptor>
prm/pocket_docking_6.prm

>  <SCORE>
-30.1754

>  <SCORE.INTER>
-25.437

>  <SCORE.INTER.CONST>
1

>  <SCORE.INTER.POLAR>
-3.84191

>  <SCORE.INTER.ROT>
9

>  <SCORE.INTER.SOLV>
21.2622

>  <SCORE.INTER.VDW>
-20.8391

>  <SCORE.INTER.norm>
-0.605644

>  <SCORE.INTRA>
-4.73836

>  <SCORE.INTRA.DIHEDRAL>
-4.21605

>  <SCORE.INTRA.DIHEDRAL.0>
29.7866

>  <SCORE.INTRA.POLAR>
-0.208717

>  <SCORE.INTRA.POLAR.0>
-0.984091

>  <SCORE.INTRA.REPUL>
-0.274115

>  <SCORE.INTRA.REPUL.0>
0.274115

>  <SCORE.INTRA.SOLV>
0.0770407

>  <SCORE.INTRA.SOLV.lig_0>
-152.978

>  <SCORE.INTRA.VDW>
-0.588639

>  <SCORE.INTRA.VDW.0>
-6.10719

>  <SCORE.INTRA.norm>
-0.112818

>  <SCORE.RESTR>
0

>  <SCORE.RESTR.CAVITY>
0

>  <SCORE.RESTR.norm>
0

>  <SCORE.SYSTEM>
0

>  <SCORE.SYSTEM.CONST>
0

>  <SCORE.SYSTEM.DIHEDRAL>
0

>  <SCORE.SYSTEM.SOLV>
0

>  <SCORE.SYSTEM.norm>
0

>  <SCORE.heavy>
42

>  <SCORE.norm>
-0.718462

>  <RMSD>
3.693

$$$$
1pbr
 OpenBabel11021811403D
libRbt.so/2013.1/901 2013/11/27
 42 45  0  0  0  0  0  0  0  0999 V2000
    2.7154   -1.1720   44.3676 C   0  0  2  0  0  0  0  0  0  0  0  0
    2.7587   -2.5067   44.9332 O   0  0  0  0  0  0  0  0  0  0  0  0
    3.7596   -0.2304   45.0757 C   0  0  2  0  0  0  0  0  0  0  0  0
    5.0738   -0.8661   45.3530 N   0  3  0  0  0  0  0  0  0  0  0  0
    3.2342    0.2821   46.4299 C   0  0  1  0  0  0  0  0  0  0  0  0
    4.0626    1.3292   46.9306 O   0  0  0  0  0  0  0  0  0  0  0  0
    1.7896    0.7892   46.3053 C   0  0  2  0  0  0  0  0  0  0  0  0
    1.3366    1.2987   47.5557 O   0  0  0  0  0  0  0  0  0  0  0  0
    0.8672   -0.3177   45.7482 C   0  0  2  0  0  0  0  0  0  0  0  0
    1.3593   -0.6503   44.4327 O   0  0  0  0  0  0  0  0  0  0  0  0
   -0.5971    0.0961   45.6110 C   0  0  0  0  0  0  0  0  0  0  0  0
   -1.3003   -0.7793   44.7394 O   0  0  0  0  0  0  0  0  0  0  0  0
    2.8158   -6.5552   43.5861 C   0  0  1  0  0  0  0  0  0  0  0  0
    2.6530   -7.8296   42.8627 N   0  3  0  0  0  0  0  0  0  0  0  0
    3.7288   -5.5525   42.8176 C   0  0  2  0  0  0  0  0  0  0  0  0
    5.0214   -6.1163   42.6082 O   0  0  0  0  0  0  0  0  0  0  0  0
    3.8956   -4.2209   43.6067 C   0  0  1  0  0  0  0  0  0  0  0  0
    4.6125   -3.2682   42.7668 O   0  0  0  0  0  0  0  0  0  0  0  0
    2.5187   -3.6100   44.0267 C   0  0  1  0  0  0  0  0  0  0  0  0
    1.5922   -4.6410   44.7473 C   0  0  1  0  0  0  0  0  0  0  0  0
    0.2621   -4.0639   45.0430 N   0  3  0  0  0  0  0  0  0  0  0  0
    1.4265   -5.9211   43.8882 C   0  0  0  0  0  0  0  0  0  0  0  0
    6.0753   -3.2286   42.7906 C   0  0  1  0  0  0  0  0  0  0  0  0
    6.6055   -3.7867   41.4566 C   0  0  2  0  0  0  0  0  0  0  0  0
    7.9211   -4.3124   41.6084 O   0  0  0  0  0  0  0  0  0  0  0  0
    6.5880   -2.4922   40.6297 C   0  0  1  0  0  0  0  0  0  0  0  0
    7.1452   -1.4731   41.6097 C   0  0  2  0  0  0  0  0  0  0  0  0
    6.5380   -1.8670   42.8306 O   0  0  0  0  0  0  0  0  0  0  0  0
    6.8074   -0.0103   41.2938 C   0  0  0  0  0  0  0  0  0  0  0  0
    5.4108    0.1323   41.0805 O   0  0  0  0  0  0  0  0  0  0  0  0
    7.0546   -0.0053   35.9030 C   0  0  1  0  0  0  0  0  0  0  0  0
    7.3085   -1.0519   34.9675 O   0  0  0  0  0  0  0  0  0  0  0  0
    5.7358   -0.3069   36.6682 C   0  0  2  0  0  0  0  0  0  0  0  0
    5.3002    0.8893   37.3100 O   0  0  0  0  0  0  0  0  0  0  0  0
    5.8262   -1.4463   37.7356 C   0  0  1  0  0  0  0  0  0  0  0  0
    5.6292   -2.7663   37.0970 N   0  3  0  0  0  0  0  0  0  0  0  0
    7.1404   -1.3665   38.5562 C   0  0  1  0  0  0  0  0  0  0  0  0
    7.3755   -2.5151   39.4074 O   0  0  0  0  0  0  0  0  0  0  0  0
    8.2277    0.1131   36.9081 C   0  0  1  0  0  0  0  0  0  0  0  0
    8.2839   -1.1246   37.6689 O   0  0  0  0  0  0  0  0  0  0  0  0
    9.5857    0.4161   36.2478 C   0  0  0  0  0  0  0  0  0  0  0  0
   10.7081    0.3703   37.2053 N   0  3  0  0  0  0  0  0  0  0  0  0
  1  2  1  1  0  0  0
  1  3  1  0  0  0  0
  1 10  1  0  0  0  0
  3  4  1  1  0  0  0
  3  5  1  0  0  0  0
  5  6  1  6  0  0  0
  5  7  1  0  0  0  0
  7  8  1  1  0  0  0
  7  9  1  0  0  0  0
  9 10  1  0  0  0  0
  9 11  1  6  0  0  0
 11 12  1  0  0  0  0
 13 14  1  6  0  0  0
 13 15  1  0  0  0  0
 13 22  1  0  0  0  0
 15 16  1  1  0  0  0
 15 17  1  0  0  0  0
 17 18  1  6  0  0  0
 17 19  1  0  0  0  0
 19  2  1  1  0  0  0
 19 20  1  0  0  0  0
 20 21  1  6  0  0  0
 20 22  1  0  0  0  0
 23 18  1  6  0  0  0
 23 24  1  0  0  0  0
 23 28  1  0  0  0  0
 24 25  1  1  0  0  0
 24 26  1  0  0  0  0
 26 27  1  0  0  0  0
 26 38  1  6  0  0  0
 27 28  1  0  0  0  0
 27 29  1  6  0  0  0
 29 30  1  0  0  0  0
 31 32  1  6  0  0  0
 31 33  1  0  0  0  0
 31 39  1  0  0  0  0
 33 34  1  1  0  0  0
 33 35  1  0  0  0  0
 35 36  1  6  0  0  0
 35 37  1  0  0  0  0
 37 38  1  6  0  0  0
 37 40  1  0  0  0  0
 39 40  1  0  0  0  0
 39 41  1  6  0  0  0
 41 42  1  0  0  0  0
M  CHG  5   4   1  14   1  21   1  36   1  42   1
M  END
>  <CHROM.1>
-145.44112277,99.29397857,-81.43416624,-68.89952126,52.43313026,162.16915002
-42.66965997,172.56802031,-63.55404489,-88.51822577,109.30261754,52.66747784
-65.15651325,169.87855686,50.86463325,174.15522867,176.54773558,-60.85779634
-49.84436005,-78.05925617,-173.40625181,174.44821769,4.65413203,-1.90430200
41.95624433,-3.12999846,-0.92639557,-2.99270553

>  <Name>
1pbr

>  <RI>
0

>  <Rbt.Current_Directory>
/home/itssahil/PROJECTS/Mol_Feturizer/New_Systems/rnas/1pbr

>  <Rbt.Executable>
rbdock ($Id: //depot/dev/client3/rdock/2013.1/src/exe/rbdock.cxx#4 $)

>  <Rbt.Library>
libRbt.so (2013.1, Build901 2013/11/27)

>  <Rbt.Parameter_File>
/export/apps/rDock/src/rDock_2013.1_src/data/scripts/dock_solv.prm

>  <Rbt.Receptor>
prm/pocket_docking_8.prm

>  <SCORE>
-37.0377

>  <SCORE.INTER>
-34.4115

>  <SCORE.INTER.CONST>
1

>  <SCORE.INTER.POLAR>
-4.30671

>  <SCORE.INTER.ROT>
9

>  <SCORE.INTER.SOLV>
19.4198

>  <SCORE.INTER.VDW>
-24.6586

>  <SCORE.INTER.norm>
-0.819322

>  <SCORE.INTRA>
-2.62616

>  <SCORE.INTRA.DIHEDRAL>
-1.62636

>  <SCORE.INTRA.DIHEDRAL.0>
29.7866

>  <SCORE.INTRA.POLAR>
-0.528011

>  <SCORE.INTRA.POLAR.0>
-0.984091

>  <SCORE.INTRA.REPUL>
-0.19821

>  <SCORE.INTRA.REPUL.0>
0.274115

>  <SCORE.INTRA.SOLV>
1.64198

>  <SCORE.INTRA.SOLV.lig_0>
-152.978

>  <SCORE.INTRA.VDW>
0.152315

>  <SCORE.INTRA.VDW.0>
-6.10719

>  <SCORE.INTRA.norm>
-0.0625277

>  <SCORE.RESTR>
0

>  <SCORE.RESTR.CAVITY>
0

>  <SCORE.RESTR.norm>
0

>  <SCORE.SYSTEM>
0

>  <SCORE.SYSTEM.CONST>
0

>  <SCORE.SYSTEM.DIHEDRAL>
0

>  <SCORE.SYSTEM.SOLV>
0

>  <SCORE.SYSTEM.norm>
0

>  <SCORE.heavy>
42

>  <SCORE.norm>
-0.88185

>  <RMSD>
3.807

$$$$
1pbr
 OpenBabel11021811403D
libRbt.so/2013.1/901 2013/11/27
 42 45  0  0  0  0  0  0  0  0999 V2000
    1.6098   -1.5996   44.4664 C   0  0  2  0  0  0  0  0  0  0  0  0
    0.5479   -1.1741   43.5751 O   0  0  0  0  0  0  0  0  0  0  0  0
    2.2436   -0.3655   45.2104 C   0  0  2  0  0  0  0  0  0  0  0  0
    1.2591    0.6464   45.6744 N   0  3  0  0  0  0  0  0  0  0  0  0
    3.2434    0.3864   44.3117 C   0  0  1  0  0  0  0  0  0  0  0  0
    3.9983    1.3276   45.0716 O   0  0  0  0  0  0  0  0  0  0  0  0
    4.2007   -0.5911   43.6132 C   0  0  2  0  0  0  0  0  0  0  0  0
    5.1445    0.1241   42.8220 O   0  0  0  0  0  0  0  0  0  0  0  0
    3.4130   -1.6370   42.7935 C   0  0  2  0  0  0  0  0  0  0  0  0
    2.5959   -2.3730   43.7283 O   0  0  0  0  0  0  0  0  0  0  0  0
    4.2911   -2.6395   42.0466 C   0  0  0  0  0  0  0  0  0  0  0  0
    5.1629   -1.9825   41.1361 O   0  0  0  0  0  0  0  0  0  0  0  0
    0.0654   -5.0200   41.7906 C   0  0  1  0  0  0  0  0  0  0  0  0
   -0.4052   -6.2260   41.0849 N   0  3  0  0  0  0  0  0  0  0  0  0
    0.3175   -3.8278   40.8186 C   0  0  2  0  0  0  0  0  0  0  0  0
    1.2913   -4.1816   39.8392 O   0  0  0  0  0  0  0  0  0  0  0  0
    0.8253   -2.5714   41.5849 C   0  0  1  0  0  0  0  0  0  0  0  0
    0.8790   -1.4488   40.6554 O   0  0  0  0  0  0  0  0  0  0  0  0
   -0.1003   -2.2041   42.7904 C   0  0  1  0  0  0  0  0  0  0  0  0
   -0.3892   -3.4212   43.7264 C   0  0  1  0  0  0  0  0  0  0  0  0
   -1.3453   -3.0682   44.7991 N   0  3  0  0  0  0  0  0  0  0  0  0
   -0.9391   -4.6198   42.9106 C   0  0  0  0  0  0  0  0  0  0  0  0
    0.8732   -0.0768   41.1647 C   0  0  1  0  0  0  0  0  0  0  0  0
    1.8795    0.7563   40.3491 C   0  0  2  0  0  0  0  0  0  0  0  0
    2.3535    1.8685   41.1031 O   0  0  0  0  0  0  0  0  0  0  0  0
    0.9591    1.1848   39.1961 C   0  0  1  0  0  0  0  0  0  0  0  0
   -0.3244    1.5498   39.9234 C   0  0  2  0  0  0  0  0  0  0  0  0
   -0.4022    0.5420   40.9198 O   0  0  0  0  0  0  0  0  0  0  0  0
   -1.5908    1.5425   39.0575 C   0  0  0  0  0  0  0  0  0  0  0  0
   -1.6474    2.7207   38.2669 O   0  0  0  0  0  0  0  0  0  0  0  0
    3.9387    1.1141   35.0796 C   0  0  1  0  0  0  0  0  0  0  0  0
    2.8780    1.0515   34.1280 O   0  0  0  0  0  0  0  0  0  0  0  0
    4.0941    2.5764   35.5827 C   0  0  2  0  0  0  0  0  0  0  0  0
    5.3604    2.7026   36.2256 O   0  0  0  0  0  0  0  0  0  0  0  0
    2.9805    3.0693   36.5638 C   0  0  1  0  0  0  0  0  0  0  0  0
    1.8123    3.5697   35.8063 N   0  3  0  0  0  0  0  0  0  0  0  0
    2.6013    1.9803   37.6017 C   0  0  1  0  0  0  0  0  0  0  0  0
    1.4322    2.3021   38.3946 O   0  0  0  0  0  0  0  0  0  0  0  0
    3.6417    0.1771   36.2774 C   0  0  1  0  0  0  0  0  0  0  0  0
    2.4504    0.6771   36.9442 O   0  0  0  0  0  0  0  0  0  0  0  0
    3.4733   -1.3024   35.8842 C   0  0  0  0  0  0  0  0  0  0  0  0
    3.2742   -2.1834   37.0516 N   0  3  0  0  0  0  0  0  0  0  0  0
  1  2  1  6  0  0  0
  1  3  1  0  0  0  0
  1 10  1  0  0  0  0
  3  4  1  6  0  0  0
  3  5  1  0  0  0  0
  5  6  1  1  0  0  0
  5  7  1  0  0  0  0
  7  8  1  6  0  0  0
  7  9  1  0  0  0  0
  9 10  1  0  0  0  0
  9 11  1  1  0  0  0
 11 12  1  0  0  0  0
 13 14  1  6  0  0  0
 13 15  1  0  0  0  0
 13 22  1  0  0  0  0
 15 16  1  6  0  0  0
 15 17  1  0  0  0  0
 17 18  1  6  0  0  0
 17 19  1  0  0  0  0
 19  2  1  1  0  0  0
 19 20  1  0  0  0  0
 20 21  1  1  0  0  0
 20 22  1  0  0  0  0
 23 18  1  6  0  0  0
 23 24  1  0  0  0  0
 23 28  1  0  0  0  0
 24 25  1  1  0  0  0
 24 26  1  0  0  0  0
 26 27  1  0  0  0  0
 26 38  1  1  0  0  0
 27 28  1  0  0  0  0
 27 29  1  6  0  0  0
 29 30  1  0  0  0  0
 31 32  1  6  0  0  0
 31 33  1  0  0  0  0
 31 39  1  0  0  0  0
 33 34  1  1  0  0  0
 33 35  1  0  0  0  0
 35 36  1  6  0  0  0
 35 37  1  0  0  0  0
 37 38  1  6  0  0  0
 37 40  1  0  0  0  0
 39 40  1  0  0  0  0
 39 41  1  6  0  0  0
 41 42  1  0  0  0  0
M  CHG  5   4   1  14   1  21   1  36   1  42   1
M  END
>  <CHROM.1>
178.13432315,-78.17607150,-39.50604980,59.30982147,-166.57757413,-59.24948428
174.07458275,105.90534809,-178.87106150,159.12542548,138.85634604,-164.49808300
171.33219931,68.39819442,-77.80071750,167.51453369,-69.20070488,154.92696519
-85.43205262,170.17918322,176.46402017,-51.28356701,1.86408301,-0.47506483
40.45743434,-1.97176244,-1.02038390,-1.40095457

>  <Name>
1pbr

>  <RI>
0

>  <Rbt.Current_Directory>
/home/itssahil/PROJECTS/Mol_Feturizer/New_Systems/rnas/1pbr

>  <Rbt.Executable>
rbdock ($Id: //depot/dev/client3/rdock/2013.1/src/exe/rbdock.cxx#4 $)

>  <Rbt.Library>
libRbt.so (2013.1, Build901 2013/11/27)

>  <Rbt.Parameter_File>
/export/apps/rDock/src/rDock_2013.1_src/data/scripts/dock_solv.prm

>  <Rbt.Receptor>
prm/pocket_docking_5.prm

>  <SCORE>
-42.0593

>  <SCORE.INTER>
-39.6193

>  <SCORE.INTER.CONST>
1

>  <SCORE.INTER.POLAR>
-5.06355

>  <SCORE.INTER.ROT>
9

>  <SCORE.INTER.SOLV>
29.5551

>  <SCORE.INTER.VDW>
-28.986

>  <SCORE.INTER.norm>
-0.943317

>  <SCORE.INTRA>
-2.44001

>  <SCORE.INTRA.DIHEDRAL>
-6.77774

>  <SCORE.INTRA.DIHEDRAL.0>
29.7866

>  <SCORE.INTRA.POLAR>
-0.0247327

>  <SCORE.INTRA.POLAR.0>
-0.984091

>  <SCORE.INTRA.REPUL>
-0.238003

>  <SCORE.INTRA.REPUL.0>
0.274115

>  <SCORE.INTRA.SOLV>
-1.94632

>  <SCORE.INTRA.SOLV.lig_0>
-152.978

>  <SCORE.INTRA.VDW>
3.19613

>  <SCORE.INTRA.VDW.0>
-6.10719

>  <SCORE.INTRA.norm>
-0.0580955

>  <SCORE.RESTR>
0

>  <SCORE.RESTR.CAVITY>
0

>  <SCORE.RESTR.norm>
0

>  <SCORE.SYSTEM>
0

>  <SCORE.SYSTEM.CONST>
0

>  <SCORE.SYSTEM.DIHEDRAL>
0

>  <SCORE.SYSTEM.SOLV>
0

>  <SCORE.SYSTEM.norm>
0

>  <SCORE.heavy>
42

>  <SCORE.norm>
-1.00141

>  <RMSD>
3.864

$$$$
1pbr
 OpenBabel11021811403D
libRbt.so/2013.1/901 2013/11/27
 42 45  0  0  0  0  0  0  0  0999 V2000
    1.1785   -3.2677   43.0633 C   0  0  2  0  0  0  0  0  0  0  0  0
    1.0434   -2.7573   41.7126 O   0  0  0  0  0  0  0  0  0  0  0  0
    0.4713   -2.3124   44.0955 C   0  0  2  0  0  0  0  0  0  0  0  0
   -0.8388   -1.7771   43.6424 N   0  3  0  0  0  0  0  0  0  0  0  0
    1.3458   -1.0884   44.4269 C   0  0  1  0  0  0  0  0  0  0  0  0
    0.8197   -0.3787   45.5462 O   0  0  0  0  0  0  0  0  0  0  0  0
    2.7934   -1.5084   44.7230 C   0  0  2  0  0  0  0  0  0  0  0  0
    3.5757   -0.3699   45.0695 O   0  0  0  0  0  0  0  0  0  0  0  0
    3.3887   -2.2961   43.5349 C   0  0  2  0  0  0  0  0  0  0  0  0
    2.5831   -3.4828   43.3735 O   0  0  0  0  0  0  0  0  0  0  0  0
    4.8377   -2.7361   43.7371 C   0  0  0  0  0  0  0  0  0  0  0  0
    5.2127   -2.6606   45.1061 O   0  0  0  0  0  0  0  0  0  0  0  0
    3.4893   -5.7746   39.9459 C   0  0  1  0  0  0  0  0  0  0  0  0
    4.1589   -6.7400   39.0551 N   0  3  0  0  0  0  0  0  0  0  0  0
    3.8310   -4.2984   39.5801 C   0  0  2  0  0  0  0  0  0  0  0  0
    5.2375   -4.0789   39.6590 O   0  0  0  0  0  0  0  0  0  0  0  0
    3.1231   -3.2995   40.5417 C   0  0  1  0  0  0  0  0  0  0  0  0
    3.3413   -1.9442   40.0489 O   0  0  0  0  0  0  0  0  0  0  0  0
    1.5871   -3.5731   40.6470 C   0  0  1  0  0  0  0  0  0  0  0  0
    1.2573   -5.0677   40.9599 C   0  0  1  0  0  0  0  0  0  0  0  0
   -0.2015   -5.3158   40.9550 N   0  3  0  0  0  0  0  0  0  0  0  0
    1.9498   -6.0060   39.9380 C   0  0  0  0  0  0  0  0  0  0  0  0
    3.3293   -0.8163   40.9813 C   0  0  1  0  0  0  0  0  0  0  0  0
    3.5201    0.4864   40.1821 C   0  0  2  0  0  0  0  0  0  0  0  0
    4.0850    1.5092   40.9975 O   0  0  0  0  0  0  0  0  0  0  0  0
    2.0523    0.7689   39.8278 C   0  0  1  0  0  0  0  0  0  0  0  0
    1.3378    0.4612   41.1333 C   0  0  2  0  0  0  0  0  0  0  0  0
    2.0337   -0.6872   41.5932 O   0  0  0  0  0  0  0  0  0  0  0  0
   -0.1608    0.1598   41.0027 C   0  0  0  0  0  0  0  0  0  0  0  0
   -0.8488    1.3066   40.5256 O   0  0  0  0  0  0  0  0  0  0  0  0
    3.4077    2.4611   35.4063 C   0  0  1  0  0  0  0  0  0  0  0  0
    2.4498    1.5996   34.7938 O   0  0  0  0  0  0  0  0  0  0  0  0
    2.6855    3.7161   35.9710 C   0  0  2  0  0  0  0  0  0  0  0  0
    3.6620    4.7205   36.2360 O   0  0  0  0  0  0  0  0  0  0  0  0
    1.8441    3.4781   37.2677 C   0  0  1  0  0  0  0  0  0  0  0  0
    0.4910    2.9904   36.9206 N   0  3  0  0  0  0  0  0  0  0  0  0
    2.5780    2.5495   38.2705 C   0  0  1  0  0  0  0  0  0  0  0  0
    1.7602    2.1239   39.3882 O   0  0  0  0  0  0  0  0  0  0  0  0
    4.1418    1.7197   36.5519 C   0  0  1  0  0  0  0  0  0  0  0  0
    3.1566    1.3965   37.5711 O   0  0  0  0  0  0  0  0  0  0  0  0
    4.8959    0.4572   36.0943 C   0  0  0  0  0  0  0  0  0  0  0  0
    4.0238   -0.5048   35.3926 N   0  3  0  0  0  0  0  0  0  0  0  0
  1  2  1  6  0  0  0
  1  3  1  0  0  0  0
  1 10  1  0  0  0  0
  3  4  1  6  0  0  0
  3  5  1  0  0  0  0
  5  6  1  1  0  0  0
  5  7  1  0  0  0  0
  7  8  1  6  0  0  0
  7  9  1  0  0  0  0
  9 10  1  0  0  0  0
  9 11  1  1  0  0  0
 11 12  1  0  0  0  0
 13 14  1  6  0  0  0
 13 15  1  0  0  0  0
 13 22  1  0  0  0  0
 15 16  1  1  0  0  0
 15 17  1  0  0  0  0
 17 18  1  6  0  0  0
 17 19  1  0  0  0  0
 19  2  1  1  0  0  0
 19 20  1  0  0  0  0
 20 21  1  6  0  0  0
 20 22  1  0  0  0  0
 23 18  1  6  0  0  0
 23 24  1  0  0  0  0
 23 28  1  0  0  0  0
 24 25  1  1  0  0  0
 24 26  1  0  0  0  0
 26 27  1  0  0  0  0
 26 38  1  1  0  0  0
 27 28  1  0  0  0  0
 27 29  1  6  0  0  0
 29 30  1  0  0  0  0
 31 32  1  1  0  0  0
 31 33  1  0  0  0  0
 31 39  1  0  0  0  0
 33 34  1  1  0  0  0
 33 35  1  0  0  0  0
 35 36  1  6  0  0  0
 35 37  1  0  0  0  0
 37 38  1  1  0  0  0
 37 40  1  0  0  0  0
 39 40  1  0  0  0  0
 39 41  1  6  0  0  0
 41 42  1  0  0  0  0
M  CHG  5   4   1  14   1  21   1  36   1  42   1
M  END
>  <CHROM.1>
-176.83995347,-82.39943986,15.85552776,-61.67112048,175.54031974,16.48934322
177.21873883,-168.00094077,173.81315067,-153.12395292,-177.45167631,-56.18620315
178.75546888,54.78693455,-64.14800357,40.59506187,63.74553121,177.31059873
84.71629292,145.01985235,-55.66379576,-105.54786766,2.48138420,-0.95577254
40.36222989,1.74254161,-1.21753163,2.46982938

>  <Name>
1pbr

>  <RI>
0

>  <Rbt.Current_Directory>
/home/itssahil/PROJECTS/Mol_Feturizer/New_Systems/rnas/1pbr

>  <Rbt.Executable>
rbdock ($Id: //depot/dev/client3/rdock/2013.1/src/exe/rbdock.cxx#4 $)

>  <Rbt.Library>
libRbt.so (2013.1, Build901 2013/11/27)

>  <Rbt.Parameter_File>
/export/apps/rDock/src/rDock_2013.1_src/data/scripts/dock_solv.prm

>  <Rbt.Receptor>
prm/pocket_docking_3.prm

>  <SCORE>
-28.468

>  <SCORE.INTER>
-28.2517

>  <SCORE.INTER.CONST>
1

>  <SCORE.INTER.POLAR>
-5.18678

>  <SCORE.INTER.ROT>
9

>  <SCORE.INTER.SOLV>
22.4419

>  <SCORE.INTER.VDW>
-18.6258

>  <SCORE.INTER.norm>
-0.67266

>  <SCORE.INTRA>
-0.91551

>  <SCORE.INTRA.DIHEDRAL>
-4.68655

>  <SCORE.INTRA.DIHEDRAL.0>
29.7866

>  <SCORE.INTRA.POLAR>
-1.41174

>  <SCORE.INTRA.POLAR.0>
-0.984091

>  <SCORE.INTRA.REPUL>
0.0226085

>  <SCORE.INTRA.REPUL.0>
0.274115

>  <SCORE.INTRA.SOLV>
3.77139

>  <SCORE.INTRA.SOLV.lig_0>
-152.978

>  <SCORE.INTRA.VDW>
4.22895

>  <SCORE.INTRA.VDW.0>
-6.10719

>  <SCORE.INTRA.norm>
-0.0217979

>  <SCORE.RESTR>
0.699199

>  <SCORE.RESTR.CAVITY>
0.699199

>  <SCORE.RESTR.norm>
0.0166476

>  <SCORE.SYSTEM>
0

>  <SCORE.SYSTEM.CONST>
0

>  <SCORE.SYSTEM.DIHEDRAL>
0

>  <SCORE.SYSTEM.SOLV>
0

>  <SCORE.SYSTEM.norm>
0

>  <SCORE.heavy>
42

>  <SCORE.norm>
-0.67781

>  <RMSD>
3.886

$$$$
1pbr
 OpenBabel11021811403D
libRbt.so/2013.1/901 2013/11/27
 42 45  0  0  0  0  0  0  0  0999 V2000
    3.0169   -2.4816   44.8980 C   0  0  2  0  0  0  0  0  0  0  0  0
    2.1045   -1.4828   44.3753 O   0  0  0  0  0  0  0  0  0  0  0  0
    3.9599   -1.8587   45.9940 C   0  0  2  0  0  0  0  0  0  0  0  0
    3.2832   -0.9235   46.9298 N   0  3  0  0  0  0  0  0  0  0  0  0
    5.1215   -1.0698   45.3609 C   0  0  1  0  0  0  0  0  0  0  0  0
    6.1029   -0.7400   46.3414 O   0  0  0  0  0  0  0  0  0  0  0  0
    5.7805   -1.8715   44.2283 C   0  0  2  0  0  0  0  0  0  0  0  0
    6.8785   -1.1454   43.6849 O   0  0  0  0  0  0  0  0  0  0  0  0
    4.7392   -2.2605   43.1555 C   0  0  2  0  0  0  0  0  0  0  0  0
    3.7581   -3.0948   43.8071 O   0  0  0  0  0  0  0  0  0  0  0  0
    5.3150   -3.0451   41.9778 C   0  0  0  0  0  0  0  0  0  0  0  0
    6.1463   -2.2235   41.1688 O   0  0  0  0  0  0  0  0  0  0  0  0
   -0.2799   -4.3491   42.3001 C   0  0  1  0  0  0  0  0  0  0  0  0
   -1.3172   -5.0777   41.5471 N   0  3  0  0  0  0  0  0  0  0  0  0
    0.4441   -3.2812   41.4254 C   0  0  2  0  0  0  0  0  0  0  0  0
    1.0601   -3.8970   40.2967 O   0  0  0  0  0  0  0  0  0  0  0  0
    1.5423   -2.5350   42.2382 C   0  0  1  0  0  0  0  0  0  0  0  0
    2.0623   -1.4419   41.4247 O   0  0  0  0  0  0  0  0  0  0  0  0
    0.9905   -1.9635   43.5851 C   0  0  1  0  0  0  0  0  0  0  0  0
    0.2199   -3.0306   44.4265 C   0  0  1  0  0  0  0  0  0  0  0  0
   -0.3746   -2.4377   45.6449 N   0  3  0  0  0  0  0  0  0  0  0  0
   -0.8909   -3.6995   43.5761 C   0  0  0  0  0  0  0  0  0  0  0  0
    1.7777   -0.0550   41.7954 C   0  0  1  0  0  0  0  0  0  0  0  0
    2.8434    0.8549   41.1563 C   0  0  2  0  0  0  0  0  0  0  0  0
    2.9947    2.0635   41.8956 O   0  0  0  0  0  0  0  0  0  0  0  0
    2.1759    1.0867   39.7923 C   0  0  1  0  0  0  0  0  0  0  0  0
    0.7241    1.3198   40.1764 C   0  0  2  0  0  0  0  0  0  0  0  0
    0.5324    0.3720   41.2154 O   0  0  0  0  0  0  0  0  0  0  0  0
   -0.2941    1.0915   39.0518 C   0  0  0  0  0  0  0  0  0  0  0  0
    0.1753    1.6725   37.8441 O   0  0  0  0  0  0  0  0  0  0  0  0
    4.4339    1.3144   35.1685 C   0  0  1  0  0  0  0  0  0  0  0  0
    3.3214    1.7831   34.4086 O   0  0  0  0  0  0  0  0  0  0  0  0
    5.0555    2.5005   35.9574 C   0  0  2  0  0  0  0  0  0  0  0  0
    6.3549    2.1179   36.4022 O   0  0  0  0  0  0  0  0  0  0  0  0
    4.2271    2.9934   37.1889 C   0  0  1  0  0  0  0  0  0  0  0  0
    3.1948    3.9625   36.7598 N   0  3  0  0  0  0  0  0  0  0  0  0
    3.6388    1.8096   38.0008 C   0  0  1  0  0  0  0  0  0  0  0  0
    2.6907    2.2073   39.0216 O   0  0  0  0  0  0  0  0  0  0  0  0
    3.9826    0.2085   36.1553 C   0  0  1  0  0  0  0  0  0  0  0  0
    3.0544    0.8106   37.0987 O   0  0  0  0  0  0  0  0  0  0  0  0
    3.3532   -1.0189   35.4702 C   0  0  0  0  0  0  0  0  0  0  0  0
    4.0877   -2.2679   35.7516 N   0  3  0  0  0  0  0  0  0  0  0  0
  1  2  1  6  0  0  0
  1  3  1  0  0  0  0
  1 10  1  0  0  0  0
  3  4  1  1  0  0  0
  3  5  1  0  0  0  0
  5  6  1  1  0  0  0
  5  7  1  0  0  0  0
  7  8  1  6  0  0  0
  7  9  1  0  0  0  0
  9 10  1  0  0  0  0
  9 11  1  6  0  0  0
 11 12  1  0  0  0  0
 13 14  1  6  0  0  0
 13 15  1  0  0  0  0
 13 22  1  0  0  0  0
 15 16  1  6  0  0  0
 15 17  1  0  0  0  0
 17 18  1  6  0  0  0
 17 19  1  0  0  0  0
 19  2  1  1  0  0  0
 19 20  1  0  0  0  0
 20 21  1  1  0  0  0
 20 22  1  0  0  0  0
 23 18  1  6  0  0  0
 23 24  1  0  0  0  0
 23 28  1  0  0  0  0
 24 25  1  1  0  0  0
 24 26  1  0  0  0  0
 26 27  1  0  0  0  0
 26 38  1  1  0  0  0
 27 28  1  0  0  0  0
 27 29  1  6  0  0  0
 29 30  1  0  0  0  0
 31 32  1  1  0  0  0
 31 33  1  0  0  0  0
 31 39  1  0  0  0  0
 33 34  1  1  0  0  0
 33 35  1  0  0  0  0
 35 36  1  6  0  0  0
 35 37  1  0  0  0  0
 37 38  1  1  0  0  0
 37 40  1  0  0  0  0
 39 40  1  0  0  0  0
 39 41  1  6  0  0  0
 41 42  1  0  0  0  0
M  CHG  5   4   1  14   1  21   1  36   1  42   1
M  END
>  <CHROM.1>
-166.73164769,-68.63306736,-58.31184282,62.08179415,-33.82510249,-69.81847579
56.32432255,143.48574369,77.45748189,110.66551646,158.01450517,47.64966982
170.80835297,98.98392182,-43.72007653,61.25417531,175.11024163,65.68346069
-142.53054100,-178.59251796,120.19158343,-173.02843531,2.82479096,-0.67990279
40.90019356,-1.70614030,-0.41382542,-1.17035088

>  <Name>
1pbr

>  <RI>
0

>  <Rbt.Current_Directory>
/home/itssahil/PROJECTS/Mol_Feturizer/New_Systems/rnas/1pbr

>  <Rbt.Executable>
rbdock ($Id: //depot/dev/client3/rdock/2013.1/src/exe/rbdock.cxx#4 $)

>  <Rbt.Library>
libRbt.so (2013.1, Build901 2013/11/27)

>  <Rbt.Parameter_File>
/export/apps/rDock/src/rDock_2013.1_src/data/scripts/dock_solv.prm

>  <Rbt.Receptor>
prm/pocket_docking_4.prm

>  <SCORE>
-30.861

>  <SCORE.INTER>
-30.7987

>  <SCORE.INTER.CONST>
1

>  <SCORE.INTER.POLAR>
-3.9463

>  <SCORE.INTER.ROT>
9

>  <SCORE.INTER.SOLV>
34.5444

>  <SCORE.INTER.VDW>
-28.4929

>  <SCORE.INTER.norm>
-0.733302

>  <SCORE.INTRA>
-0.0623159

>  <SCORE.INTRA.DIHEDRAL>
3.33171

>  <SCORE.INTRA.DIHEDRAL.0>
29.7866

>  <SCORE.INTRA.POLAR>
-0.572749

>  <SCORE.INTRA.POLAR.0>
-0.984091

>  <SCORE.INTRA.REPUL>
-0.258471

>  <SCORE.INTRA.REPUL.0>
0.274115

>  <SCORE.INTRA.SOLV>
-3.31204

>  <SCORE.INTRA.SOLV.lig_0>
-152.978

>  <SCORE.INTRA.VDW>
3.16755

>  <SCORE.INTRA.VDW.0>
-6.10719

>  <SCORE.INTRA.norm>
-0.00148371

>  <SCORE.RESTR>
0

>  <SCORE.RESTR.CAVITY>
0

>  <SCORE.RESTR.norm>
0

>  <SCORE.SYSTEM>
0

>  <SCORE.SYSTEM.CONST>
0

>  <SCORE.SYSTEM.DIHEDRAL>
0

>  <SCORE.SYSTEM.SOLV>
0

>  <SCORE.SYSTEM.norm>
0

>  <SCORE.heavy>
42

>  <SCORE.norm>
-0.734786

>  <RMSD>
3.902

$$$$
1pbr
 OpenBabel11021811403D
libRbt.so/2013.1/901 2013/11/27
 42 45  0  0  0  0  0  0  0  0999 V2000
    3.2310   -4.5142   43.0643 C   0  0  2  0  0  0  0  0  0  0  0  0
    2.4711   -3.9034   41.9907 O   0  0  0  0  0  0  0  0  0  0  0  0
    3.0204   -3.7317   44.4140 C   0  0  2  0  0  0  0  0  0  0  0  0
    1.6213   -3.2968   44.6623 N   0  3  0  0  0  0  0  0  0  0  0  0
    3.8845   -2.4579   44.4720 C   0  0  1  0  0  0  0  0  0  0  0  0
    3.8874   -1.9078   45.7876 O   0  0  0  0  0  0  0  0  0  0  0  0
    5.3286   -2.7505   44.0378 C   0  0  2  0  0  0  0  0  0  0  0  0
    6.1222   -1.5723   44.1395 O   0  0  0  0  0  0  0  0  0  0  0  0
    5.3602   -3.3648   42.6207 C   0  0  2  0  0  0  0  0  0  0  0  0
    4.6325   -4.6094   42.6873 O   0  0  0  0  0  0  0  0  0  0  0  0
    6.7640   -3.6688   42.1000 C   0  0  0  0  0  0  0  0  0  0  0  0
    7.5225   -2.4776   41.9381 O   0  0  0  0  0  0  0  0  0  0  0  0
    3.7246   -6.6819   39.0047 C   0  0  1  0  0  0  0  0  0  0  0  0
    3.8626   -7.5583   37.8271 N   0  3  0  0  0  0  0  0  0  0  0  0
    3.8081   -5.1713   38.6294 C   0  0  2  0  0  0  0  0  0  0  0  0
    5.0547   -4.8828   38.0007 O   0  0  0  0  0  0  0  0  0  0  0  0
    3.6726   -4.2675   39.8898 C   0  0  1  0  0  0  0  0  0  0  0  0
    3.5871   -2.8767   39.4589 O   0  0  0  0  0  0  0  0  0  0  0  0
    2.4094   -4.6272   40.7382 C   0  0  1  0  0  0  0  0  0  0  0  0
    2.3094   -6.1526   41.0607 C   0  0  1  0  0  0  0  0  0  0  0  0
    1.0560   -6.4766   41.7772 N   0  3  0  0  0  0  0  0  0  0  0  0
    2.4000   -6.9933   39.7609 C   0  0  0  0  0  0  0  0  0  0  0  0
    4.8026   -2.0691   39.3491 C   0  0  1  0  0  0  0  0  0  0  0  0
    4.5125   -0.8627   38.4367 C   0  0  2  0  0  0  0  0  0  0  0  0
    5.7076   -0.3828   37.8271 O   0  0  0  0  0  0  0  0  0  0  0  0
    3.9656    0.1111   39.4914 C   0  0  1  0  0  0  0  0  0  0  0  0
    4.9276   -0.0912   40.6503 C   0  0  2  0  0  0  0  0  0  0  0  0
    5.1380   -1.4946   40.6247 O   0  0  0  0  0  0  0  0  0  0  0  0
    4.3977    0.3435   42.0229 C   0  0  0  0  0  0  0  0  0  0  0  0
    4.1493    1.7416   42.0289 O   0  0  0  0  0  0  0  0  0  0  0  0
    2.0825    3.4713   35.7123 C   0  0  1  0  0  0  0  0  0  0  0  0
    2.4590    4.7903   36.1036 O   0  0  0  0  0  0  0  0  0  0  0  0
    3.3602    2.6349   35.4233 C   0  0  2  0  0  0  0  0  0  0  0  0
    2.9846    1.4718   34.6895 O   0  0  0  0  0  0  0  0  0  0  0  0
    4.1715    2.1933   36.6852 C   0  0  1  0  0  0  0  0  0  0  0  0
    5.1007    3.2670   37.1011 N   0  3  0  0  0  0  0  0  0  0  0  0
    3.2416    1.7253   37.8355 C   0  0  1  0  0  0  0  0  0  0  0  0
    3.9237    1.5097   39.0954 O   0  0  0  0  0  0  0  0  0  0  0  0
    1.2558    2.7936   36.8339 C   0  0  1  0  0  0  0  0  0  0  0  0
    2.1184    2.6559   37.9962 O   0  0  0  0  0  0  0  0  0  0  0  0
   -0.0390    3.5456   37.1946 C   0  0  0  0  0  0  0  0  0  0  0  0
    0.2075    4.9433   37.5996 N   0  3  0  0  0  0  0  0  0  0  0  0
  1  2  1  6  0  0  0
  1  3  1  0  0  0  0
  1 10  1  0  0  0  0
  3  4  1  6  0  0  0
  3  5  1  0  0  0  0
  5  6  1  1  0  0  0
  5  7  1  0  0  0  0
  7  8  1  6  0  0  0
  7  9  1  0  0  0  0
  9 10  1  0  0  0  0
  9 11  1  1  0  0  0
 11 12  1  0  0  0  0
 13 14  1  6  0  0  0
 13 15  1  0  0  0  0
 13 22  1  0  0  0  0
 15 16  1  1  0  0  0
 15 17  1  0  0  0  0
 17 18  1  6  0  0  0
 17 19  1  0  0  0  0
 19  2  1  1  0  0  0
 19 20  1  0  0  0  0
 20 21  1  6  0  0  0
 20 22  1  0  0  0  0
 23 18  1  1  0  0  0
 23 24  1  0  0  0  0
 23 28  1  0  0  0  0
 24 25  1  1  0  0  0
 24 26  1  0  0  0  0
 26 27  1  0  0  0  0
 26 38  1  6  0  0  0
 27 28  1  0  0  0  0
 27 29  1  1  0  0  0
 29 30  1  0  0  0  0
 31 32  1  1  0  0  0
 31 33  1  0  0  0  0
 31 39  1  0  0  0  0
 33 34  1  1  0  0  0
 33 35  1  0  0  0  0
 35 36  1  1  0  0  0
 35 37  1  0  0  0  0
 37 38  1  1  0  0  0
 37 40  1  0  0  0  0
 39 40  1  0  0  0  0
 39 41  1  1  0  0  0
 41 42  1  0  0  0  0
M  CHG  5   4   1  14   1  21   1  36   1  42   1
M  END
>  <CHROM.1>
-171.12151366,-85.29281733,54.58042732,57.36034530,176.96987840,-64.44645294
-60.62779974,155.15419762,73.47405341,-91.93665627,160.38388109,62.97902590
175.82085375,52.40841116,-63.08109878,44.29190464,54.95949238,-61.68615474
-175.45274386,-111.99092082,-56.88587074,-77.47378637,3.67965299,-1.42357260
40.01944750,-0.89117648,-1.37318109,0.07343075

>  <Name>
1pbr

>  <RI>
0

>  <Rbt.Current_Directory>
/home/itssahil/PROJECTS/Mol_Feturizer/New_Systems/rnas/1pbr

>  <Rbt.Executable>
rbdock ($Id: //depot/dev/client3/rdock/2013.1/src/exe/rbdock.cxx#4 $)

>  <Rbt.Library>
libRbt.so (2013.1, Build901 2013/11/27)

>  <Rbt.Parameter_File>
/export/apps/rDock/src/rDock_2013.1_src/data/scripts/dock_solv.prm

>  <Rbt.Receptor>
prm/pocket_docking_5.prm

>  <SCORE>
-51.4179

>  <SCORE.INTER>
-42.736

>  <SCORE.INTER.CONST>
1

>  <SCORE.INTER.POLAR>
-7.92425

>  <SCORE.INTER.ROT>
9

>  <SCORE.INTER.SOLV>
24.8796

>  <SCORE.INTER.VDW>
-19.9697

>  <SCORE.INTER.norm>
-1.01752

>  <SCORE.INTRA>
-8.68188

>  <SCORE.INTRA.DIHEDRAL>
-8.32389

>  <SCORE.INTRA.DIHEDRAL.0>
29.7866

>  <SCORE.INTRA.POLAR>
-1.62804

>  <SCORE.INTRA.POLAR.0>
-0.984091

>  <SCORE.INTRA.REPUL>
-0.271809

>  <SCORE.INTRA.REPUL.0>
0.274115

>  <SCORE.INTRA.SOLV>
2.24595

>  <SCORE.INTRA.SOLV.lig_0>
-152.978

>  <SCORE.INTRA.VDW>
1.25147

>  <SCORE.INTRA.VDW.0>
-6.10719

>  <SCORE.INTRA.norm>
-0.206711

>  <SCORE.RESTR>
0

>  <SCORE.RESTR.CAVITY>
0

>  <SCORE.RESTR.norm>
0

>  <SCORE.SYSTEM>
0

>  <SCORE.SYSTEM.CONST>
0

>  <SCORE.SYSTEM.DIHEDRAL>
0

>  <SCORE.SYSTEM.SOLV>
0

>  <SCORE.SYSTEM.norm>
0

>  <SCORE.heavy>
42

>  <SCORE.norm>
-1.22424

>  <RMSD>
3.922

$$$$
1pbr
 OpenBabel11021811403D
libRbt.so/2013.1/901 2013/11/27
 42 45  0  0  0  0  0  0  0  0999 V2000
    3.6530   -3.4000   43.2461 C   0  0  2  0  0  0  0  0  0  0  0  0
    4.2782   -4.5613   42.6429 O   0  0  0  0  0  0  0  0  0  0  0  0
    2.9403   -3.7863   44.5956 C   0  0  2  0  0  0  0  0  0  0  0  0
    3.7065   -4.7317   45.4485 N   0  3  0  0  0  0  0  0  0  0  0  0
    1.5704   -4.4447   44.3453 C   0  0  1  0  0  0  0  0  0  0  0  0
    0.8283   -4.5457   45.5587 O   0  0  0  0  0  0  0  0  0  0  0  0
    0.7563   -3.6495   43.3135 C   0  0  2  0  0  0  0  0  0  0  0  0
   -0.5226   -4.2479   43.1278 O   0  0  0  0  0  0  0  0  0  0  0  0
    1.5404   -3.5063   41.9903 C   0  0  2  0  0  0  0  0  0  0  0  0
    2.7470   -2.7752   42.2953 O   0  0  0  0  0  0  0  0  0  0  0  0
    0.7930   -2.7440   40.8975 C   0  0  0  0  0  0  0  0  0  0  0  0
    1.5684   -2.6541   39.7096 O   0  0  0  0  0  0  0  0  0  0  0  0
    4.3164   -6.6099   38.8999 C   0  0  1  0  0  0  0  0  0  0  0  0
    4.0140   -7.1951   37.5808 N   0  3  0  0  0  0  0  0  0  0  0  0
    4.4290   -5.0562   38.8448 C   0  0  2  0  0  0  0  0  0  0  0  0
    5.4544   -4.6635   37.9354 O   0  0  0  0  0  0  0  0  0  0  0  0
    4.7611   -4.4634   40.2455 C   0  0  1  0  0  0  0  0  0  0  0  0
    4.6851   -3.0092   40.1660 O   0  0  0  0  0  0  0  0  0  0  0  0
    3.7783   -4.9757   41.3486 C   0  0  1  0  0  0  0  0  0  0  0  0
    3.6330   -6.5311   41.3569 C   0  0  1  0  0  0  0  0  0  0  0  0
    2.6238   -6.9784   42.3423 N   0  3  0  0  0  0  0  0  0  0  0  0
    3.2526   -7.0522   39.9468 C   0  0  0  0  0  0  0  0  0  0  0  0
    5.8407   -2.2408   39.7011 C   0  0  1  0  0  0  0  0  0  0  0  0
    5.3881   -1.3115   38.5593 C   0  0  2  0  0  0  0  0  0  0  0  0
    6.4777   -0.9880   37.7001 O   0  0  0  0  0  0  0  0  0  0  0  0
    4.9294   -0.1076   39.3959 C   0  0  1  0  0  0  0  0  0  0  0  0
    6.0327    0.0054   40.4349 C   0  0  2  0  0  0  0  0  0  0  0  0
    6.3017   -1.3552   40.7367 O   0  0  0  0  0  0  0  0  0  0  0  0
    5.6537    0.7696   41.7101 C   0  0  0  0  0  0  0  0  0  0  0  0
    5.5044    2.1523   41.4234 O   0  0  0  0  0  0  0  0  0  0  0  0
    2.1478    2.0610   35.3634 C   0  0  1  0  0  0  0  0  0  0  0  0
    3.1073    2.8315   34.6419 O   0  0  0  0  0  0  0  0  0  0  0  0
    2.6437    0.5921   35.4731 C   0  0  2  0  0  0  0  0  0  0  0  0
    1.5426   -0.2313   35.8500 O   0  0  0  0  0  0  0  0  0  0  0  0
    3.8170    0.3546   36.4794 C   0  0  1  0  0  0  0  0  0  0  0  0
    5.1168    0.6295   35.8282 N   0  3  0  0  0  0  0  0  0  0  0  0
    3.6225    1.1558   37.7935 C   0  0  1  0  0  0  0  0  0  0  0  0
    4.7766    1.1427   38.6693 O   0  0  0  0  0  0  0  0  0  0  0  0
    1.9413    2.6512   36.7811 C   0  0  1  0  0  0  0  0  0  0  0  0
    3.2006    2.5298   37.4975 O   0  0  0  0  0  0  0  0  0  0  0  0
    1.4446    4.1090   36.7828 C   0  0  0  0  0  0  0  0  0  0  0  0
    2.2804    4.9970   35.9513 N   0  3  0  0  0  0  0  0  0  0  0  0
  1  2  1  6  0  0  0
  1  3  1  0  0  0  0
  1 10  1  0  0  0  0
  3  4  1  6  0  0  0
  3  5  1  0  0  0  0
  5  6  1  1  0  0  0
  5  7  1  0  0  0  0
  7  8  1  6  0  0  0
  7  9  1  0  0  0  0
  9 10  1  0  0  0  0
  9 11  1  6  0  0  0
 11 12  1  0  0  0  0
 13 14  1  6  0  0  0
 13 15  1  0  0  0  0
 13 22  1  0  0  0  0
 15 16  1  6  0  0  0
 15 17  1  0  0  0  0
 17 18  1  6  0  0  0
 17 19  1  0  0  0  0
 19  2  1  1  0  0  0
 19 20  1  0  0  0  0
 20 21  1  1  0  0  0
 20 22  1  0  0  0  0
 23 18  1  1  0  0  0
 23 24  1  0  0  0  0
 23 28  1  0  0  0  0
 24 25  1  6  0  0  0
 24 26  1  0  0  0  0
 26 27  1  0  0  0  0
 26 38  1  6  0  0  0
 27 28  1  0  0  0  0
 27 29  1  1  0  0  0
 29 30  1  0  0  0  0
 31 32  1  1  0  0  0
 31 33  1  0  0  0  0
 31 39  1  0  0  0  0
 33 34  1  1  0  0  0
 33 35  1  0  0  0  0
 35 36  1  6  0  0  0
 35 37  1  0  0  0  0
 37 38  1  6  0  0  0
 37 40  1  0  0  0  0
 39 40  1  0  0  0  0
 39 41  1  6  0  0  0
 41 42  1  0  0  0  0
M  CHG  5   4   1  14   1  21   1  36   1  42   1
M  END
>  <CHROM.1>
117.04178504,100.73850999,-158.47976396,59.03934692,-54.46640256,-179.79051823
60.30542891,-75.24927692,68.03269163,-84.60474368,127.30819467,-47.88461826
-50.52814443,72.10299876,-70.18008834,-63.57077062,-43.43306155,-172.68643011
90.32093184,-76.61947530,-52.11797302,16.85237827,3.49241507,-1.93193189
39.80749562,1.74810664,-1.18694386,2.60974701

>  <Name>
1pbr

>  <RI>
0

>  <Rbt.Current_Directory>
/home/itssahil/PROJECTS/Mol_Feturizer/New_Systems/rnas/1pbr

>  <Rbt.Executable>
rbdock ($Id: //depot/dev/client3/rdock/2013.1/src/exe/rbdock.cxx#4 $)

>  <Rbt.Library>
libRbt.so (2013.1, Build901 2013/11/27)

>  <Rbt.Parameter_File>
/export/apps/rDock/src/rDock_2013.1_src/data/scripts/dock_solv.prm

>  <Rbt.Receptor>
prm/pocket_docking_5.prm

>  <SCORE>
-33.5511

>  <SCORE.INTER>
-36.4506

>  <SCORE.INTER.CONST>
1

>  <SCORE.INTER.POLAR>
-6.9916

>  <SCORE.INTER.ROT>
9

>  <SCORE.INTER.SOLV>
24.38

>  <SCORE.INTER.VDW>
-18.7217

>  <SCORE.INTER.norm>
-0.867871

>  <SCORE.INTRA>
2.89951

>  <SCORE.INTRA.DIHEDRAL>
4.42875

>  <SCORE.INTRA.DIHEDRAL.0>
29.7866

>  <SCORE.INTRA.POLAR>
-1.01624

>  <SCORE.INTRA.POLAR.0>
-0.984091

>  <SCORE.INTRA.REPUL>
-0.274115

>  <SCORE.INTRA.REPUL.0>
0.274115

>  <SCORE.INTRA.SOLV>
7.3231

>  <SCORE.INTRA.SOLV.lig_0>
-152.978

>  <SCORE.INTRA.VDW>
1.84937

>  <SCORE.INTRA.VDW.0>
-6.10719

>  <SCORE.INTRA.norm>
0.069036

>  <SCORE.RESTR>
0

>  <SCORE.RESTR.CAVITY>
0

>  <SCORE.RESTR.norm>
0

>  <SCORE.SYSTEM>
0

>  <SCORE.SYSTEM.CONST>
0

>  <SCORE.SYSTEM.DIHEDRAL>
0

>  <SCORE.SYSTEM.SOLV>
0

>  <SCORE.SYSTEM.norm>
0

>  <SCORE.heavy>
42

>  <SCORE.norm>
-0.798835

>  <RMSD>
3.946

$$$$
1pbr
 OpenBabel11021811403D
libRbt.so/2013.1/901 2013/11/27
 42 45  0  0  0  0  0  0  0  0999 V2000
    2.1018   -2.0179   43.9185 C   0  0  2  0  0  0  0  0  0  0  0  0
    0.8137   -1.6222   43.3823 O   0  0  0  0  0  0  0  0  0  0  0  0
    2.6227   -0.9594   44.9608 C   0  0  2  0  0  0  0  0  0  0  0  0
    1.5787   -0.4314   45.8772 N   0  3  0  0  0  0  0  0  0  0  0  0
    3.2435    0.2656   44.2632 C   0  0  1  0  0  0  0  0  0  0  0  0
    3.9414    1.0823   45.2010 O   0  0  0  0  0  0  0  0  0  0  0  0
    4.2055   -0.1645   43.1455 C   0  0  2  0  0  0  0  0  0  0  0  0
    4.8023    0.9790   42.5418 O   0  0  0  0  0  0  0  0  0  0  0  0
    3.4841   -1.0666   42.1197 C   0  0  2  0  0  0  0  0  0  0  0  0
    3.0429   -2.2416   42.8324 O   0  0  0  0  0  0  0  0  0  0  0  0
    4.3650   -1.5248   40.9586 C   0  0  0  0  0  0  0  0  0  0  0  0
    5.5794   -2.0957   41.4275 O   0  0  0  0  0  0  0  0  0  0  0  0
    0.1766   -5.3594   41.4239 C   0  0  1  0  0  0  0  0  0  0  0  0
   -0.3568   -6.5281   40.7003 N   0  3  0  0  0  0  0  0  0  0  0  0
    0.3048   -4.1054   40.5069 C   0  0  2  0  0  0  0  0  0  0  0  0
    1.1664   -4.3808   39.4049 O   0  0  0  0  0  0  0  0  0  0  0  0
    0.8815   -2.8895   41.2895 C   0  0  1  0  0  0  0  0  0  0  0  0
    0.8181   -1.7111   40.4325 O   0  0  0  0  0  0  0  0  0  0  0  0
    0.0930   -2.6136   42.6114 C   0  0  1  0  0  0  0  0  0  0  0  0
   -0.0755   -3.8909   43.4951 C   0  0  1  0  0  0  0  0  0  0  0  0
   -0.9090   -3.6217   44.6877 N   0  3  0  0  0  0  0  0  0  0  0  0
   -0.7002   -5.0469   42.6717 C   0  0  0  0  0  0  0  0  0  0  0  0
    0.6497   -0.3838   41.0255 C   0  0  1  0  0  0  0  0  0  0  0  0
    1.6877    0.5693   40.4041 C   0  0  2  0  0  0  0  0  0  0  0  0
    1.9820    1.6502   41.2846 O   0  0  0  0  0  0  0  0  0  0  0  0
    0.8907    1.0232   39.1717 C   0  0  1  0  0  0  0  0  0  0  0  0
   -0.4968    1.2517   39.7480 C   0  0  2  0  0  0  0  0  0  0  0  0
   -0.6262    0.1698   40.6576 O   0  0  0  0  0  0  0  0  0  0  0  0
   -1.6407    1.2288   38.7260 C   0  0  0  0  0  0  0  0  0  0  0  0
   -2.3628    2.4505   38.7753 O   0  0  0  0  0  0  0  0  0  0  0  0
    3.8531    0.9508   35.2061 C   0  0  1  0  0  0  0  0  0  0  0  0
    2.7663    0.5373   34.3799 O   0  0  0  0  0  0  0  0  0  0  0  0
    3.7569    2.4818   35.4562 C   0  0  2  0  0  0  0  0  0  0  0  0
    5.0133    2.9406   35.9496 O   0  0  0  0  0  0  0  0  0  0  0  0
    2.6334    2.9293   36.4478 C   0  0  1  0  0  0  0  0  0  0  0  0
    1.3456    3.0754   35.7340 N   0  3  0  0  0  0  0  0  0  0  0  0
    2.5358    1.9851   37.6749 C   0  0  1  0  0  0  0  0  0  0  0  0
    1.3789    2.2245   38.5135 O   0  0  0  0  0  0  0  0  0  0  0  0
    3.8170    0.1961   36.5588 C   0  0  1  0  0  0  0  0  0  0  0  0
    2.5963    0.5826   37.2475 O   0  0  0  0  0  0  0  0  0  0  0  0
    3.9108   -1.3350   36.4206 C   0  0  0  0  0  0  0  0  0  0  0  0
    4.2103   -1.7656   35.0410 N   0  3  0  0  0  0  0  0  0  0  0  0
  1  2  1  6  0  0  0
  1  3  1  0  0  0  0
  1 10  1  0  0  0  0
  3  4  1  6  0  0  0
  3  5  1  0  0  0  0
  5  6  1  1  0  0  0
  5  7  1  0  0  0  0
  7  8  1  6  0  0  0
  7  9  1  0  0  0  0
  9 10  1  0  0  0  0
  9 11  1  6  0  0  0
 11 12  1  0  0  0  0
 13 14  1  6  0  0  0
 13 15  1  0  0  0  0
 13 22  1  0  0  0  0
 15 16  1  6  0  0  0
 15 17  1  0  0  0  0
 17 18  1  6  0  0  0
 17 19  1  0  0  0  0
 19  2  1  1  0  0  0
 19 20  1  0  0  0  0
 20 21  1  1  0  0  0
 20 22  1  0  0  0  0
 23 18  1  6  0  0  0
 23 24  1  0  0  0  0
 23 28  1  0  0  0  0
 24 25  1  1  0  0  0
 24 26  1  0  0  0  0
 26 27  1  0  0  0  0
 26 38  1  1  0  0  0
 27 28  1  0  0  0  0
 27 29  1  6  0  0  0
 29 30  1  0  0  0  0
 31 32  1  6  0  0  0
 31 33  1  0  0  0  0
 31 39  1  0  0  0  0
 33 34  1  1  0  0  0
 33 35  1  0  0  0  0
 35 36  1  6  0  0  0
 35 37  1  0  0  0  0
 37 38  1  6  0  0  0
 37 40  1  0  0  0  0
 39 40  1  0  0  0  0
 39 41  1  6  0  0  0
 41 42  1  0  0  0  0
M  CHG  5   4   1  14   1  21   1  36   1  42   1
M  END
>  <CHROM.1>
-168.48043197,-67.15677260,-170.24027342,89.34223264,-74.00945903,51.22602123
-62.22025893,105.54869046,95.85274233,149.85221543,131.87938455,-45.97597720
-61.03832154,78.22363886,-122.82223607,-96.62659817,91.30025907,57.80715820
98.08690078,149.25670363,8.22815383,164.77782666,1.88695200,-0.63266068,40.27317403
-1.94698737,-0.99657975,-1.36713644

>  <Name>
1pbr

>  <RI>
0

>  <Rbt.Current_Directory>
/home/itssahil/PROJECTS/Mol_Feturizer/New_Systems/rnas/1pbr

>  <Rbt.Executable>
rbdock ($Id: //depot/dev/client3/rdock/2013.1/src/exe/rbdock.cxx#4 $)

>  <Rbt.Library>
libRbt.so (2013.1, Build901 2013/11/27)

>  <Rbt.Parameter_File>
/export/apps/rDock/src/rDock_2013.1_src/data/scripts/dock_solv.prm

>  <Rbt.Receptor>
prm/pocket_docking_4.prm

>  <SCORE>
-41.8555

>  <SCORE.INTER>
-57.6077

>  <SCORE.INTER.CONST>
1

>  <SCORE.INTER.POLAR>
-9.50225

>  <SCORE.INTER.ROT>
9

>  <SCORE.INTER.SOLV>
30.8172

>  <SCORE.INTER.VDW>
-26.6034

>  <SCORE.INTER.norm>
-1.37161

>  <SCORE.INTRA>
15.4128

>  <SCORE.INTRA.DIHEDRAL>
21.8197

>  <SCORE.INTRA.DIHEDRAL.0>
29.7866

>  <SCORE.INTRA.POLAR>
0.238242

>  <SCORE.INTRA.POLAR.0>
-0.984091

>  <SCORE.INTRA.REPUL>
-0.236595

>  <SCORE.INTRA.REPUL.0>
0.274115

>  <SCORE.INTRA.SOLV>
0.750768

>  <SCORE.INTRA.SOLV.lig_0>
-152.978

>  <SCORE.INTRA.VDW>
4.50046

>  <SCORE.INTRA.VDW.0>
-6.10719

>  <SCORE.INTRA.norm>
0.366971

>  <SCORE.RESTR>
0.339421

>  <SCORE.RESTR.CAVITY>
0.339421

>  <SCORE.RESTR.norm>
0.00808144

>  <SCORE.SYSTEM>
0

>  <SCORE.SYSTEM.CONST>
0

>  <SCORE.SYSTEM.DIHEDRAL>
0

>  <SCORE.SYSTEM.SOLV>
0

>  <SCORE.SYSTEM.norm>
0

>  <SCORE.heavy>
42

>  <SCORE.norm>
-0.996559

>  <RMSD>
3.982

$$$$
1pbr
 OpenBabel11021811403D
libRbt.so/2013.1/901 2013/11/27
 42 45  0  0  0  0  0  0  0  0999 V2000
    4.0666   -3.9065   43.0833 C   0  0  2  0  0  0  0  0  0  0  0  0
    4.4638   -5.1413   42.4347 O   0  0  0  0  0  0  0  0  0  0  0  0
    4.3939   -3.9527   44.6224 C   0  0  2  0  0  0  0  0  0  0  0  0
    5.7061   -4.5658   44.9552 N   0  3  0  0  0  0  0  0  0  0  0  0
    3.3341   -4.7519   45.4039 C   0  0  1  0  0  0  0  0  0  0  0  0
    3.4934   -4.5649   46.8086 O   0  0  0  0  0  0  0  0  0  0  0  0
    1.9141   -4.3359   44.9912 C   0  0  2  0  0  0  0  0  0  0  0  0
    0.9491   -5.0532   45.7545 O   0  0  0  0  0  0  0  0  0  0  0  0
    1.7133   -4.5101   43.4694 C   0  0  2  0  0  0  0  0  0  0  0  0
    2.6618   -3.6378   42.8192 O   0  0  0  0  0  0  0  0  0  0  0  0
    0.3168   -4.1377   42.9743 C   0  0  0  0  0  0  0  0  0  0  0  0
   -0.0160   -2.8019   43.3284 O   0  0  0  0  0  0  0  0  0  0  0  0
    6.2262   -5.7938   38.6038 C   0  0  1  0  0  0  0  0  0  0  0  0
    6.5322   -5.9157   37.1667 N   0  3  0  0  0  0  0  0  0  0  0  0
    6.0512   -4.3095   39.0463 C   0  0  2  0  0  0  0  0  0  0  0  0
    7.2379   -3.5667   38.7770 O   0  0  0  0  0  0  0  0  0  0  0  0
    5.7417   -4.2062   40.5685 C   0  0  1  0  0  0  0  0  0  0  0  0
    5.4220   -2.8191   40.8860 O   0  0  0  0  0  0  0  0  0  0  0  0
    4.5477   -5.1241   40.9893 C   0  0  1  0  0  0  0  0  0  0  0  0
    4.7099   -6.5963   40.4924 C   0  0  1  0  0  0  0  0  0  0  0  0
    3.5213   -7.4150   40.8187 N   0  3  0  0  0  0  0  0  0  0  0  0
    4.9648   -6.6323   38.9633 C   0  0  0  0  0  0  0  0  0  0  0  0
    6.3951   -1.7621   40.6072 C   0  0  1  0  0  0  0  0  0  0  0  0
    5.9383   -0.9887   39.3561 C   0  0  2  0  0  0  0  0  0  0  0  0
    7.0452   -0.3762   38.7004 O   0  0  0  0  0  0  0  0  0  0  0  0
    5.0196    0.0409   40.0313 C   0  0  1  0  0  0  0  0  0  0  0  0
    5.8294    0.4485   41.2510 C   0  0  2  0  0  0  0  0  0  0  0  0
    6.3914   -0.7874   41.6652 O   0  0  0  0  0  0  0  0  0  0  0  0
    5.0196    1.0755   42.3933 C   0  0  0  0  0  0  0  0  0  0  0  0
    4.3347    2.2294   41.9288 O   0  0  0  0  0  0  0  0  0  0  0  0
    2.5539    1.4431   35.4713 C   0  0  1  0  0  0  0  0  0  0  0  0
    3.3108    2.5393   34.9610 O   0  0  0  0  0  0  0  0  0  0  0  0
    3.4893    0.2174   35.6666 C   0  0  2  0  0  0  0  0  0  0  0  0
    2.6835   -0.9498   35.8106 O   0  0  0  0  0  0  0  0  0  0  0  0
    4.4662    0.3076   36.8846 C   0  0  1  0  0  0  0  0  0  0  0  0
    5.6921    1.0451   36.5072 N   0  3  0  0  0  0  0  0  0  0  0  0
    3.7720    0.8992   38.1396 C   0  0  1  0  0  0  0  0  0  0  0  0
    4.6792    1.2038   39.2274 O   0  0  0  0  0  0  0  0  0  0  0  0
    1.9012    1.8244   36.8238 C   0  0  1  0  0  0  0  0  0  0  0  0
    2.9714    2.0739   37.7756 O   0  0  0  0  0  0  0  0  0  0  0  0
    0.9481    3.0312   36.7374 C   0  0  0  0  0  0  0  0  0  0  0  0
    0.3639    3.3909   38.0442 N   0  3  0  0  0  0  0  0  0  0  0  0
  1  2  1  1  0  0  0
  1  3  1  0  0  0  0
  1 10  1  0  0  0  0
  3  4  1  6  0  0  0
  3  5  1  0  0  0  0
  5  6  1  1  0  0  0
  5  7  1  0  0  0  0
  7  8  1  1  0  0  0
  7  9  1  0  0  0  0
  9 10  1  0  0  0  0
  9 11  1  1  0  0  0
 11 12  1  0  0  0  0
 13 14  1  6  0  0  0
 13 15  1  0  0  0  0
 13 22  1  0  0  0  0
 15 16  1  1  0  0  0
 15 17  1  0  0  0  0
 17 18  1  6  0  0  0
 17 19  1  0  0  0  0
 19  2  1  1  0  0  0
 19 20  1  0  0  0  0
 20 21  1  6  0  0  0
 20 22  1  0  0  0  0
 23 18  1  1  0  0  0
 23 24  1  0  0  0  0
 23 28  1  0  0  0  0
 24 25  1  1  0  0  0
 24 26  1  0  0  0  0
 26 27  1  0  0  0  0
 26 38  1  6  0  0  0
 27 28  1  0  0  0  0
 27 29  1  1  0  0  0
 29 30  1  0  0  0  0
 31 32  1  1  0  0  0
 31 33  1  0  0  0  0
 31 39  1  0  0  0  0
 33 34  1  1  0  0  0
 33 35  1  0  0  0  0
 35 36  1  6  0  0  0
 35 37  1  0  0  0  0
 37 38  1  1  0  0  0
 37 40  1  0  0  0  0
 39 40  1  0  0  0  0
 39 41  1  6  0  0  0
 41 42  1  0  0  0  0
M  CHG  5   4   1  14   1  21   1  36   1  42   1
M  END
>  <CHROM.1>
-164.55728202,68.11437157,-175.43842044,-178.23505873,-58.45783875,56.45270437
66.57799655,50.62697274,67.15887226,-58.39210554,104.52431140,-176.84673874
-71.23308843,71.20908618,-58.20272582,-177.55512059,176.53279628,-61.22311467
61.51264375,-81.58484322,-178.73333869,80.05788916,4.05454789,-2.04254752
40.36245670,1.56619746,-0.91962284,2.34279160

>  <Name>
1pbr

>  <RI>
0

>  <Rbt.Current_Directory>
/home/itssahil/PROJECTS/Mol_Feturizer/New_Systems/rnas/1pbr

>  <Rbt.Executable>
rbdock ($Id: //depot/dev/client3/rdock/2013.1/src/exe/rbdock.cxx#4 $)

>  <Rbt.Library>
libRbt.so (2013.1, Build901 2013/11/27)

>  <Rbt.Parameter_File>
/export/apps/rDock/src/rDock_2013.1_src/data/scripts/dock_solv.prm

>  <Rbt.Receptor>
prm/pocket_docking_5.prm

>  <SCORE>
-45.8571

>  <SCORE.INTER>
-38.8028

>  <SCORE.INTER.CONST>
1

>  <SCORE.INTER.POLAR>
-6.60291

>  <SCORE.INTER.ROT>
9

>  <SCORE.INTER.SOLV>
20.0331

>  <SCORE.INTER.VDW>
-20.1365

>  <SCORE.INTER.norm>
-0.923876

>  <SCORE.INTRA>
-7.0781

>  <SCORE.INTRA.DIHEDRAL>
-16.1625

>  <SCORE.INTRA.DIHEDRAL.0>
29.7866

>  <SCORE.INTRA.POLAR>
0.431838

>  <SCORE.INTRA.POLAR.0>
-0.984091

>  <SCORE.INTRA.REPUL>
-0.274115

>  <SCORE.INTRA.REPUL.0>
0.274115

>  <SCORE.INTRA.SOLV>
-2.05835

>  <SCORE.INTRA.SOLV.lig_0>
-152.978

>  <SCORE.INTRA.VDW>
1.93465

>  <SCORE.INTRA.VDW.0>
-6.10719

>  <SCORE.INTRA.norm>
-0.168526

>  <SCORE.RESTR>
0.0237548

>  <SCORE.RESTR.CAVITY>
0.0237548

>  <SCORE.RESTR.norm>
0.00056559

>  <SCORE.SYSTEM>
0

>  <SCORE.SYSTEM.CONST>
0

>  <SCORE.SYSTEM.DIHEDRAL>
0

>  <SCORE.SYSTEM.SOLV>
0

>  <SCORE.SYSTEM.norm>
0

>  <SCORE.heavy>
42

>  <SCORE.norm>
-1.09184

>  <RMSD>
4.109

$$$$
1pbr
 OpenBabel11021811403D
libRbt.so/2013.1/901 2013/11/27
 42 45  0  0  0  0  0  0  0  0999 V2000
    4.0720   -2.3796   42.1296 C   0  0  2  0  0  0  0  0  0  0  0  0
    3.9764   -3.2539   43.2827 O   0  0  0  0  0  0  0  0  0  0  0  0
    4.7123   -0.9975   42.5271 C   0  0  2  0  0  0  0  0  0  0  0  0
    5.8584   -1.0972   43.4678 N   0  3  0  0  0  0  0  0  0  0  0  0
    3.6837   -0.0678   43.1980 C   0  0  1  0  0  0  0  0  0  0  0  0
    4.1971    1.2578   43.3102 O   0  0  0  0  0  0  0  0  0  0  0  0
    2.3669   -0.0401   42.4074 C   0  0  2  0  0  0  0  0  0  0  0  0
    1.4445    0.8572   43.0177 O   0  0  0  0  0  0  0  0  0  0  0  0
    1.7915   -1.4654   42.2524 C   0  0  2  0  0  0  0  0  0  0  0  0
    2.7642   -2.2314   41.5106 O   0  0  0  0  0  0  0  0  0  0  0  0
    0.4668   -1.5280   41.4938 C   0  0  0  0  0  0  0  0  0  0  0  0
    0.0732   -2.8728   41.2549 O   0  0  0  0  0  0  0  0  0  0  0  0
    4.0711   -7.5188   43.3781 C   0  0  1  0  0  0  0  0  0  0  0  0
    3.7899   -8.9632   43.2849 N   0  3  0  0  0  0  0  0  0  0  0  0
    4.1990   -6.8505   41.9758 C   0  0  2  0  0  0  0  0  0  0  0  0
    5.2461   -7.4626   41.2264 O   0  0  0  0  0  0  0  0  0  0  0  0
    4.5083   -5.3298   42.1005 C   0  0  1  0  0  0  0  0  0  0  0  0
    4.4473   -4.7314   40.7718 O   0  0  0  0  0  0  0  0  0  0  0  0
    3.4989   -4.6001   43.0459 C   0  0  1  0  0  0  0  0  0  0  0  0
    3.3391   -5.3114   44.4276 C   0  0  1  0  0  0  0  0  0  0  0  0
    2.3062   -4.6567   45.2607 N   0  3  0  0  0  0  0  0  0  0  0  0
    2.9824   -6.8080   44.2342 C   0  0  0  0  0  0  0  0  0  0  0  0
    5.5944   -4.8366   39.8691 C   0  0  1  0  0  0  0  0  0  0  0  0
    5.1400   -4.4556   38.4477 C   0  0  2  0  0  0  0  0  0  0  0  0
    5.9727   -5.0629   37.4639 O   0  0  0  0  0  0  0  0  0  0  0  0
    5.3476   -2.9356   38.5277 C   0  0  1  0  0  0  0  0  0  0  0  0
    6.6850   -2.8273   39.2411 C   0  0  2  0  0  0  0  0  0  0  0  0
    6.5919   -3.8584   40.2121 O   0  0  0  0  0  0  0  0  0  0  0  0
    6.9562   -1.4785   39.9200 C   0  0  0  0  0  0  0  0  0  0  0  0
    8.2605   -1.4688   40.4812 O   0  0  0  0  0  0  0  0  0  0  0  0
    5.0424    1.9836   36.3878 C   0  0  1  0  0  0  0  0  0  0  0  0
    4.3792    1.8084   35.1370 O   0  0  0  0  0  0  0  0  0  0  0  0
    4.1445    1.4300   37.5292 C   0  0  2  0  0  0  0  0  0  0  0  0
    4.6274    1.9354   38.7717 O   0  0  0  0  0  0  0  0  0  0  0  0
    4.0602   -0.1290   37.6189 C   0  0  1  0  0  0  0  0  0  0  0  0
    3.0200   -0.6417   36.7002 N   0  3  0  0  0  0  0  0  0  0  0  0
    5.4424   -0.7964   37.3932 C   0  0  1  0  0  0  0  0  0  0  0  0
    5.3863   -2.2373   37.2527 O   0  0  0  0  0  0  0  0  0  0  0  0
    6.4018    1.2403   36.3837 C   0  0  1  0  0  0  0  0  0  0  0  0
    6.1272   -0.1812   36.2504 O   0  0  0  0  0  0  0  0  0  0  0  0
    7.3708    1.7196   35.2868 C   0  0  0  0  0  0  0  0  0  0  0  0
    8.0222    0.6033   34.5740 N   0  3  0  0  0  0  0  0  0  0  0  0
  1  2  1  1  0  0  0
  1  3  1  0  0  0  0
  1 10  1  0  0  0  0
  3  4  1  1  0  0  0
  3  5  1  0  0  0  0
  5  6  1  6  0  0  0
  5  7  1  0  0  0  0
  7  8  1  1  0  0  0
  7  9  1  0  0  0  0
  9 10  1  0  0  0  0
  9 11  1  6  0  0  0
 11 12  1  0  0  0  0
 13 14  1  6  0  0  0
 13 15  1  0  0  0  0
 13 22  1  0  0  0  0
 15 16  1  6  0  0  0
 15 17  1  0  0  0  0
 17 18  1  6  0  0  0
 17 19  1  0  0  0  0
 19  2  1  1  0  0  0
 19 20  1  0  0  0  0
 20 21  1  1  0  0  0
 20 22  1  0  0  0  0
 23 18  1  1  0  0  0
 23 24  1  0  0  0  0
 23 28  1  0  0  0  0
 24 25  1  6  0  0  0
 24 26  1  0  0  0  0
 26 27  1  0  0  0  0
 26 38  1  6  0  0  0
 27 28  1  0  0  0  0
 27 29  1  1  0  0  0
 29 30  1  0  0  0  0
 31 32  1  6  0  0  0
 31 33  1  0  0  0  0
 31 39  1  0  0  0  0
 33 34  1  1  0  0  0
 33 35  1  0  0  0  0
 35 36  1  6  0  0  0
 35 37  1  0  0  0  0
 37 38  1  6  0  0  0
 37 40  1  0  0  0  0
 39 40  1  0  0  0  0
 39 41  1  6  0  0  0
 41 42  1  0  0  0  0
M  CHG  5   4   1  14   1  21   1  36   1  42   1
M  END
>  <CHROM.1>
-175.42887006,62.77371827,176.16907490,-67.50433746,55.11016142,173.32225655
-59.59335192,64.15720958,65.15416266,-81.34171255,165.53378499,176.28112867
159.83130997,173.87924426,-176.53350430,179.56899351,-82.74140276,178.53382082
-56.85094470,-82.80836325,-134.86583748,-51.95779228,4.48970694,-2.28140805
40.29639588,2.01570758,-0.97267682,2.69156702

>  <Name>
1pbr

>  <RI>
0

>  <Rbt.Current_Directory>
/home/itssahil/PROJECTS/Mol_Feturizer/New_Systems/rnas/1pbr

>  <Rbt.Executable>
rbdock ($Id: //depot/dev/client3/rdock/2013.1/src/exe/rbdock.cxx#4 $)

>  <Rbt.Library>
libRbt.so (2013.1, Build901 2013/11/27)

>  <Rbt.Parameter_File>
/export/apps/rDock/src/rDock_2013.1_src/data/scripts/dock_solv.prm

>  <Rbt.Receptor>
prm/pocket_docking_7.prm

>  <SCORE>
-34.55

>  <SCORE.INTER>
-28.189

>  <SCORE.INTER.CONST>
1

>  <SCORE.INTER.POLAR>
-4.9746

>  <SCORE.INTER.ROT>
9

>  <SCORE.INTER.SOLV>
16.5612

>  <SCORE.INTER.VDW>
-17.331

>  <SCORE.INTER.norm>
-0.671166

>  <SCORE.INTRA>
-6.36102

>  <SCORE.INTRA.DIHEDRAL>
-13.5839

>  <SCORE.INTRA.DIHEDRAL.0>
29.7866

>  <SCORE.INTRA.POLAR>
0.861164

>  <SCORE.INTRA.POLAR.0>
-0.984091

>  <SCORE.INTRA.REPUL>
-0.274115

>  <SCORE.INTRA.REPUL.0>
0.274115

>  <SCORE.INTRA.SOLV>
-2.70186

>  <SCORE.INTRA.SOLV.lig_0>
-152.978

>  <SCORE.INTRA.VDW>
0.224482

>  <SCORE.INTRA.VDW.0>
-6.10719

>  <SCORE.INTRA.norm>
-0.151453

>  <SCORE.RESTR>
0

>  <SCORE.RESTR.CAVITY>
0

>  <SCORE.RESTR.norm>
0

>  <SCORE.SYSTEM>
0

>  <SCORE.SYSTEM.CONST>
0

>  <SCORE.SYSTEM.DIHEDRAL>
0

>  <SCORE.SYSTEM.SOLV>
0

>  <SCORE.SYSTEM.norm>
0

>  <SCORE.heavy>
42

>  <SCORE.norm>
-0.822619

>  <RMSD>
4.127

$$$$
1pbr
 OpenBabel11021811403D
libRbt.so/2013.1/901 2013/11/27
 42 45  0  0  0  0  0  0  0  0999 V2000
    2.6160   -1.3191   42.2058 C   0  0  2  0  0  0  0  0  0  0  0  0
    1.9806   -1.4196   43.5056 O   0  0  0  0  0  0  0  0  0  0  0  0
    3.9039   -0.4169   42.2812 C   0  0  2  0  0  0  0  0  0  0  0  0
    4.7397   -0.6358   43.4902 N   0  3  0  0  0  0  0  0  0  0  0  0
    3.5481    1.0818   42.2686 C   0  0  1  0  0  0  0  0  0  0  0  0
    4.7149    1.8772   42.0707 O   0  0  0  0  0  0  0  0  0  0  0  0
    2.5230    1.3964   41.1687 C   0  0  2  0  0  0  0  0  0  0  0  0
    2.2396    2.7919   41.1438 O   0  0  0  0  0  0  0  0  0  0  0  0
    1.2511    0.5373   41.3440 C   0  0  2  0  0  0  0  0  0  0  0  0
    1.6574   -0.8423   41.2214 O   0  0  0  0  0  0  0  0  0  0  0  0
    0.1667    0.8020   40.3008 C   0  0  0  0  0  0  0  0  0  0  0  0
   -1.0442    1.2257   40.9129 O   0  0  0  0  0  0  0  0  0  0  0  0
   -0.6828   -4.5024   44.7747 C   0  0  1  0  0  0  0  0  0  0  0  0
   -1.8310   -5.3899   45.0349 N   0  3  0  0  0  0  0  0  0  0  0  0
   -0.2325   -4.5414   43.2829 C   0  0  2  0  0  0  0  0  0  0  0  0
    0.1330   -5.8674   42.9080 O   0  0  0  0  0  0  0  0  0  0  0  0
    0.9879   -3.6070   43.0362 C   0  0  1  0  0  0  0  0  0  0  0  0
    1.2529   -3.5551   41.6030 O   0  0  0  0  0  0  0  0  0  0  0  0
    0.7374   -2.1591   43.5712 C   0  0  1  0  0  0  0  0  0  0  0  0
    0.2342   -2.1374   45.0500 C   0  0  1  0  0  0  0  0  0  0  0  0
   -0.0886   -0.7636   45.4951 N   0  3  0  0  0  0  0  0  0  0  0  0
   -1.0109   -3.0464   45.2173 C   0  0  0  0  0  0  0  0  0  0  0  0
    1.4372   -4.7952   40.8480 C   0  0  1  0  0  0  0  0  0  0  0  0
    1.6760   -4.4409   39.3683 C   0  0  2  0  0  0  0  0  0  0  0  0
    1.2935   -5.5168   38.5161 O   0  0  0  0  0  0  0  0  0  0  0  0
    3.1991   -4.2450   39.4102 C   0  0  1  0  0  0  0  0  0  0  0  0
    3.6532   -5.4111   40.2725 C   0  0  2  0  0  0  0  0  0  0  0  0
    2.6415   -5.4612   41.2669 O   0  0  0  0  0  0  0  0  0  0  0  0
    5.0325   -5.2444   40.9231 C   0  0  0  0  0  0  0  0  0  0  0  0
    5.0302   -4.1189   41.7888 O   0  0  0  0  0  0  0  0  0  0  0  0
    5.1336   -0.4582   36.5090 C   0  0  1  0  0  0  0  0  0  0  0  0
    6.5134   -0.6310   36.8267 O   0  0  0  0  0  0  0  0  0  0  0  0
    4.7015   -1.5421   35.4822 C   0  0  2  0  0  0  0  0  0  0  0  0
    3.4633   -1.1450   34.8976 O   0  0  0  0  0  0  0  0  0  0  0  0
    4.5448   -2.9871   36.0594 C   0  0  1  0  0  0  0  0  0  0  0  0
    5.8523   -3.6793   36.0752 N   0  3  0  0  0  0  0  0  0  0  0  0
    3.8508   -2.9830   37.4469 C   0  0  1  0  0  0  0  0  0  0  0  0
    3.8723   -4.2651   38.1214 O   0  0  0  0  0  0  0  0  0  0  0  0
    4.2688   -0.5756   37.7892 C   0  0  1  0  0  0  0  0  0  0  0  0
    4.4153   -1.9295   38.2983 O   0  0  0  0  0  0  0  0  0  0  0  0
    4.6168    0.4615   38.8734 C   0  0  0  0  0  0  0  0  0  0  0  0
    4.6161    1.8452   38.3598 N   0  3  0  0  0  0  0  0  0  0  0  0
  1  2  1  1  0  0  0
  1  3  1  0  0  0  0
  1 10  1  0  0  0  0
  3  4  1  1  0  0  0
  3  5  1  0  0  0  0
  5  6  1  6  0  0  0
  5  7  1  0  0  0  0
  7  8  1  1  0  0  0
  7  9  1  0  0  0  0
  9 10  1  0  0  0  0
  9 11  1  6  0  0  0
 11 12  1  0  0  0  0
 13 14  1  6  0  0  0
 13 15  1  0  0  0  0
 13 22  1  0  0  0  0
 15 16  1  1  0  0  0
 15 17  1  0  0  0  0
 17 18  1  6  0  0  0
 17 19  1  0  0  0  0
 19  2  1  1  0  0  0
 19 20  1  0  0  0  0
 20 21  1  6  0  0  0
 20 22  1  0  0  0  0
 23 18  1  1  0  0  0
 23 24  1  0  0  0  0
 23 28  1  0  0  0  0
 24 25  1  6  0  0  0
 24 26  1  0  0  0  0
 26 27  1  0  0  0  0
 26 38  1  6  0  0  0
 27 28  1  0  0  0  0
 27 29  1  1  0  0  0
 29 30  1  0  0  0  0
 31 32  1  1  0  0  0
 31 33  1  0  0  0  0
 31 39  1  0  0  0  0
 33 34  1  1  0  0  0
 33 35  1  0  0  0  0
 35 36  1  1  0  0  0
 35 37  1  0  0  0  0
 37 38  1  1  0  0  0
 37 40  1  0  0  0  0
 39 40  1  0  0  0  0
 39 41  1  1  0  0  0
 41 42  1  0  0  0  0
M  CHG  5   4   1  14   1  21   1  36   1  42   1
M  END
>  <CHROM.1>
176.57538117,57.24497191,-38.30936600,-173.92371905,-39.53389562,-120.83938630
66.91572307,176.97758422,71.14395199,-53.53360477,179.06854238,-173.47362669
146.18386300,84.11947210,61.23469196,-60.01669685,176.92888391,73.75353268
-45.03542043,-179.10428145,52.41386378,29.92884626,2.57613071,-2.05404994
40.68681252,3.13126239,-0.98718525,-2.89205120

>  <Name>
1pbr

>  <RI>
0

>  <Rbt.Current_Directory>
/home/itssahil/PROJECTS/Mol_Feturizer/New_Systems/rnas/1pbr

>  <Rbt.Executable>
rbdock ($Id: //depot/dev/client3/rdock/2013.1/src/exe/rbdock.cxx#4 $)

>  <Rbt.Library>
libRbt.so (2013.1, Build901 2013/11/27)

>  <Rbt.Parameter_File>
/export/apps/rDock/src/rDock_2013.1_src/data/scripts/dock_solv.prm

>  <Rbt.Receptor>
prm/pocket_docking_6.prm

>  <SCORE>
-53.0029

>  <SCORE.INTER>
-50.5423

>  <SCORE.INTER.CONST>
1

>  <SCORE.INTER.POLAR>
-8.29852

>  <SCORE.INTER.ROT>
9

>  <SCORE.INTER.SOLV>
31.0327

>  <SCORE.INTER.VDW>
-25.9773

>  <SCORE.INTER.norm>
-1.20339

>  <SCORE.INTRA>
-2.46064

>  <SCORE.INTRA.DIHEDRAL>
-9.54857

>  <SCORE.INTRA.DIHEDRAL.0>
29.7866

>  <SCORE.INTRA.POLAR>
0.906105

>  <SCORE.INTRA.POLAR.0>
-0.984091

>  <SCORE.INTRA.REPUL>
-0.206064

>  <SCORE.INTRA.REPUL.0>
0.274115

>  <SCORE.INTRA.SOLV>
-0.416651

>  <SCORE.INTRA.SOLV.lig_0>
-152.978

>  <SCORE.INTRA.VDW>
0.471535

>  <SCORE.INTRA.VDW.0>
-6.10719

>  <SCORE.INTRA.norm>
-0.0585866

>  <SCORE.RESTR>
0

>  <SCORE.RESTR.CAVITY>
0

>  <SCORE.RESTR.norm>
0

>  <SCORE.SYSTEM>
0

>  <SCORE.SYSTEM.CONST>
0

>  <SCORE.SYSTEM.DIHEDRAL>
0

>  <SCORE.SYSTEM.SOLV>
0

>  <SCORE.SYSTEM.norm>
0

>  <SCORE.heavy>
42

>  <SCORE.norm>
-1.26197

>  <RMSD>
4.142

$$$$
1pbr
 OpenBabel11021811403D
libRbt.so/2013.1/901 2013/11/27
 42 45  0  0  0  0  0  0  0  0999 V2000
    4.5397   -1.7517   42.7219 C   0  0  2  0  0  0  0  0  0  0  0  0
    3.9784   -1.3466   43.9963 O   0  0  0  0  0  0  0  0  0  0  0  0
    6.0427   -2.1900   42.8868 C   0  0  2  0  0  0  0  0  0  0  0  0
    6.3180   -3.0027   44.1000 N   0  3  0  0  0  0  0  0  0  0  0  0
    6.9837   -0.9727   42.9607 C   0  0  1  0  0  0  0  0  0  0  0  0
    8.3457   -1.3781   42.8431 O   0  0  0  0  0  0  0  0  0  0  0  0
    6.6568    0.0452   41.8576 C   0  0  2  0  0  0  0  0  0  0  0  0
    7.5638    1.1417   41.9144 O   0  0  0  0  0  0  0  0  0  0  0  0
    5.1809    0.4929   41.9459 C   0  0  2  0  0  0  0  0  0  0  0  0
    4.3729   -0.6863   41.7460 O   0  0  0  0  0  0  0  0  0  0  0  0
    4.7744    1.5244   40.8948 C   0  0  0  0  0  0  0  0  0  0  0  0
    3.4544    1.9997   41.1231 O   0  0  0  0  0  0  0  0  0  0  0  0
   -0.1051   -2.2275   44.8662 C   0  0  1  0  0  0  0  0  0  0  0  0
   -1.5672   -2.2148   45.0565 N   0  3  0  0  0  0  0  0  0  0  0  0
    0.2946   -2.1939   43.3600 C   0  0  2  0  0  0  0  0  0  0  0  0
   -0.2556   -3.3161   42.6740 O   0  0  0  0  0  0  0  0  0  0  0  0
    1.8412   -2.2210   43.1849 C   0  0  1  0  0  0  0  0  0  0  0  0
    2.1543   -2.0166   41.7752 O   0  0  0  0  0  0  0  0  0  0  0  0
    2.5490   -1.1192   44.0394 C   0  0  1  0  0  0  0  0  0  0  0  0
    2.0984   -1.1289   45.5353 C   0  0  1  0  0  0  0  0  0  0  0  0
    2.7082   -0.0150   46.2948 N   0  3  0  0  0  0  0  0  0  0  0  0
    0.5535   -1.0490   45.6414 C   0  0  0  0  0  0  0  0  0  0  0  0
    2.1414   -3.1515   40.8512 C   0  0  1  0  0  0  0  0  0  0  0  0
    2.0851   -2.6130   39.4093 C   0  0  2  0  0  0  0  0  0  0  0  0
    1.5031   -3.5694   38.5280 O   0  0  0  0  0  0  0  0  0  0  0  0
    3.5902   -2.4326   39.1605 C   0  0  1  0  0  0  0  0  0  0  0  0
    4.1731   -3.7017   39.7600 C   0  0  2  0  0  0  0  0  0  0  0  0
    3.3840   -3.8723   40.9275 O   0  0  0  0  0  0  0  0  0  0  0  0
    5.6606   -3.6271   40.1280 C   0  0  0  0  0  0  0  0  0  0  0  0
    6.3898   -2.9975   39.0848 O   0  0  0  0  0  0  0  0  0  0  0  0
    3.7266    1.4044   35.5433 C   0  0  1  0  0  0  0  0  0  0  0  0
    5.0815    1.3855   35.0976 O   0  0  0  0  0  0  0  0  0  0  0  0
    2.9726    0.1803   34.9527 C   0  0  2  0  0  0  0  0  0  0  0  0
    1.5709    0.4036   35.0859 O   0  0  0  0  0  0  0  0  0  0  0  0
    3.3258   -1.1995   35.5985 C   0  0  1  0  0  0  0  0  0  0  0  0
    4.5315   -1.7725   34.9606 N   0  3  0  0  0  0  0  0  0  0  0  0
    3.4529   -1.0997   37.1415 C   0  0  1  0  0  0  0  0  0  0  0  0
    3.9860   -2.2923   37.7682 O   0  0  0  0  0  0  0  0  0  0  0  0
    3.6695    1.3575   37.0909 C   0  0  1  0  0  0  0  0  0  0  0  0
    4.2326    0.0860   37.5151 O   0  0  0  0  0  0  0  0  0  0  0  0
    4.3880    2.5346   37.7768 C   0  0  0  0  0  0  0  0  0  0  0  0
    4.3037    3.7857   36.9981 N   0  3  0  0  0  0  0  0  0  0  0  0
  1  2  1  1  0  0  0
  1  3  1  0  0  0  0
  1 10  1  0  0  0  0
  3  4  1  1  0  0  0
  3  5  1  0  0  0  0
  5  6  1  6  0  0  0
  5  7  1  0  0  0  0
  7  8  1  1  0  0  0
  7  9  1  0  0  0  0
  9 10  1  0  0  0  0
  9 11  1  6  0  0  0
 11 12  1  0  0  0  0
 13 14  1  6  0  0  0
 13 15  1  0  0  0  0
 13 22  1  0  0  0  0
 15 16  1  6  0  0  0
 15 17  1  0  0  0  0
 17 18  1  6  0  0  0
 17 19  1  0  0  0  0
 19  2  1  1  0  0  0
 19 20  1  0  0  0  0
 20 21  1  1  0  0  0
 20 22  1  0  0  0  0
 23 18  1  1  0  0  0
 23 24  1  0  0  0  0
 23 28  1  0  0  0  0
 24 25  1  6  0  0  0
 24 26  1  0  0  0  0
 26 27  1  0  0  0  0
 26 38  1  6  0  0  0
 27 28  1  0  0  0  0
 27 29  1  1  0  0  0
 29 30  1  0  0  0  0
 31 32  1  1  0  0  0
 31 33  1  0  0  0  0
 31 39  1  0  0  0  0
 33 34  1  1  0  0  0
 33 35  1  0  0  0  0
 35 36  1  6  0  0  0
 35 37  1  0  0  0  0
 37 38  1  6  0  0  0
 37 40  1  0  0  0  0
 39 40  1  0  0  0  0
 39 41  1  1  0  0  0
 41 42  1  0  0  0  0
M  CHG  5   4   1  14   1  21   1  36   1  42   1
M  END
>  <CHROM.1>
-170.54222919,40.09509410,57.91015075,-65.68256882,64.90068061,-173.57448738
-57.82866948,-77.20972331,-55.91769306,-84.13487427,163.31284339,-169.53940742
54.59381795,63.92980460,-44.19106962,-55.69403231,176.96590965,67.57463800
154.70891285,-155.40202712,33.09243837,141.01393411,3.65526518,-1.05280928
40.57087379,-1.78265137,-0.35014437,-1.39073954

>  <Name>
1pbr

>  <RI>
0

>  <Rbt.Current_Directory>
/home/itssahil/PROJECTS/Mol_Feturizer/New_Systems/rnas/1pbr

>  <Rbt.Executable>
rbdock ($Id: //depot/dev/client3/rdock/2013.1/src/exe/rbdock.cxx#4 $)

>  <Rbt.Library>
libRbt.so (2013.1, Build901 2013/11/27)

>  <Rbt.Parameter_File>
/export/apps/rDock/src/rDock_2013.1_src/data/scripts/dock_solv.prm

>  <Rbt.Receptor>
prm/pocket_docking_5.prm

>  <SCORE>
-25.0541

>  <SCORE.INTER>
-22.439

>  <SCORE.INTER.CONST>
1

>  <SCORE.INTER.POLAR>
-2.7859

>  <SCORE.INTER.ROT>
9

>  <SCORE.INTER.SOLV>
32.7322

>  <SCORE.INTER.VDW>
-26.1837

>  <SCORE.INTER.norm>
-0.534262

>  <SCORE.INTRA>
-2.70089

>  <SCORE.INTRA.DIHEDRAL>
-11.0563

>  <SCORE.INTRA.DIHEDRAL.0>
29.7866

>  <SCORE.INTRA.POLAR>
0.80205

>  <SCORE.INTRA.POLAR.0>
-0.984091

>  <SCORE.INTRA.REPUL>
-0.200446

>  <SCORE.INTRA.REPUL.0>
0.274115

>  <SCORE.INTRA.SOLV>
-1.9319

>  <SCORE.INTRA.SOLV.lig_0>
-152.978

>  <SCORE.INTRA.VDW>
2.06847

>  <SCORE.INTRA.VDW.0>
-6.10719

>  <SCORE.INTRA.norm>
-0.064307

>  <SCORE.RESTR>
0.0858346

>  <SCORE.RESTR.CAVITY>
0.0858346

>  <SCORE.RESTR.norm>
0.00204368

>  <SCORE.SYSTEM>
0

>  <SCORE.SYSTEM.CONST>
0

>  <SCORE.SYSTEM.DIHEDRAL>
0

>  <SCORE.SYSTEM.SOLV>
0

>  <SCORE.SYSTEM.norm>
0

>  <SCORE.heavy>
42

>  <SCORE.norm>
-0.596525

>  <RMSD>
4.247

$$$$
1pbr
 OpenBabel11021811403D
libRbt.so/2013.1/901 2013/11/27
 42 45  0  0  0  0  0  0  0  0999 V2000
    3.2744   -0.7402   44.8545 C   0  0  2  0  0  0  0  0  0  0  0  0
    3.8896   -1.7643   45.6766 O   0  0  0  0  0  0  0  0  0  0  0  0
    2.8485    0.4977   45.7288 C   0  0  2  0  0  0  0  0  0  0  0  0
    3.8372    0.8880   46.7673 N   0  3  0  0  0  0  0  0  0  0  0  0
    1.5234    0.2394   46.4704 C   0  0  1  0  0  0  0  0  0  0  0  0
    1.0183    1.4455   47.0391 O   0  0  0  0  0  0  0  0  0  0  0  0
    0.4704   -0.3602   45.5263 C   0  0  2  0  0  0  0  0  0  0  0  0
   -0.7598   -0.5513   46.2180 O   0  0  0  0  0  0  0  0  0  0  0  0
    0.9936   -1.6616   44.8788 C   0  0  2  0  0  0  0  0  0  0  0  0
    2.1614   -1.3061   44.1086 O   0  0  0  0  0  0  0  0  0  0  0  0
   -0.0017   -2.3380   43.9376 C   0  0  0  0  0  0  0  0  0  0  0  0
   -1.1869   -2.7152   44.6259 O   0  0  0  0  0  0  0  0  0  0  0  0
    6.9797   -4.4772   44.5365 C   0  0  1  0  0  0  0  0  0  0  0  0
    7.7939   -5.5747   43.9829 N   0  3  0  0  0  0  0  0  0  0  0  0
    6.4531   -3.5157   43.4284 C   0  0  2  0  0  0  0  0  0  0  0  0
    7.5419   -2.9447   42.7064 O   0  0  0  0  0  0  0  0  0  0  0  0
    5.6078   -2.3594   44.0383 C   0  0  1  0  0  0  0  0  0  0  0  0
    5.0060   -1.5978   42.9497 O   0  0  0  0  0  0  0  0  0  0  0  0
    4.4824   -2.8901   44.9854 C   0  0  1  0  0  0  0  0  0  0  0  0
    5.0149   -3.8949   46.0566 C   0  0  1  0  0  0  0  0  0  0  0  0
    3.9146   -4.4550   46.8722 N   0  3  0  0  0  0  0  0  0  0  0  0
    5.8029   -5.0472   45.3814 C   0  0  0  0  0  0  0  0  0  0  0  0
    4.1570   -2.2727   41.9671 C   0  0  1  0  0  0  0  0  0  0  0  0
    3.2630   -1.2216   41.2830 C   0  0  2  0  0  0  0  0  0  0  0  0
    2.0683   -1.8141   40.7813 O   0  0  0  0  0  0  0  0  0  0  0  0
    4.2157   -0.7906   40.1577 C   0  0  1  0  0  0  0  0  0  0  0  0
    4.7831   -2.1190   39.6856 C   0  0  2  0  0  0  0  0  0  0  0  0
    4.9591   -2.8214   40.9064 O   0  0  0  0  0  0  0  0  0  0  0  0
    6.1130   -2.0286   38.9260 C   0  0  0  0  0  0  0  0  0  0  0  0
    6.5274   -3.3225   38.5132 O   0  0  0  0  0  0  0  0  0  0  0  0
    5.6544    2.0726   35.9115 C   0  0  1  0  0  0  0  0  0  0  0  0
    4.7940    1.6279   34.8642 O   0  0  0  0  0  0  0  0  0  0  0  0
    4.8381    2.9271   36.9211 C   0  0  2  0  0  0  0  0  0  0  0  0
    5.7498    3.6619   37.7344 O   0  0  0  0  0  0  0  0  0  0  0  0
    3.8704    2.1234   37.8503 C   0  0  1  0  0  0  0  0  0  0  0  0
    2.5777    1.8914   37.1691 N   0  3  0  0  0  0  0  0  0  0  0  0
    4.5206    0.8129   38.3666 C   0  0  1  0  0  0  0  0  0  0  0  0
    3.6012   -0.0717   39.0531 O   0  0  0  0  0  0  0  0  0  0  0  0
    6.2837    0.8593   36.6412 C   0  0  1  0  0  0  0  0  0  0  0  0
    5.2054    0.1156   37.2720 O   0  0  0  0  0  0  0  0  0  0  0  0
    7.1204   -0.0533   35.7252 C   0  0  0  0  0  0  0  0  0  0  0  0
    6.3348   -1.1670   35.1587 N   0  3  0  0  0  0  0  0  0  0  0  0
  1  2  1  1  0  0  0
  1  3  1  0  0  0  0
  1 10  1  0  0  0  0
  3  4  1  1  0  0  0
  3  5  1  0  0  0  0
  5  6  1  6  0  0  0
  5  7  1  0  0  0  0
  7  8  1  1  0  0  0
  7  9  1  0  0  0  0
  9 10  1  0  0  0  0
  9 11  1  6  0  0  0
 11 12  1  0  0  0  0
 13 14  1  6  0  0  0
 13 15  1  0  0  0  0
 13 22  1  0  0  0  0
 15 16  1  1  0  0  0
 15 17  1  0  0  0  0
 17 18  1  6  0  0  0
 17 19  1  0  0  0  0
 19  2  1  1  0  0  0
 19 20  1  0  0  0  0
 20 21  1  6  0  0  0
 20 22  1  0  0  0  0
 23 18  1  1  0  0  0
 23 24  1  0  0  0  0
 23 28  1  0  0  0  0
 24 25  1  6  0  0  0
 24 26  1  0  0  0  0
 26 27  1  0  0  0  0
 26 38  1  6  0  0  0
 27 28  1  0  0  0  0
 27 29  1  1  0  0  0
 29 30  1  0  0  0  0
 31 32  1  6  0  0  0
 31 33  1  0  0  0  0
 31 39  1  0  0  0  0
 33 34  1  1  0  0  0
 33 35  1  0  0  0  0
 35 36  1  6  0  0  0
 35 37  1  0  0  0  0
 37 38  1  6  0  0  0
 37 40  1  0  0  0  0
 39 40  1  0  0  0  0
 39 41  1  6  0  0  0
 41 42  1  0  0  0  0
M  CHG  5   4   1  14   1  21   1  36   1  42   1
M  END
>  <CHROM.1>
-172.50873826,60.01483366,84.70579078,-171.44084449,-49.57893096,-61.11195932
56.23114456,-167.80106776,61.63801682,56.73460410,159.25809799,-47.49118705
178.97301619,153.50046935,-178.78008433,168.24257240,169.90572634,162.59868031
-50.23448036,-144.93625812,-92.56132098,-161.59662770,4.10682216,-1.11729704
41.78581320,1.92305744,-0.67714481,2.08905084

>  <Name>
1pbr

>  <RI>
0

>  <Rbt.Current_Directory>
/home/itssahil/PROJECTS/Mol_Feturizer/New_Systems/rnas/1pbr

>  <Rbt.Executable>
rbdock ($Id: //depot/dev/client3/rdock/2013.1/src/exe/rbdock.cxx#4 $)

>  <Rbt.Library>
libRbt.so (2013.1, Build901 2013/11/27)

>  <Rbt.Parameter_File>
/export/apps/rDock/src/rDock_2013.1_src/data/scripts/dock_solv.prm

>  <Rbt.Receptor>
prm/pocket_docking_6.prm

>  <SCORE>
-36.1412

>  <SCORE.INTER>
-31.0273

>  <SCORE.INTER.CONST>
1

>  <SCORE.INTER.POLAR>
-4.55383

>  <SCORE.INTER.ROT>
9

>  <SCORE.INTER.SOLV>
28.6157

>  <SCORE.INTER.VDW>
-24.644

>  <SCORE.INTER.norm>
-0.738745

>  <SCORE.INTRA>
-5.11393

>  <SCORE.INTRA.DIHEDRAL>
-9.85961

>  <SCORE.INTRA.DIHEDRAL.0>
29.7866

>  <SCORE.INTRA.POLAR>
0.272228

>  <SCORE.INTRA.POLAR.0>
-0.984091

>  <SCORE.INTRA.REPUL>
-0.274115

>  <SCORE.INTRA.REPUL.0>
0.274115

>  <SCORE.INTRA.SOLV>
-0.842834

>  <SCORE.INTRA.SOLV.lig_0>
-152.978

>  <SCORE.INTRA.VDW>
0.682288

>  <SCORE.INTRA.VDW.0>
-6.10719

>  <SCORE.INTRA.norm>
-0.12176

>  <SCORE.RESTR>
0

>  <SCORE.RESTR.CAVITY>
0

>  <SCORE.RESTR.norm>
0

>  <SCORE.SYSTEM>
0

>  <SCORE.SYSTEM.CONST>
0

>  <SCORE.SYSTEM.DIHEDRAL>
0

>  <SCORE.SYSTEM.SOLV>
0

>  <SCORE.SYSTEM.norm>
0

>  <SCORE.heavy>
42

>  <SCORE.norm>
-0.860505

>  <RMSD>
4.256

$$$$
1pbr
 OpenBabel11021811403D
libRbt.so/2013.1/901 2013/11/27
 42 45  0  0  0  0  0  0  0  0999 V2000
    2.0044   -1.9053   43.4719 C   0  0  2  0  0  0  0  0  0  0  0  0
    3.0534   -2.6726   44.1155 O   0  0  0  0  0  0  0  0  0  0  0  0
    1.0966   -1.1918   44.5419 C   0  0  2  0  0  0  0  0  0  0  0  0
    1.8399   -0.6012   45.6852 N   0  3  0  0  0  0  0  0  0  0  0  0
    0.0683   -2.1630   45.1518 C   0  0  1  0  0  0  0  0  0  0  0  0
   -0.9081   -1.4545   45.9120 O   0  0  0  0  0  0  0  0  0  0  0  0
   -0.6325   -2.9830   44.0581 C   0  0  2  0  0  0  0  0  0  0  0  0
   -1.6093   -3.8429   44.6365 O   0  0  0  0  0  0  0  0  0  0  0  0
    0.4002   -3.7508   43.2034 C   0  0  2  0  0  0  0  0  0  0  0  0
    1.2431   -2.7614   42.5758 O   0  0  0  0  0  0  0  0  0  0  0  0
   -0.2141   -4.6118   42.1009 C   0  0  0  0  0  0  0  0  0  0  0  0
   -0.6702   -3.8127   41.0173 O   0  0  0  0  0  0  0  0  0  0  0  0
    7.0607   -3.4703   42.8855 C   0  0  1  0  0  0  0  0  0  0  0  0
    8.2928   -3.9238   42.2147 N   0  3  0  0  0  0  0  0  0  0  0  0
    6.2539   -2.4582   42.0169 C   0  0  2  0  0  0  0  0  0  0  0  0
    7.0491   -1.3128   41.7198 O   0  0  0  0  0  0  0  0  0  0  0  0
    4.9653   -1.9847   42.7512 C   0  0  1  0  0  0  0  0  0  0  0  0
    4.1725   -1.1798   41.8288 O   0  0  0  0  0  0  0  0  0  0  0  0
    4.1056   -3.1861   43.2636 C   0  0  1  0  0  0  0  0  0  0  0  0
    4.9382   -4.2207   44.0864 C   0  0  1  0  0  0  0  0  0  0  0  0
    4.1219   -5.3930   44.4721 N   0  3  0  0  0  0  0  0  0  0  0  0
    6.1774   -4.6897   43.2807 C   0  0  0  0  0  0  0  0  0  0  0  0
    4.1704    0.2789   41.9473 C   0  0  1  0  0  0  0  0  0  0  0  0
    4.7254    0.8804   40.6426 C   0  0  2  0  0  0  0  0  0  0  0  0
    5.2861    2.1701   40.8714 O   0  0  0  0  0  0  0  0  0  0  0  0
    3.4207    0.9482   39.8344 C   0  0  1  0  0  0  0  0  0  0  0  0
    2.4282    1.4658   40.8624 C   0  0  2  0  0  0  0  0  0  0  0  0
    2.8216    0.7713   42.0360 O   0  0  0  0  0  0  0  0  0  0  0  0
    0.9535    1.1851   40.5458 C   0  0  0  0  0  0  0  0  0  0  0  0
    0.7812   -0.1806   40.1972 O   0  0  0  0  0  0  0  0  0  0  0  0
    0.3287    2.1945   35.6980 C   0  0  1  0  0  0  0  0  0  0  0  0
    0.4038    3.6162   35.6099 O   0  0  0  0  0  0  0  0  0  0  0  0
    1.6730    1.5769   35.2213 C   0  0  2  0  0  0  0  0  0  0  0  0
    1.4673    0.1909   34.9583 O   0  0  0  0  0  0  0  0  0  0  0  0
    2.8698    1.7278   36.2166 C   0  0  1  0  0  0  0  0  0  0  0  0
    3.5316    3.0379   36.0305 N   0  3  0  0  0  0  0  0  0  0  0  0
    2.4355    1.4778   37.6848 C   0  0  1  0  0  0  0  0  0  0  0  0
    3.4484    1.8124   38.6652 O   0  0  0  0  0  0  0  0  0  0  0  0
    0.0419    1.7611   37.1576 C   0  0  1  0  0  0  0  0  0  0  0  0
    1.1748    2.1722   37.9709 O   0  0  0  0  0  0  0  0  0  0  0  0
   -1.2760    2.3199   37.7259 C   0  0  0  0  0  0  0  0  0  0  0  0
   -1.8805    3.3488   36.8572 N   0  3  0  0  0  0  0  0  0  0  0  0
  1  2  1  1  0  0  0
  1  3  1  0  0  0  0
  1 10  1  0  0  0  0
  3  4  1  1  0  0  0
  3  5  1  0  0  0  0
  5  6  1  6  0  0  0
  5  7  1  0  0  0  0
  7  8  1  1  0  0  0
  7  9  1  0  0  0  0
  9 10  1  0  0  0  0
  9 11  1  6  0  0  0
 11 12  1  0  0  0  0
 13 14  1  6  0  0  0
 13 15  1  0  0  0  0
 13 22  1  0  0  0  0
 15 16  1  1  0  0  0
 15 17  1  0  0  0  0
 17 18  1  6  0  0  0
 17 19  1  0  0  0  0
 19  2  1  1  0  0  0
 19 20  1  0  0  0  0
 20 21  1  6  0  0  0
 20 22  1  0  0  0  0
 23 18  1  6  0  0  0
 23 24  1  0  0  0  0
 23 28  1  0  0  0  0
 24 25  1  1  0  0  0
 24 26  1  0  0  0  0
 26 27  1  0  0  0  0
 26 38  1  6  0  0  0
 27 28  1  0  0  0  0
 27 29  1  6  0  0  0
 29 30  1  0  0  0  0
 31 32  1  1  0  0  0
 31 33  1  0  0  0  0
 31 39  1  0  0  0  0
 33 34  1  1  0  0  0
 33 35  1  0  0  0  0
 35 36  1  1  0  0  0
 35 37  1  0  0  0  0
 37 38  1  1  0  0  0
 37 40  1  0  0  0  0
 39 40  1  0  0  0  0
 39 41  1  1  0  0  0
 41 42  1  0  0  0  0
M  CHG  5   4   1  14   1  21   1  36   1  42   1
M  END
>  <CHROM.1>
-169.23146682,69.29236094,155.48466844,61.83154004,147.42513333,74.93814613
178.99281976,-178.13493437,172.07367015,-102.87215833,118.80534963,176.78904454
170.24209393,158.15660013,48.73233247,161.29393330,59.08292388,59.15543562
-39.91911259,-146.70195070,-10.36039277,-166.44479924,2.39205225,-0.71476411
40.97309297,1.34754862,-0.08609233,2.20950389

>  <Name>
1pbr

>  <RI>
0

>  <Rbt.Current_Directory>
/home/itssahil/PROJECTS/Mol_Feturizer/New_Systems/rnas/1pbr

>  <Rbt.Executable>
rbdock ($Id: //depot/dev/client3/rdock/2013.1/src/exe/rbdock.cxx#4 $)

>  <Rbt.Library>
libRbt.so (2013.1, Build901 2013/11/27)

>  <Rbt.Parameter_File>
/export/apps/rDock/src/rDock_2013.1_src/data/scripts/dock_solv.prm

>  <Rbt.Receptor>
prm/pocket_docking_5.prm

>  <SCORE>
-31.3051

>  <SCORE.INTER>
-34.788

>  <SCORE.INTER.CONST>
1

>  <SCORE.INTER.POLAR>
-5.28135

>  <SCORE.INTER.ROT>
9

>  <SCORE.INTER.SOLV>
18.3356

>  <SCORE.INTER.VDW>
-21.2994

>  <SCORE.INTER.norm>
-0.828285

>  <SCORE.INTRA>
3.48289

>  <SCORE.INTRA.DIHEDRAL>
6.52188

>  <SCORE.INTRA.DIHEDRAL.0>
29.7866

>  <SCORE.INTRA.POLAR>
0.281585

>  <SCORE.INTRA.POLAR.0>
-0.984091

>  <SCORE.INTRA.REPUL>
-0.261718

>  <SCORE.INTRA.REPUL.0>
0.274115

>  <SCORE.INTRA.SOLV>
-0.325668

>  <SCORE.INTRA.SOLV.lig_0>
-152.978

>  <SCORE.INTRA.VDW>
0.735986

>  <SCORE.INTRA.VDW.0>
-6.10719

>  <SCORE.INTRA.norm>
0.0829261

>  <SCORE.RESTR>
0

>  <SCORE.RESTR.CAVITY>
0

>  <SCORE.RESTR.norm>
0

>  <SCORE.SYSTEM>
0

>  <SCORE.SYSTEM.CONST>
0

>  <SCORE.SYSTEM.DIHEDRAL>
0

>  <SCORE.SYSTEM.SOLV>
0

>  <SCORE.SYSTEM.norm>
0

>  <SCORE.heavy>
42

>  <SCORE.norm>
-0.745359

>  <RMSD>
4.257

$$$$
1pbr
 OpenBabel11021811403D
libRbt.so/2013.1/901 2013/11/27
 42 45  0  0  0  0  0  0  0  0999 V2000
    1.4110   -2.1841   43.8040 C   0  0  2  0  0  0  0  0  0  0  0  0
    2.5447   -2.7501   44.5094 O   0  0  0  0  0  0  0  0  0  0  0  0
    0.6962   -1.0896   44.6812 C   0  0  2  0  0  0  0  0  0  0  0  0
    1.6212   -0.1920   45.4208 N   0  3  0  0  0  0  0  0  0  0  0  0
   -0.2265   -1.7240   45.7389 C   0  0  1  0  0  0  0  0  0  0  0  0
   -1.0597   -0.7362   46.3416 O   0  0  0  0  0  0  0  0  0  0  0  0
   -1.1034   -2.8223   45.1188 C   0  0  2  0  0  0  0  0  0  0  0  0
   -1.9795   -3.3665   46.1009 O   0  0  0  0  0  0  0  0  0  0  0  0
   -0.2307   -3.9019   44.4410 C   0  0  2  0  0  0  0  0  0  0  0  0
    0.5065   -3.2446   43.3884 O   0  0  0  0  0  0  0  0  0  0  0  0
   -1.0240   -5.0472   43.8141 C   0  0  0  0  0  0  0  0  0  0  0  0
   -1.7624   -5.7608   44.7970 O   0  0  0  0  0  0  0  0  0  0  0  0
    6.4328   -4.1170   43.4041 C   0  0  1  0  0  0  0  0  0  0  0  0
    7.6052   -4.7624   42.7852 N   0  3  0  0  0  0  0  0  0  0  0  0
    5.7678   -3.0704   42.4595 C   0  0  2  0  0  0  0  0  0  0  0  0
    6.7031   -2.0543   42.1058 O   0  0  0  0  0  0  0  0  0  0  0  0
    4.5414   -2.3943   43.1394 C   0  0  1  0  0  0  0  0  0  0  0  0
    3.8648   -1.5581   42.1544 O   0  0  0  0  0  0  0  0  0  0  0  0
    3.5328   -3.4441   43.7103 C   0  0  1  0  0  0  0  0  0  0  0  0
    4.2212   -4.5191   44.6111 C   0  0  1  0  0  0  0  0  0  0  0  0
    3.2607   -5.5537   45.0545 N   0  3  0  0  0  0  0  0  0  0  0  0
    5.3999   -5.1893   43.8588 C   0  0  0  0  0  0  0  0  0  0  0  0
    3.6399   -0.1387   42.4311 C   0  0  1  0  0  0  0  0  0  0  0  0
    3.9448    0.6670   41.1544 C   0  0  2  0  0  0  0  0  0  0  0  0
    4.3114    2.0072   41.4700 O   0  0  0  0  0  0  0  0  0  0  0  0
    2.5661    0.5838   40.4820 C   0  0  1  0  0  0  0  0  0  0  0  0
    1.6211    0.8261   41.6472 C   0  0  2  0  0  0  0  0  0  0  0  0
    2.2471    0.1043   42.6968 O   0  0  0  0  0  0  0  0  0  0  0  0
    0.1855    0.3266   41.4390 C   0  0  0  0  0  0  0  0  0  0  0  0
   -0.5382    1.2455   40.6339 O   0  0  0  0  0  0  0  0  0  0  0  0
    4.5911    1.2257   35.7488 C   0  0  1  0  0  0  0  0  0  0  0  0
    3.4858    0.8143   34.9464 O   0  0  0  0  0  0  0  0  0  0  0  0
    4.3318    2.6608   36.2863 C   0  0  2  0  0  0  0  0  0  0  0  0
    5.5653    3.1981   36.7580 O   0  0  0  0  0  0  0  0  0  0  0  0
    3.2679    2.7667   37.4276 C   0  0  1  0  0  0  0  0  0  0  0  0
    1.9063    2.8530   36.8551 N   0  3  0  0  0  0  0  0  0  0  0  0
    3.4129    1.6189   38.4612 C   0  0  1  0  0  0  0  0  0  0  0  0
    2.3262    1.5439   39.4165 O   0  0  0  0  0  0  0  0  0  0  0  0
    4.7860    0.2493   36.9359 C   0  0  1  0  0  0  0  0  0  0  0  0
    3.6029    0.3348   37.7767 O   0  0  0  0  0  0  0  0  0  0  0  0
    5.0541   -1.2058   36.5082 C   0  0  0  0  0  0  0  0  0  0  0  0
    6.2724   -1.3431   35.6864 N   0  3  0  0  0  0  0  0  0  0  0  0
  1  2  1  1  0  0  0
  1  3  1  0  0  0  0
  1 10  1  0  0  0  0
  3  4  1  1  0  0  0
  3  5  1  0  0  0  0
  5  6  1  6  0  0  0
  5  7  1  0  0  0  0
  7  8  1  1  0  0  0
  7  9  1  0  0  0  0
  9 10  1  0  0  0  0
  9 11  1  6  0  0  0
 11 12  1  0  0  0  0
 13 14  1  6  0  0  0
 13 15  1  0  0  0  0
 13 22  1  0  0  0  0
 15 16  1  1  0  0  0
 15 17  1  0  0  0  0
 17 18  1  6  0  0  0
 17 19  1  0  0  0  0
 19  2  1  1  0  0  0
 19 20  1  0  0  0  0
 20 21  1  6  0  0  0
 20 22  1  0  0  0  0
 23 18  1  6  0  0  0
 23 24  1  0  0  0  0
 23 28  1  0  0  0  0
 24 25  1  1  0  0  0
 24 26  1  0  0  0  0
 26 27  1  0  0  0  0
 26 38  1  6  0  0  0
 27 28  1  0  0  0  0
 27 29  1  6  0  0  0
 29 30  1  0  0  0  0
 31 32  1  1  0  0  0
 31 33  1  0  0  0  0
 31 39  1  0  0  0  0
 33 34  1  1  0  0  0
 33 35  1  0  0  0  0
 35 36  1  6  0  0  0
 35 37  1  0  0  0  0
 37 38  1  6  0  0  0
 37 40  1  0  0  0  0
 39 40  1  0  0  0  0
 39 41  1  6  0  0  0
 41 42  1  0  0  0  0
M  CHG  5   4   1  14   1  21   1  36   1  42   1
M  END
>  <CHROM.1>
-161.34318525,84.56490544,-174.71159460,52.05393125,-55.11053010,-62.31776976
-176.93218065,-50.73948914,67.67880761,-124.52465463,137.80384893,-62.02205315
174.07580966,47.69766852,-79.09642166,-70.39866028,-61.56365762,-59.53960999
-31.87039495,-172.17347631,60.11051152,165.51193756,2.77813864,-1.16532268
41.56649984,1.96003263,-0.44174880,2.29031241

>  <Name>
1pbr

>  <RI>
0

>  <Rbt.Current_Directory>
/home/itssahil/PROJECTS/Mol_Feturizer/New_Systems/rnas/1pbr

>  <Rbt.Executable>
rbdock ($Id: //depot/dev/client3/rdock/2013.1/src/exe/rbdock.cxx#4 $)

>  <Rbt.Library>
libRbt.so (2013.1, Build901 2013/11/27)

>  <Rbt.Parameter_File>
/export/apps/rDock/src/rDock_2013.1_src/data/scripts/dock_solv.prm

>  <Rbt.Receptor>
prm/pocket_docking_5.prm

>  <SCORE>
-27.1708

>  <SCORE.INTER>
-24.1419

>  <SCORE.INTER.CONST>
1

>  <SCORE.INTER.POLAR>
-2.88614

>  <SCORE.INTER.ROT>
9

>  <SCORE.INTER.SOLV>
20.7851

>  <SCORE.INTER.VDW>
-23.0025

>  <SCORE.INTER.norm>
-0.574808

>  <SCORE.INTRA>
-3.02885

>  <SCORE.INTRA.DIHEDRAL>
-6.10099

>  <SCORE.INTRA.DIHEDRAL.0>
29.7866

>  <SCORE.INTRA.POLAR>
0.362761

>  <SCORE.INTRA.POLAR.0>
-0.984091

>  <SCORE.INTRA.REPUL>
-0.274115

>  <SCORE.INTRA.REPUL.0>
0.274115

>  <SCORE.INTRA.SOLV>
-0.488928

>  <SCORE.INTRA.SOLV.lig_0>
-152.978

>  <SCORE.INTRA.VDW>
0.40329

>  <SCORE.INTRA.VDW.0>
-6.10719

>  <SCORE.INTRA.norm>
-0.0721156

>  <SCORE.RESTR>
0

>  <SCORE.RESTR.CAVITY>
0

>  <SCORE.RESTR.norm>
0

>  <SCORE.SYSTEM>
0

>  <SCORE.SYSTEM.CONST>
0

>  <SCORE.SYSTEM.DIHEDRAL>
0

>  <SCORE.SYSTEM.SOLV>
0

>  <SCORE.SYSTEM.norm>
0

>  <SCORE.heavy>
42

>  <SCORE.norm>
-0.646924

>  <RMSD>
4.370

$$$$
1pbr
 OpenBabel11021811403D
libRbt.so/2013.1/901 2013/11/27
 42 45  0  0  0  0  0  0  0  0999 V2000
    0.0765   -3.5239   42.3325 C   0  0  2  0  0  0  0  0  0  0  0  0
    1.4447   -4.0010   42.2744 O   0  0  0  0  0  0  0  0  0  0  0  0
   -0.0952   -2.4555   43.4758 C   0  0  2  0  0  0  0  0  0  0  0  0
    1.0244   -1.4845   43.5850 N   0  3  0  0  0  0  0  0  0  0  0  0
   -0.2253   -3.1208   44.8590 C   0  0  1  0  0  0  0  0  0  0  0  0
   -0.6414   -2.1727   45.8394 O   0  0  0  0  0  0  0  0  0  0  0  0
   -1.2253   -4.2862   44.8189 C   0  0  2  0  0  0  0  0  0  0  0  0
   -1.3651   -4.8603   46.1147 O   0  0  0  0  0  0  0  0  0  0  0  0
   -0.8126   -5.3250   43.7527 C   0  0  2  0  0  0  0  0  0  0  0  0
   -0.8345   -4.6483   42.4779 O   0  0  0  0  0  0  0  0  0  0  0  0
   -1.7443   -6.5323   43.6595 C   0  0  0  0  0  0  0  0  0  0  0  0
   -1.3321   -7.4228   42.6311 O   0  0  0  0  0  0  0  0  0  0  0  0
    3.8428   -6.0138   39.3751 C   0  0  1  0  0  0  0  0  0  0  0  0
    4.5015   -6.5132   38.1542 N   0  3  0  0  0  0  0  0  0  0  0  0
    4.2237   -4.5352   39.6888 C   0  0  2  0  0  0  0  0  0  0  0  0
    5.6338   -4.4097   39.8580 O   0  0  0  0  0  0  0  0  0  0  0  0
    3.5266   -4.0354   40.9880 C   0  0  1  0  0  0  0  0  0  0  0  0
    3.7830   -2.6071   41.1345 O   0  0  0  0  0  0  0  0  0  0  0  0
    1.9834   -4.2863   40.9610 C   0  0  1  0  0  0  0  0  0  0  0  0
    1.6146   -5.7588   40.5917 C   0  0  1  0  0  0  0  0  0  0  0  0
    0.1507   -5.9408   40.4766 N   0  3  0  0  0  0  0  0  0  0  0  0
    2.2986   -6.1773   39.2645 C   0  0  0  0  0  0  0  0  0  0  0  0
    3.8851   -1.7570   39.9476 C   0  0  1  0  0  0  0  0  0  0  0  0
    2.5020   -1.6819   39.2742 C   0  0  2  0  0  0  0  0  0  0  0  0
    2.6243   -1.3939   37.8842 O   0  0  0  0  0  0  0  0  0  0  0  0
    1.9135   -0.5026   40.0633 C   0  0  1  0  0  0  0  0  0  0  0  0
    3.0822    0.4673   40.1181 C   0  0  2  0  0  0  0  0  0  0  0  0
    4.1845   -0.4022   40.3274 O   0  0  0  0  0  0  0  0  0  0  0  0
    3.0099    1.5152   41.2363 C   0  0  0  0  0  0  0  0  0  0  0  0
    2.9950    0.8751   42.5037 O   0  0  0  0  0  0  0  0  0  0  0  0
    0.6013    2.5830   35.9147 C   0  0  1  0  0  0  0  0  0  0  0  0
   -0.6653    2.0986   35.4720 O   0  0  0  0  0  0  0  0  0  0  0  0
    0.4264    3.3153   37.2744 C   0  0  2  0  0  0  0  0  0  0  0  0
    1.5898    4.1023   37.5186 O   0  0  0  0  0  0  0  0  0  0  0  0
    0.1790    2.3869   38.5084 C   0  0  1  0  0  0  0  0  0  0  0  0
   -1.2588    2.0583   38.6248 N   0  3  0  0  0  0  0  0  0  0  0  0
    1.0821    1.1259   38.4731 C   0  0  1  0  0  0  0  0  0  0  0  0
    0.7461    0.1311   39.4714 O   0  0  0  0  0  0  0  0  0  0  0  0
    1.5987    1.4085   36.0771 C   0  0  1  0  0  0  0  0  0  0  0  0
    1.0914    0.5406   37.1275 O   0  0  0  0  0  0  0  0  0  0  0  0
    1.8455    0.6167   34.7793 C   0  0  0  0  0  0  0  0  0  0  0  0
    2.6416    1.3729   33.7929 N   0  3  0  0  0  0  0  0  0  0  0  0
  1  2  1  1  0  0  0
  1  3  1  0  0  0  0
  1 10  1  0  0  0  0
  3  4  1  1  0  0  0
  3  5  1  0  0  0  0
  5  6  1  1  0  0  0
  5  7  1  0  0  0  0
  7  8  1  1  0  0  0
  7  9  1  0  0  0  0
  9 10  1  0  0  0  0
  9 11  1  6  0  0  0
 11 12  1  0  0  0  0
 13 14  1  6  0  0  0
 13 15  1  0  0  0  0
 13 22  1  0  0  0  0
 15 16  1  1  0  0  0
 15 17  1  0  0  0  0
 17 18  1  6  0  0  0
 17 19  1  0  0  0  0
 19  2  1  1  0  0  0
 19 20  1  0  0  0  0
 20 21  1  6  0  0  0
 20 22  1  0  0  0  0
 23 18  1  1  0  0  0
 23 24  1  0  0  0  0
 23 28  1  0  0  0  0
 24 25  1  6  0  0  0
 24 26  1  0  0  0  0
 26 27  1  0  0  0  0
 26 38  1  6  0  0  0
 27 28  1  0  0  0  0
 27 29  1  1  0  0  0
 29 30  1  0  0  0  0
 31 32  1  1  0  0  0
 31 33  1  0  0  0  0
 31 39  1  0  0  0  0
 33 34  1  1  0  0  0
 33 35  1  0  0  0  0
 35 36  1  6  0  0  0
 35 37  1  0  0  0  0
 37 38  1  1  0  0  0
 37 40  1  0  0  0  0
 39 40  1  0  0  0  0
 39 41  1  6  0  0  0
 41 42  1  0  0  0  0
M  CHG  5   4   1  14   1  21   1  36   1  42   1
M  END
>  <CHROM.1>
-143.75893340,150.15592625,167.15010651,-58.63913398,51.46697605,178.02644942
77.00081625,-65.45572699,-63.36281539,33.91089197,67.50119187,57.18682163
65.35489070,-84.03914285,61.17680266,177.18137671,154.85166350,64.22659523
-146.70151886,-140.94132572,71.51923363,-64.75120534,1.42072432,-1.92469302
40.24988837,1.77736141,-0.91234224,2.56099527

>  <Name>
1pbr

>  <RI>
0

>  <Rbt.Current_Directory>
/home/itssahil/PROJECTS/Mol_Feturizer/New_Systems/rnas/1pbr

>  <Rbt.Executable>
rbdock ($Id: //depot/dev/client3/rdock/2013.1/src/exe/rbdock.cxx#4 $)

>  <Rbt.Library>
libRbt.so (2013.1, Build901 2013/11/27)

>  <Rbt.Parameter_File>
/export/apps/rDock/src/rDock_2013.1_src/data/scripts/dock_solv.prm

>  <Rbt.Receptor>
prm/pocket_docking_4.prm

>  <SCORE>
-39.1072

>  <SCORE.INTER>
-41.6199

>  <SCORE.INTER.CONST>
1

>  <SCORE.INTER.POLAR>
-6.03971

>  <SCORE.INTER.ROT>
9

>  <SCORE.INTER.SOLV>
33.9282

>  <SCORE.INTER.VDW>
-28.5236

>  <SCORE.INTER.norm>
-0.990949

>  <SCORE.INTRA>
2.51266

>  <SCORE.INTRA.DIHEDRAL>
-2.01539

>  <SCORE.INTRA.DIHEDRAL.0>
29.7866

>  <SCORE.INTRA.POLAR>
-0.277062

>  <SCORE.INTRA.POLAR.0>
-0.984091

>  <SCORE.INTRA.REPUL>
-0.163525

>  <SCORE.INTRA.REPUL.0>
0.274115

>  <SCORE.INTRA.SOLV>
5.60668

>  <SCORE.INTRA.SOLV.lig_0>
-152.978

>  <SCORE.INTRA.VDW>
2.47666

>  <SCORE.INTRA.VDW.0>
-6.10719

>  <SCORE.INTRA.norm>
0.0598253

>  <SCORE.RESTR>
0

>  <SCORE.RESTR.CAVITY>
0

>  <SCORE.RESTR.norm>
0

>  <SCORE.SYSTEM>
0

>  <SCORE.SYSTEM.CONST>
0

>  <SCORE.SYSTEM.DIHEDRAL>
0

>  <SCORE.SYSTEM.SOLV>
0

>  <SCORE.SYSTEM.norm>
0

>  <SCORE.heavy>
42

>  <SCORE.norm>
-0.931124

>  <RMSD>
4.408

$$$$
1pbr
 OpenBabel11021811403D
libRbt.so/2013.1/901 2013/11/27
 42 45  0  0  0  0  0  0  0  0999 V2000
    1.5349   -3.5939   43.9656 C   0  0  2  0  0  0  0  0  0  0  0  0
    2.9159   -3.7047   43.5371 O   0  0  0  0  0  0  0  0  0  0  0  0
    0.5719   -4.2947   42.9362 C   0  0  2  0  0  0  0  0  0  0  0  0
    1.0728   -5.5898   42.4069 N   0  3  0  0  0  0  0  0  0  0  0  0
    0.3057   -3.4017   41.7097 C   0  0  1  0  0  0  0  0  0  0  0  0
   -0.7615   -3.9269   40.9233 O   0  0  0  0  0  0  0  0  0  0  0  0
   -0.0331   -1.9653   42.1361 C   0  0  2  0  0  0  0  0  0  0  0  0
   -0.3185   -1.1661   40.9924 O   0  0  0  0  0  0  0  0  0  0  0  0
    1.0971   -1.3716   43.0059 C   0  0  2  0  0  0  0  0  0  0  0  0
    1.1952   -2.1969   44.1859 O   0  0  0  0  0  0  0  0  0  0  0  0
    0.8508    0.0668   43.4580 C   0  0  0  0  0  0  0  0  0  0  0  0
    1.6744    0.4068   44.5656 O   0  0  0  0  0  0  0  0  0  0  0  0
    4.3118   -0.7550   46.2863 C   0  0  1  0  0  0  0  0  0  0  0  0
    5.0984    0.1330   47.1618 N   0  3  0  0  0  0  0  0  0  0  0  0
    4.5755   -0.4788   44.7750 C   0  0  2  0  0  0  0  0  0  0  0  0
    4.2501    0.8710   44.4517 O   0  0  0  0  0  0  0  0  0  0  0  0
    3.7249   -1.4192   43.8718 C   0  0  1  0  0  0  0  0  0  0  0  0
    4.1380   -1.2328   42.4856 O   0  0  0  0  0  0  0  0  0  0  0  0
    3.8925   -2.9230   44.2663 C   0  0  1  0  0  0  0  0  0  0  0  0
    3.6793   -3.1771   45.7930 C   0  0  1  0  0  0  0  0  0  0  0  0
    3.9416   -4.5885   46.1518 N   0  3  0  0  0  0  0  0  0  0  0  0
    4.5904   -2.2465   46.6346 C   0  0  0  0  0  0  0  0  0  0  0  0
    4.8062   -2.3201   41.7692 C   0  0  1  0  0  0  0  0  0  0  0  0
    4.4707   -2.2027   40.2706 C   0  0  2  0  0  0  0  0  0  0  0  0
    4.5720   -3.4676   39.6226 O   0  0  0  0  0  0  0  0  0  0  0  0
    5.5913   -1.2408   39.8475 C   0  0  1  0  0  0  0  0  0  0  0  0
    6.7951   -1.7979   40.5891 C   0  0  2  0  0  0  0  0  0  0  0  0
    6.2343   -2.1627   41.8409 O   0  0  0  0  0  0  0  0  0  0  0  0
    7.9525   -0.8112   40.7905 C   0  0  0  0  0  0  0  0  0  0  0  0
    8.5351   -0.4813   39.5383 O   0  0  0  0  0  0  0  0  0  0  0  0
    3.7055    1.2825   35.5815 C   0  0  1  0  0  0  0  0  0  0  0  0
    4.8710    1.7692   34.9185 O   0  0  0  0  0  0  0  0  0  0  0  0
    3.6075   -0.2565   35.3882 C   0  0  2  0  0  0  0  0  0  0  0  0
    2.2838   -0.6715   35.7173 O   0  0  0  0  0  0  0  0  0  0  0  0
    4.6225   -1.1027   36.2245 C   0  0  1  0  0  0  0  0  0  0  0  0
    5.9156   -1.2057   35.5129 N   0  3  0  0  0  0  0  0  0  0  0  0
    4.7743   -0.5602   37.6700 C   0  0  1  0  0  0  0  0  0  0  0  0
    5.8543   -1.1698   38.4190 O   0  0  0  0  0  0  0  0  0  0  0  0
    3.7680    1.6175   37.0930 C   0  0  1  0  0  0  0  0  0  0  0  0
    4.9008    0.9018   37.6572 O   0  0  0  0  0  0  0  0  0  0  0  0
    3.8634    3.1250   37.3936 C   0  0  0  0  0  0  0  0  0  0  0  0
    5.2550    3.6167   37.4072 N   0  3  0  0  0  0  0  0  0  0  0  0
  1  2  1  6  0  0  0
  1  3  1  0  0  0  0
  1 10  1  0  0  0  0
  3  4  1  6  0  0  0
  3  5  1  0  0  0  0
  5  6  1  1  0  0  0
  5  7  1  0  0  0  0
  7  8  1  6  0  0  0
  7  9  1  0  0  0  0
  9 10  1  0  0  0  0
  9 11  1  1  0  0  0
 11 12  1  0  0  0  0
 13 14  1  1  0  0  0
 13 15  1  0  0  0  0
 13 22  1  0  0  0  0
 15 16  1  6  0  0  0
 15 17  1  0  0  0  0
 17 18  1  6  0  0  0
 17 19  1  0  0  0  0
 19  2  1  6  0  0  0
 19 20  1  0  0  0  0
 20 21  1  6  0  0  0
 20 22  1  0  0  0  0
 23 18  1  1  0  0  0
 23 24  1  0  0  0  0
 23 28  1  0  0  0  0
 24 25  1  6  0  0  0
 24 26  1  0  0  0  0
 26 27  1  0  0  0  0
 26 38  1  6  0  0  0
 27 28  1  0  0  0  0
 27 29  1  1  0  0  0
 29 30  1  0  0  0  0
 31 32  1  6  0  0  0
 31 33  1  0  0  0  0
 31 39  1  0  0  0  0
 33 34  1  1  0  0  0
 33 35  1  0  0  0  0
 35 36  1  6  0  0  0
 35 37  1  0  0  0  0
 37 38  1  6  0  0  0
 37 40  1  0  0  0  0
 39 40  1  0  0  0  0
 39 41  1  6  0  0  0
 41 42  1  0  0  0  0
M  CHG  5   4   1  14   1  21   1  36   1  42   1
M  END
>  <CHROM.1>
170.21529520,-73.10157876,-177.26860774,-74.75856888,177.05941731,161.45829485
-177.16609443,168.36612024,178.33142578,113.22431849,150.31161244,-171.16724754
176.89364378,68.16314707,-66.65984182,64.89723483,-69.72110752,-59.66051653
-100.51038244,-149.06680845,-87.46828708,90.41104681,3.69741787,-1.26308659
41.13841550,1.83826481,0.45987718,1.80064446

>  <Name>
1pbr

>  <RI>
0

>  <Rbt.Current_Directory>
/home/itssahil/PROJECTS/Mol_Feturizer/New_Systems/rnas/1pbr

>  <Rbt.Executable>
rbdock ($Id: //depot/dev/client3/rdock/2013.1/src/exe/rbdock.cxx#4 $)

>  <Rbt.Library>
libRbt.so (2013.1, Build901 2013/11/27)

>  <Rbt.Parameter_File>
/export/apps/rDock/src/rDock_2013.1_src/data/scripts/dock_solv.prm

>  <Rbt.Receptor>
prm/pocket_docking_6.prm

>  <SCORE>
-27.0844

>  <SCORE.INTER>
-30.8958

>  <SCORE.INTER.CONST>
1

>  <SCORE.INTER.POLAR>
-5.33506

>  <SCORE.INTER.ROT>
9

>  <SCORE.INTER.SOLV>
36.6197

>  <SCORE.INTER.VDW>
-24.6203

>  <SCORE.INTER.norm>
-0.735615

>  <SCORE.INTRA>
3.81146

>  <SCORE.INTRA.DIHEDRAL>
-2.40423

>  <SCORE.INTRA.DIHEDRAL.0>
29.7866

>  <SCORE.INTRA.POLAR>
0.563785

>  <SCORE.INTRA.POLAR.0>
-0.984091

>  <SCORE.INTRA.REPUL>
-0.274115

>  <SCORE.INTRA.REPUL.0>
0.274115

>  <SCORE.INTRA.SOLV>
-0.0198631

>  <SCORE.INTRA.SOLV.lig_0>
-152.978

>  <SCORE.INTRA.VDW>
4.47721

>  <SCORE.INTRA.VDW.0>
-6.10719

>  <SCORE.INTRA.norm>
0.090749

>  <SCORE.RESTR>
0

>  <SCORE.RESTR.CAVITY>
0

>  <SCORE.RESTR.norm>
0

>  <SCORE.SYSTEM>
0

>  <SCORE.SYSTEM.CONST>
0

>  <SCORE.SYSTEM.DIHEDRAL>
0

>  <SCORE.SYSTEM.SOLV>
0

>  <SCORE.SYSTEM.norm>
0

>  <SCORE.heavy>
42

>  <SCORE.norm>
-0.644866

>  <RMSD>
4.521

$$$$
1pbr
 OpenBabel11021811403D
libRbt.so/2013.1/901 2013/11/27
 42 45  0  0  0  0  0  0  0  0999 V2000
    1.4674   -5.3312   42.8837 C   0  0  2  0  0  0  0  0  0  0  0  0
    1.4452   -4.1230   42.0818 O   0  0  0  0  0  0  0  0  0  0  0  0
    1.1765   -6.5977   41.9951 C   0  0  2  0  0  0  0  0  0  0  0  0
    1.8461   -6.5867   40.6685 N   0  3  0  0  0  0  0  0  0  0  0  0
   -0.3296   -6.7614   41.7165 C   0  0  1  0  0  0  0  0  0  0  0  0
   -0.6025   -8.0388   41.1446 O   0  0  0  0  0  0  0  0  0  0  0  0
   -1.1505   -6.5923   43.0039 C   0  0  2  0  0  0  0  0  0  0  0  0
   -2.5350   -6.7901   42.7350 O   0  0  0  0  0  0  0  0  0  0  0  0
   -0.8646   -5.2230   43.6594 C   0  0  2  0  0  0  0  0  0  0  0  0
    0.5389   -5.2046   43.9960 O   0  0  0  0  0  0  0  0  0  0  0  0
   -1.6578   -4.9623   44.9388 C   0  0  0  0  0  0  0  0  0  0  0  0
   -1.7961   -3.5690   45.1842 O   0  0  0  0  0  0  0  0  0  0  0  0
    0.9405   -0.7322   44.6225 C   0  0  1  0  0  0  0  0  0  0  0  0
    1.0936    0.4931   45.4282 N   0  3  0  0  0  0  0  0  0  0  0  0
    1.0345   -0.4485   43.0927 C   0  0  2  0  0  0  0  0  0  0  0  0
    0.0256    0.4772   42.6954 O   0  0  0  0  0  0  0  0  0  0  0  0
    0.8572   -1.7542   42.2637 C   0  0  1  0  0  0  0  0  0  0  0  0
    1.1232   -1.4555   40.8612 O   0  0  0  0  0  0  0  0  0  0  0  0
    1.8178   -2.8906   42.7442 C   0  0  1  0  0  0  0  0  0  0  0  0
    1.7536   -3.1273   44.2871 C   0  0  1  0  0  0  0  0  0  0  0  0
    2.7431   -4.1367   44.7247 N   0  3  0  0  0  0  0  0  0  0  0  0
    1.9878   -1.8001   45.0540 C   0  0  0  0  0  0  0  0  0  0  0  0
    2.3074   -2.0131   40.2066 C   0  0  1  0  0  0  0  0  0  0  0  0
    2.5733   -1.2227   38.9117 C   0  0  2  0  0  0  0  0  0  0  0  0
    3.2894   -2.0134   37.9671 O   0  0  0  0  0  0  0  0  0  0  0  0
    3.4330   -0.0900   39.4930 C   0  0  1  0  0  0  0  0  0  0  0  0
    4.3513   -0.8358   40.4470 C   0  0  2  0  0  0  0  0  0  0  0  0
    3.4757   -1.7962   41.0176 O   0  0  0  0  0  0  0  0  0  0  0  0
    4.9889    0.0239   41.5461 C   0  0  0  0  0  0  0  0  0  0  0  0
    5.3490   -0.7890   42.6533 O   0  0  0  0  0  0  0  0  0  0  0  0
    2.1325    3.2025   35.6996 C   0  0  1  0  0  0  0  0  0  0  0  0
    2.5760    4.4315   36.2721 O   0  0  0  0  0  0  0  0  0  0  0  0
    3.3582    2.4129   35.1611 C   0  0  2  0  0  0  0  0  0  0  0  0
    2.8903    1.3957   34.2785 O   0  0  0  0  0  0  0  0  0  0  0  0
    4.2631    1.7541   36.2532 C   0  0  1  0  0  0  0  0  0  0  0  0
    5.2526    2.7308   36.7591 N   0  3  0  0  0  0  0  0  0  0  0  0
    3.4236    1.1080   37.3867 C   0  0  1  0  0  0  0  0  0  0  0  0
    4.2057    0.6737   38.5263 O   0  0  0  0  0  0  0  0  0  0  0  0
    1.3879    2.3535   36.7605 C   0  0  1  0  0  0  0  0  0  0  0  0
    2.3433    2.0104   37.8013 O   0  0  0  0  0  0  0  0  0  0  0  0
    0.1492    3.0479   37.3567 C   0  0  0  0  0  0  0  0  0  0  0  0
   -0.4657    2.2743   38.4530 N   0  3  0  0  0  0  0  0  0  0  0  0
  1  2  1  6  0  0  0
  1  3  1  0  0  0  0
  1 10  1  0  0  0  0
  3  4  1  6  0  0  0
  3  5  1  0  0  0  0
  5  6  1  1  0  0  0
  5  7  1  0  0  0  0
  7  8  1  6  0  0  0
  7  9  1  0  0  0  0
  9 10  1  0  0  0  0
  9 11  1  1  0  0  0
 11 12  1  0  0  0  0
 13 14  1  1  0  0  0
 13 15  1  0  0  0  0
 13 22  1  0  0  0  0
 15 16  1  6  0  0  0
 15 17  1  0  0  0  0
 17 18  1  6  0  0  0
 17 19  1  0  0  0  0
 19  2  1  6  0  0  0
 19 20  1  0  0  0  0
 20 21  1  1  0  0  0
 20 22  1  0  0  0  0
 23 18  1  1  0  0  0
 23 24  1  0  0  0  0
 23 28  1  0  0  0  0
 24 25  1  6  0  0  0
 24 26  1  0  0  0  0
 26 27  1  0  0  0  0
 26 38  1  6  0  0  0
 27 28  1  0  0  0  0
 27 29  1  1  0  0  0
 29 30  1  0  0  0  0
 31 32  1  1  0  0  0
 31 33  1  0  0  0  0
 31 39  1  0  0  0  0
 33 34  1  6  0  0  0
 33 35  1  0  0  0  0
 35 36  1  1  0  0  0
 35 37  1  0  0  0  0
 37 38  1  1  0  0  0
 37 40  1  0  0  0  0
 39 40  1  0  0  0  0
 39 41  1  1  0  0  0
 41 42  1  0  0  0  0
M  CHG  5   4   1  14   1  21   1  36   1  42   1
M  END
>  <CHROM.1>
-174.50323236,-139.24202020,67.64639426,-177.83021151,177.91240395,-155.82010375
76.62274482,70.75848161,64.40801383,111.88589301,-163.08316048,14.73949052
178.12400116,48.50145545,156.18725199,63.41990777,51.50767532,51.64080521
70.51443156,-172.07755298,-174.54549198,-158.24320747,1.71396669,-1.57417386
40.77830416,2.72308237,1.25078773,1.27385045

>  <Name>
1pbr

>  <RI>
0

>  <Rbt.Current_Directory>
/home/itssahil/PROJECTS/Mol_Feturizer/New_Systems/rnas/1pbr

>  <Rbt.Executable>
rbdock ($Id: //depot/dev/client3/rdock/2013.1/src/exe/rbdock.cxx#4 $)

>  <Rbt.Library>
libRbt.so (2013.1, Build901 2013/11/27)

>  <Rbt.Parameter_File>
/export/apps/rDock/src/rDock_2013.1_src/data/scripts/dock_solv.prm

>  <Rbt.Receptor>
prm/pocket_docking_2.prm

>  <SCORE>
-14.1846

>  <SCORE.INTER>
-29.5626

>  <SCORE.INTER.CONST>
1

>  <SCORE.INTER.POLAR>
-4.22549

>  <SCORE.INTER.ROT>
9

>  <SCORE.INTER.SOLV>
23.8057

>  <SCORE.INTER.VDW>
-23.1586

>  <SCORE.INTER.norm>
-0.70387

>  <SCORE.INTRA>
11.8119

>  <SCORE.INTRA.DIHEDRAL>
-3.23918

>  <SCORE.INTRA.DIHEDRAL.0>
29.7866

>  <SCORE.INTRA.POLAR>
0.701946

>  <SCORE.INTRA.POLAR.0>
-0.984091

>  <SCORE.INTRA.REPUL>
-0.274115

>  <SCORE.INTRA.REPUL.0>
0.274115

>  <SCORE.INTRA.SOLV>
-1.44593

>  <SCORE.INTRA.SOLV.lig_0>
-152.978

>  <SCORE.INTRA.VDW>
13.1384

>  <SCORE.INTRA.VDW.0>
-6.10719

>  <SCORE.INTRA.norm>
0.281237

>  <SCORE.RESTR>
3.56607

>  <SCORE.RESTR.CAVITY>
3.56607

>  <SCORE.RESTR.norm>
0.0849065

>  <SCORE.SYSTEM>
0

>  <SCORE.SYSTEM.CONST>
0

>  <SCORE.SYSTEM.DIHEDRAL>
0

>  <SCORE.SYSTEM.SOLV>
0

>  <SCORE.SYSTEM.norm>
0

>  <SCORE.heavy>
42

>  <SCORE.norm>
-0.337727

>  <RMSD>
4.560

$$$$
1pbr
 OpenBabel11021811403D
libRbt.so/2013.1/901 2013/11/27
 42 45  0  0  0  0  0  0  0  0999 V2000
    2.2299   -4.6493   45.0119 C   0  0  2  0  0  0  0  0  0  0  0  0
    3.3856   -4.3199   44.2001 O   0  0  0  0  0  0  0  0  0  0  0  0
    1.4863   -5.9133   44.4395 C   0  0  2  0  0  0  0  0  0  0  0  0
    2.3870   -6.9992   43.9725 N   0  3  0  0  0  0  0  0  0  0  0  0
    0.5912   -5.5499   43.2399 C   0  0  1  0  0  0  0  0  0  0  0  0
   -0.2691   -6.6360   42.9030 O   0  0  0  0  0  0  0  0  0  0  0  0
   -0.2543   -4.3029   43.5400 C   0  0  2  0  0  0  0  0  0  0  0  0
   -1.1063   -4.0082   42.4375 O   0  0  0  0  0  0  0  0  0  0  0  0
    0.6480   -3.1099   43.9261 C   0  0  2  0  0  0  0  0  0  0  0  0
    1.3570   -3.4914   45.1240 O   0  0  0  0  0  0  0  0  0  0  0  0
   -0.1125   -1.8183   44.2218 C   0  0  0  0  0  0  0  0  0  0  0  0
   -0.6112   -1.2294   43.0280 O   0  0  0  0  0  0  0  0  0  0  0  0
    4.5478   -0.8888   46.4550 C   0  0  1  0  0  0  0  0  0  0  0  0
    5.2618    0.2071   47.1355 N   0  3  0  0  0  0  0  0  0  0  0  0
    4.5980   -0.7521   44.9031 C   0  0  2  0  0  0  0  0  0  0  0  0
    4.0163    0.4833   44.4932 O   0  0  0  0  0  0  0  0  0  0  0  0
    3.8273   -1.9126   44.2082 C   0  0  1  0  0  0  0  0  0  0  0  0
    4.0525   -1.8261   42.7699 O   0  0  0  0  0  0  0  0  0  0  0  0
    4.2881   -3.3155   44.7229 C   0  0  1  0  0  0  0  0  0  0  0  0
    4.2852   -3.4208   46.2816 C   0  0  1  0  0  0  0  0  0  0  0  0
    4.8193   -4.7222   46.7403 N   0  3  0  0  0  0  0  0  0  0  0  0
    5.1104   -2.2675   46.9090 C   0  0  0  0  0  0  0  0  0  0  0  0
    5.3969   -1.5636   42.2547 C   0  0  1  0  0  0  0  0  0  0  0  0
    5.4655   -2.0379   40.7910 C   0  0  2  0  0  0  0  0  0  0  0  0
    6.8033   -2.3562   40.4180 O   0  0  0  0  0  0  0  0  0  0  0  0
    4.9565   -0.7634   40.1006 C   0  0  1  0  0  0  0  0  0  0  0  0
    5.6873    0.3315   40.8599 C   0  0  2  0  0  0  0  0  0  0  0  0
    5.6418   -0.1472   42.1953 O   0  0  0  0  0  0  0  0  0  0  0  0
    5.0512    1.7247   40.7709 C   0  0  0  0  0  0  0  0  0  0  0  0
    3.7358    1.6948   41.3049 O   0  0  0  0  0  0  0  0  0  0  0  0
    3.1334    1.6461   35.6842 C   0  0  1  0  0  0  0  0  0  0  0  0
    4.2757    1.8546   34.8555 O   0  0  0  0  0  0  0  0  0  0  0  0
    2.8097    0.1271   35.7431 C   0  0  2  0  0  0  0  0  0  0  0  0
    1.4855   -0.0352   36.2456 O   0  0  0  0  0  0  0  0  0  0  0  0
    3.7860   -0.7328   36.6109 C   0  0  1  0  0  0  0  0  0  0  0  0
    4.9696   -1.1272   35.8156 N   0  3  0  0  0  0  0  0  0  0  0  0
    4.1636   -0.0185   37.9353 C   0  0  1  0  0  0  0  0  0  0  0  0
    5.2262   -0.6690   38.6747 O   0  0  0  0  0  0  0  0  0  0  0  0
    3.4023    2.1799   37.1137 C   0  0  1  0  0  0  0  0  0  0  0  0
    4.4829    1.3914   37.6833 O   0  0  0  0  0  0  0  0  0  0  0  0
    3.7307    3.6837   37.1657 C   0  0  0  0  0  0  0  0  0  0  0  0
    2.5893    4.5306   36.7673 N   0  3  0  0  0  0  0  0  0  0  0  0
  1  2  1  6  0  0  0
  1  3  1  0  0  0  0
  1 10  1  0  0  0  0
  3  4  1  6  0  0  0
  3  5  1  0  0  0  0
  5  6  1  1  0  0  0
  5  7  1  0  0  0  0
  7  8  1  6  0  0  0
  7  9  1  0  0  0  0
  9 10  1  0  0  0  0
  9 11  1  1  0  0  0
 11 12  1  0  0  0  0
 13 14  1  1  0  0  0
 13 15  1  0  0  0  0
 13 22  1  0  0  0  0
 15 16  1  1  0  0  0
 15 17  1  0  0  0  0
 17 18  1  6  0  0  0
 17 19  1  0  0  0  0
 19  2  1  6  0  0  0
 19 20  1  0  0  0  0
 20 21  1  6  0  0  0
 20 22  1  0  0  0  0
 23 18  1  6  0  0  0
 23 24  1  0  0  0  0
 23 28  1  0  0  0  0
 24 25  1  6  0  0  0
 24 26  1  0  0  0  0
 26 27  1  0  0  0  0
 26 38  1  6  0  0  0
 27 28  1  0  0  0  0
 27 29  1  1  0  0  0
 29 30  1  0  0  0  0
 31 32  1  6  0  0  0
 31 33  1  0  0  0  0
 31 39  1  0  0  0  0
 33 34  1  1  0  0  0
 33 35  1  0  0  0  0
 35 36  1  6  0  0  0
 35 37  1  0  0  0  0
 37 38  1  6  0  0  0
 37 40  1  0  0  0  0
 39 40  1  0  0  0  0
 39 41  1  6  0  0  0
 41 42  1  0  0  0  0
M  CHG  5   4   1  14   1  21   1  36   1  42   1
M  END
>  <CHROM.1>
-170.37177436,-90.58245827,-57.32270078,-61.58486566,122.25581191,-73.33931148
62.01426398,-68.87031808,81.00852527,43.94091753,158.95462043,-53.73086669
-172.49418680,144.48153338,60.46073541,-65.19460406,171.86191310,-174.88737182
-87.10082665,-135.78175455,66.09764540,-61.54493350,3.35130727,-1.43643491
41.62760337,1.75878475,0.75302198,2.01761485

>  <Name>
1pbr

>  <RI>
0

>  <Rbt.Current_Directory>
/home/itssahil/PROJECTS/Mol_Feturizer/New_Systems/rnas/1pbr

>  <Rbt.Executable>
rbdock ($Id: //depot/dev/client3/rdock/2013.1/src/exe/rbdock.cxx#4 $)

>  <Rbt.Library>
libRbt.so (2013.1, Build901 2013/11/27)

>  <Rbt.Parameter_File>
/export/apps/rDock/src/rDock_2013.1_src/data/scripts/dock_solv.prm

>  <Rbt.Receptor>
prm/pocket_docking_7.prm

>  <SCORE>
-37.8755

>  <SCORE.INTER>
-40.1998

>  <SCORE.INTER.CONST>
1

>  <SCORE.INTER.POLAR>
-6.45457

>  <SCORE.INTER.ROT>
9

>  <SCORE.INTER.SOLV>
24.2004

>  <SCORE.INTER.VDW>
-22.9514

>  <SCORE.INTER.norm>
-0.957138

>  <SCORE.INTRA>
2.32433

>  <SCORE.INTRA.DIHEDRAL>
1.58739

>  <SCORE.INTRA.DIHEDRAL.0>
29.7866

>  <SCORE.INTRA.POLAR>
0.539053

>  <SCORE.INTRA.POLAR.0>
-0.984091

>  <SCORE.INTRA.REPUL>
-0.268331

>  <SCORE.INTRA.REPUL.0>
0.274115

>  <SCORE.INTRA.SOLV>
-1.61254

>  <SCORE.INTRA.SOLV.lig_0>
-152.978

>  <SCORE.INTRA.VDW>
1.84578

>  <SCORE.INTRA.VDW.0>
-6.10719

>  <SCORE.INTRA.norm>
0.0553412

>  <SCORE.RESTR>
0

>  <SCORE.RESTR.CAVITY>
0

>  <SCORE.RESTR.norm>
0

>  <SCORE.SYSTEM>
0

>  <SCORE.SYSTEM.CONST>
0

>  <SCORE.SYSTEM.DIHEDRAL>
0

>  <SCORE.SYSTEM.SOLV>
0

>  <SCORE.SYSTEM.norm>
0

>  <SCORE.heavy>
42

>  <SCORE.norm>
-0.901796

>  <RMSD>
4.569

$$$$
1pbr
 OpenBabel11021811403D
libRbt.so/2013.1/901 2013/11/27
 42 45  0  0  0  0  0  0  0  0999 V2000
    0.3046   -2.7612   43.1709 C   0  0  2  0  0  0  0  0  0  0  0  0
    1.5976   -2.8772   43.8173 O   0  0  0  0  0  0  0  0  0  0  0  0
   -0.8540   -3.1472   44.1644 C   0  0  2  0  0  0  0  0  0  0  0  0
   -0.6773   -2.6319   45.5470 N   0  3  0  0  0  0  0  0  0  0  0  0
   -1.0081   -4.6746   44.2901 C   0  0  1  0  0  0  0  0  0  0  0  0
   -2.2142   -5.0069   44.9744 O   0  0  0  0  0  0  0  0  0  0  0  0
   -1.0038   -5.3452   42.9080 C   0  0  2  0  0  0  0  0  0  0  0  0
   -1.1909   -6.7507   43.0417 O   0  0  0  0  0  0  0  0  0  0  0  0
    0.2840   -4.9908   42.1318 C   0  0  2  0  0  0  0  0  0  0  0  0
    0.2855   -3.5584   41.9546 O   0  0  0  0  0  0  0  0  0  0  0  0
    0.3807   -5.6350   40.7499 C   0  0  0  0  0  0  0  0  0  0  0  0
    1.6277   -5.3447   40.1324 O   0  0  0  0  0  0  0  0  0  0  0  0
    3.5088    0.8688   43.0944 C   0  0  1  0  0  0  0  0  0  0  0  0
    4.4288    1.9673   42.7468 N   0  3  0  0  0  0  0  0  0  0  0  0
    3.0381    0.0733   41.8393 C   0  0  2  0  0  0  0  0  0  0  0  0
    2.3745    0.9391   40.9214 O   0  0  0  0  0  0  0  0  0  0  0  0
    2.0587   -1.0718   42.2304 C   0  0  1  0  0  0  0  0  0  0  0  0
    1.7900   -1.8799   41.0464 O   0  0  0  0  0  0  0  0  0  0  0  0
    2.6406   -1.9829   43.3603 C   0  0  1  0  0  0  0  0  0  0  0  0
    3.1588   -1.1692   44.5891 C   0  0  1  0  0  0  0  0  0  0  0  0
    3.7928   -2.0486   45.5962 N   0  3  0  0  0  0  0  0  0  0  0  0
    4.1667   -0.0804   44.1383 C   0  0  0  0  0  0  0  0  0  0  0  0
    2.8859   -2.5789   40.3740 C   0  0  1  0  0  0  0  0  0  0  0  0
    3.0443   -1.9992   38.9559 C   0  0  2  0  0  0  0  0  0  0  0  0
    3.6388   -2.9504   38.0773 O   0  0  0  0  0  0  0  0  0  0  0  0
    3.9907   -0.8325   39.2768 C   0  0  1  0  0  0  0  0  0  0  0  0
    4.9774   -1.4701   40.2409 C   0  0  2  0  0  0  0  0  0  0  0  0
    4.1353   -2.2972   41.0293 O   0  0  0  0  0  0  0  0  0  0  0  0
    5.7467   -0.4877   41.1334 C   0  0  0  0  0  0  0  0  0  0  0  0
    6.6698    0.2585   40.3540 O   0  0  0  0  0  0  0  0  0  0  0  0
    2.5990    2.8735   36.0039 C   0  0  1  0  0  0  0  0  0  0  0  0
    3.3352    3.9462   36.5888 O   0  0  0  0  0  0  0  0  0  0  0  0
    3.5615    1.9823   35.1702 C   0  0  2  0  0  0  0  0  0  0  0  0
    2.7824    1.1583   34.3061 O   0  0  0  0  0  0  0  0  0  0  0  0
    4.5215    1.0713   36.0034 C   0  0  1  0  0  0  0  0  0  0  0  0
    5.7335    1.8238   36.3953 N   0  3  0  0  0  0  0  0  0  0  0  0
    3.7985    0.4249   37.2143 C   0  0  1  0  0  0  0  0  0  0  0  0
    4.6851   -0.2534   38.1379 O   0  0  0  0  0  0  0  0  0  0  0  0
    1.9214    2.0226   37.1072 C   0  0  1  0  0  0  0  0  0  0  0  0
    2.9741    1.4203   37.9091 O   0  0  0  0  0  0  0  0  0  0  0  0
    0.9405    2.8154   37.9912 C   0  0  0  0  0  0  0  0  0  0  0  0
   -0.2102    3.3443   37.2331 N   0  3  0  0  0  0  0  0  0  0  0  0
  1  2  1  1  0  0  0
  1  3  1  0  0  0  0
  1 10  1  0  0  0  0
  3  4  1  1  0  0  0
  3  5  1  0  0  0  0
  5  6  1  6  0  0  0
  5  7  1  0  0  0  0
  7  8  1  1  0  0  0
  7  9  1  0  0  0  0
  9 10  1  0  0  0  0
  9 11  1  6  0  0  0
 11 12  1  0  0  0  0
 13 14  1  6  0  0  0
 13 15  1  0  0  0  0
 13 22  1  0  0  0  0
 15 16  1  6  0  0  0
 15 17  1  0  0  0  0
 17 18  1  6  0  0  0
 17 19  1  0  0  0  0
 19  2  1  1  0  0  0
 19 20  1  0  0  0  0
 20 21  1  1  0  0  0
 20 22  1  0  0  0  0
 23 18  1  1  0  0  0
 23 24  1  0  0  0  0
 23 28  1  0  0  0  0
 24 25  1  6  0  0  0
 24 26  1  0  0  0  0
 26 27  1  0  0  0  0
 26 38  1  6  0  0  0
 27 28  1  0  0  0  0
 27 29  1  1  0  0  0
 29 30  1  0  0  0  0
 31 32  1  1  0  0  0
 31 33  1  0  0  0  0
 31 39  1  0  0  0  0
 33 34  1  6  0  0  0
 33 35  1  0  0  0  0
 35 36  1  1  0  0  0
 35 37  1  0  0  0  0
 37 38  1  1  0  0  0
 37 40  1  0  0  0  0
 39 40  1  0  0  0  0
 39 41  1  1  0  0  0
 41 42  1  0  0  0  0
M  CHG  5   4   1  14   1  21   1  36   1  42   1
M  END
>  <CHROM.1>
-149.73577915,0.30727059,-52.31397146,-68.11603769,178.04386989,-175.86098487
57.10900132,111.81455178,64.16553678,61.24541994,-116.01833186,-69.59427412
179.63547036,66.90276870,-69.84240754,-169.69548574,65.78655251,61.44627569
-80.68184964,179.01718331,63.39346013,53.25801337,2.39377519,-1.09951178
40.60772624,2.08054219,0.76723713,1.91686837

>  <Name>
1pbr

>  <RI>
0

>  <Rbt.Current_Directory>
/home/itssahil/PROJECTS/Mol_Feturizer/New_Systems/rnas/1pbr

>  <Rbt.Executable>
rbdock ($Id: //depot/dev/client3/rdock/2013.1/src/exe/rbdock.cxx#4 $)

>  <Rbt.Library>
libRbt.so (2013.1, Build901 2013/11/27)

>  <Rbt.Parameter_File>
/export/apps/rDock/src/rDock_2013.1_src/data/scripts/dock_solv.prm

>  <Rbt.Receptor>
prm/pocket_docking_2.prm

>  <SCORE>
-21.6478

>  <SCORE.INTER>
-31.6805

>  <SCORE.INTER.CONST>
1

>  <SCORE.INTER.POLAR>
-4.51971

>  <SCORE.INTER.ROT>
9

>  <SCORE.INTER.SOLV>
26.101

>  <SCORE.INTER.VDW>
-24.355

>  <SCORE.INTER.norm>
-0.754299

>  <SCORE.INTRA>
7.40505

>  <SCORE.INTRA.DIHEDRAL>
-4.3324

>  <SCORE.INTRA.DIHEDRAL.0>
29.7866

>  <SCORE.INTRA.POLAR>
0.861138

>  <SCORE.INTRA.POLAR.0>
-0.984091

>  <SCORE.INTRA.REPUL>
-0.27366

>  <SCORE.INTRA.REPUL.0>
0.274115

>  <SCORE.INTRA.SOLV>
1.62328

>  <SCORE.INTRA.SOLV.lig_0>
-152.978

>  <SCORE.INTRA.VDW>
7.20004

>  <SCORE.INTRA.VDW.0>
-6.10719

>  <SCORE.INTRA.norm>
0.176311

>  <SCORE.RESTR>
2.62772

>  <SCORE.RESTR.CAVITY>
2.62772

>  <SCORE.RESTR.norm>
0.0625648

>  <SCORE.SYSTEM>
0

>  <SCORE.SYSTEM.CONST>
0

>  <SCORE.SYSTEM.DIHEDRAL>
0

>  <SCORE.SYSTEM.SOLV>
0

>  <SCORE.SYSTEM.norm>
0

>  <SCORE.heavy>
42

>  <SCORE.norm>
-0.515423

>  <RMSD>
4.638

$$$$
1pbr
 OpenBabel11021811403D
libRbt.so/2013.1/901 2013/11/27
 42 45  0  0  0  0  0  0  0  0999 V2000
    4.1513   -2.8111   44.7526 C   0  0  2  0  0  0  0  0  0  0  0  0
    4.5150   -1.4282   44.5109 O   0  0  0  0  0  0  0  0  0  0  0  0
    4.8467   -3.7629   43.7091 C   0  0  2  0  0  0  0  0  0  0  0  0
    6.2609   -3.4192   43.4085 N   0  3  0  0  0  0  0  0  0  0  0  0
    4.1062   -3.7614   42.3585 C   0  0  1  0  0  0  0  0  0  0  0  0
    4.5808   -4.8126   41.5200 O   0  0  0  0  0  0  0  0  0  0  0  0
    2.5909   -3.9133   42.5597 C   0  0  2  0  0  0  0  0  0  0  0  0
    1.9281   -3.9537   41.2999 O   0  0  0  0  0  0  0  0  0  0  0  0
    2.0464   -2.7979   43.4794 C   0  0  2  0  0  0  0  0  0  0  0  0
    2.7034   -2.9493   44.7556 O   0  0  0  0  0  0  0  0  0  0  0  0
    0.5386   -2.8612   43.7170 C   0  0  0  0  0  0  0  0  0  0  0  0
    0.1883   -3.9909   44.5054 O   0  0  0  0  0  0  0  0  0  0  0  0
    1.0151    0.2378   46.2951 C   0  0  1  0  0  0  0  0  0  0  0  0
    0.0116    1.0756   46.9770 N   0  3  0  0  0  0  0  0  0  0  0  0
    1.4497    0.8361   44.9229 C   0  0  2  0  0  0  0  0  0  0  0  0
    0.3225    0.9748   44.0611 O   0  0  0  0  0  0  0  0  0  0  0  0
    2.4990   -0.0719   44.2172 C   0  0  1  0  0  0  0  0  0  0  0  0
    2.9898    0.6189   43.0302 O   0  0  0  0  0  0  0  0  0  0  0  0
    3.7032   -0.4159   45.1535 C   0  0  1  0  0  0  0  0  0  0  0  0
    3.2523   -0.9631   46.5455 C   0  0  1  0  0  0  0  0  0  0  0  0
    4.4074   -1.1851   47.4434 N   0  3  0  0  0  0  0  0  0  0  0  0
    2.2489    0.0102   47.2167 C   0  0  0  0  0  0  0  0  0  0  0  0
    2.0773    0.9098   41.9236 C   0  0  1  0  0  0  0  0  0  0  0  0
    2.7613    1.9064   40.9692 C   0  0  2  0  0  0  0  0  0  0  0  0
    1.7974    2.6595   40.2385 O   0  0  0  0  0  0  0  0  0  0  0  0
    3.5162    0.9079   40.0787 C   0  0  1  0  0  0  0  0  0  0  0  0
    2.4773   -0.1787   39.8557 C   0  0  2  0  0  0  0  0  0  0  0  0
    1.8606   -0.2708   41.1308 O   0  0  0  0  0  0  0  0  0  0  0  0
    3.0387   -1.5430   39.4351 C   0  0  0  0  0  0  0  0  0  0  0  0
    2.0041   -2.3486   38.8901 O   0  0  0  0  0  0  0  0  0  0  0  0
    1.9236    2.1706   35.0870 C   0  0  1  0  0  0  0  0  0  0  0  0
    2.9991    2.8817   34.4768 O   0  0  0  0  0  0  0  0  0  0  0  0
    2.3643    0.7056   35.3614 C   0  0  2  0  0  0  0  0  0  0  0  0
    1.2006   -0.0785   35.6132 O   0  0  0  0  0  0  0  0  0  0  0  0
    3.3639    0.5181   36.5494 C   0  0  1  0  0  0  0  0  0  0  0  0
    4.7539    0.7350   36.0913 N   0  3  0  0  0  0  0  0  0  0  0  0
    2.9879    1.4037   37.7664 C   0  0  1  0  0  0  0  0  0  0  0  0
    3.9934    1.4321   38.8091 O   0  0  0  0  0  0  0  0  0  0  0  0
    1.5151    2.8522   36.4172 C   0  0  1  0  0  0  0  0  0  0  0  0
    2.6467    2.7611   37.3255 O   0  0  0  0  0  0  0  0  0  0  0  0
    1.0563    4.3133   36.2532 C   0  0  0  0  0  0  0  0  0  0  0  0
    2.1133    5.1845   35.7035 N   0  3  0  0  0  0  0  0  0  0  0  0
  1  2  1  6  0  0  0
  1  3  1  0  0  0  0
  1 10  1  0  0  0  0
  3  4  1  6  0  0  0
  3  5  1  0  0  0  0
  5  6  1  6  0  0  0
  5  7  1  0  0  0  0
  7  8  1  6  0  0  0
  7  9  1  0  0  0  0
  9 10  1  0  0  0  0
  9 11  1  1  0  0  0
 11 12  1  0  0  0  0
 13 14  1  1  0  0  0
 13 15  1  0  0  0  0
 13 22  1  0  0  0  0
 15 16  1  6  0  0  0
 15 17  1  0  0  0  0
 17 18  1  6  0  0  0
 17 19  1  0  0  0  0
 19  2  1  6  0  0  0
 19 20  1  0  0  0  0
 20 21  1  1  0  0  0
 20 22  1  0  0  0  0
 23 18  1  1  0  0  0
 23 24  1  0  0  0  0
 23 28  1  0  0  0  0
 24 25  1  6  0  0  0
 24 26  1  0  0  0  0
 26 27  1  0  0  0  0
 26 38  1  6  0  0  0
 27 28  1  0  0  0  0
 27 29  1  1  0  0  0
 29 30  1  0  0  0  0
 31 32  1  1  0  0  0
 31 33  1  0  0  0  0
 31 39  1  0  0  0  0
 33 34  1  1  0  0  0
 33 35  1  0  0  0  0
 35 36  1  6  0  0  0
 35 37  1  0  0  0  0
 37 38  1  1  0  0  0
 37 40  1  0  0  0  0
 39 40  1  0  0  0  0
 39 41  1  6  0  0  0
 41 42  1  0  0  0  0
M  CHG  5   4   1  14   1  21   1  36   1  42   1
M  END
>  <CHROM.1>
164.60323153,-88.08598418,-60.00058725,67.70728624,68.31431875,68.92557432
-174.20103685,-37.10246393,45.32868185,-64.51855570,167.23404077,97.17244736
-47.88944547,-84.34789530,-163.26647079,-169.71886394,68.09200759,74.34519055
-32.80750398,-118.32515134,-61.30295926,23.89075931,2.63611630,-0.30323093
41.26208643,-1.49190724,1.19637780,-1.21934054

>  <Name>
1pbr

>  <RI>
0

>  <Rbt.Current_Directory>
/home/itssahil/PROJECTS/Mol_Feturizer/New_Systems/rnas/1pbr

>  <Rbt.Executable>
rbdock ($Id: //depot/dev/client3/rdock/2013.1/src/exe/rbdock.cxx#4 $)

>  <Rbt.Library>
libRbt.so (2013.1, Build901 2013/11/27)

>  <Rbt.Parameter_File>
/export/apps/rDock/src/rDock_2013.1_src/data/scripts/dock_solv.prm

>  <Rbt.Receptor>
prm/pocket_docking_3.prm

>  <SCORE>
-28.7365

>  <SCORE.INTER>
-33.2255

>  <SCORE.INTER.CONST>
1

>  <SCORE.INTER.POLAR>
-4.42038

>  <SCORE.INTER.ROT>
9

>  <SCORE.INTER.SOLV>
22.4554

>  <SCORE.INTER.VDW>
-24.5009

>  <SCORE.INTER.norm>
-0.791084

>  <SCORE.INTRA>
3.69045

>  <SCORE.INTRA.DIHEDRAL>
-1.65856

>  <SCORE.INTRA.DIHEDRAL.0>
29.7866

>  <SCORE.INTRA.POLAR>
0.0500454

>  <SCORE.INTRA.POLAR.0>
-0.984091

>  <SCORE.INTRA.REPUL>
-0.173047

>  <SCORE.INTRA.REPUL.0>
0.274115

>  <SCORE.INTRA.SOLV>
1.73622

>  <SCORE.INTRA.SOLV.lig_0>
-152.978

>  <SCORE.INTRA.VDW>
4.3467

>  <SCORE.INTRA.VDW.0>
-6.10719

>  <SCORE.INTRA.norm>
0.0878677

>  <SCORE.RESTR>
0.798618

>  <SCORE.RESTR.CAVITY>
0.798618

>  <SCORE.RESTR.norm>
0.0190147

>  <SCORE.SYSTEM>
0

>  <SCORE.SYSTEM.CONST>
0

>  <SCORE.SYSTEM.DIHEDRAL>
0

>  <SCORE.SYSTEM.SOLV>
0

>  <SCORE.SYSTEM.norm>
0

>  <SCORE.heavy>
42

>  <SCORE.norm>
-0.684201

>  <RMSD>
4.649

$$$$
1pbr
 OpenBabel11021811403D
libRbt.so/2013.1/901 2013/11/27
 42 45  0  0  0  0  0  0  0  0999 V2000
    1.8192   -3.3818   43.6865 C   0  0  2  0  0  0  0  0  0  0  0  0
    0.8220   -3.7050   44.6887 O   0  0  0  0  0  0  0  0  0  0  0  0
    3.1637   -2.9213   44.3635 C   0  0  2  0  0  0  0  0  0  0  0  0
    3.5556   -3.7143   45.5576 N   0  3  0  0  0  0  0  0  0  0  0  0
    3.0927   -1.4535   44.8250 C   0  0  1  0  0  0  0  0  0  0  0  0
    4.3854   -0.9745   45.1895 O   0  0  0  0  0  0  0  0  0  0  0  0
    2.5075   -0.5564   43.7239 C   0  0  2  0  0  0  0  0  0  0  0  0
    2.4902    0.8017   44.1520 O   0  0  0  0  0  0  0  0  0  0  0  0
    1.1117   -1.0589   43.2929 C   0  0  2  0  0  0  0  0  0  0  0  0
    1.2906   -2.3898   42.7636 O   0  0  0  0  0  0  0  0  0  0  0  0
    0.4454   -0.2093   42.2120 C   0  0  0  0  0  0  0  0  0  0  0  0
   -0.7835   -0.7850   41.7890 O   0  0  0  0  0  0  0  0  0  0  0  0
   -1.7852   -7.0827   44.6468 C   0  0  1  0  0  0  0  0  0  0  0  0
   -2.8633   -8.0608   44.4127 N   0  3  0  0  0  0  0  0  0  0  0  0
   -0.8899   -6.8782   43.3873 C   0  0  2  0  0  0  0  0  0  0  0  0
   -0.2960   -8.1128   42.9931 O   0  0  0  0  0  0  0  0  0  0  0  0
    0.2476   -5.8517   43.6630 C   0  0  1  0  0  0  0  0  0  0  0  0
    0.9405   -5.5762   42.4096 O   0  0  0  0  0  0  0  0  0  0  0  0
   -0.2997   -4.5137   44.2592 C   0  0  1  0  0  0  0  0  0  0  0  0
   -1.2392   -4.7363   45.4873 C   0  0  1  0  0  0  0  0  0  0  0  0
   -1.8194   -3.4624   45.9669 N   0  3  0  0  0  0  0  0  0  0  0  0
   -2.3777   -5.7274   45.1322 C   0  0  0  0  0  0  0  0  0  0  0  0
    1.8771   -6.5577   41.8607 C   0  0  1  0  0  0  0  0  0  0  0  0
    2.3634   -6.0606   40.4865 C   0  0  2  0  0  0  0  0  0  0  0  0
    2.7781   -7.1490   39.6657 O   0  0  0  0  0  0  0  0  0  0  0  0
    3.5464   -5.1960   40.9478 C   0  0  1  0  0  0  0  0  0  0  0  0
    4.1923   -6.0693   42.0106 C   0  0  2  0  0  0  0  0  0  0  0  0
    3.0643   -6.6233   42.6705 O   0  0  0  0  0  0  0  0  0  0  0  0
    5.0848   -5.3263   43.0131 C   0  0  0  0  0  0  0  0  0  0  0  0
    5.5959   -6.2349   43.9773 O   0  0  0  0  0  0  0  0  0  0  0  0
    3.9785   -1.9866   36.7165 C   0  0  1  0  0  0  0  0  0  0  0  0
    4.3919   -2.8731   35.6782 O   0  0  0  0  0  0  0  0  0  0  0  0
    2.6861   -2.5380   37.3808 C   0  0  2  0  0  0  0  0  0  0  0  0
    2.0826   -1.4909   38.1369 O   0  0  0  0  0  0  0  0  0  0  0  0
    2.8880   -3.7785   38.3115 C   0  0  1  0  0  0  0  0  0  0  0  0
    2.8800   -5.0256   37.5154 N   0  3  0  0  0  0  0  0  0  0  0  0
    4.1558   -3.6381   39.1946 C   0  0  1  0  0  0  0  0  0  0  0  0
    4.5089   -4.8438   39.9163 O   0  0  0  0  0  0  0  0  0  0  0  0
    5.0959   -1.8479   37.7809 C   0  0  1  0  0  0  0  0  0  0  0  0
    5.2857   -3.1523   38.3943 O   0  0  0  0  0  0  0  0  0  0  0  0
    6.4239   -1.3029   37.2227 C   0  0  0  0  0  0  0  0  0  0  0  0
    7.5922   -1.7191   38.0229 N   0  3  0  0  0  0  0  0  0  0  0  0
  1  2  1  1  0  0  0
  1  3  1  0  0  0  0
  1 10  1  0  0  0  0
  3  4  1  1  0  0  0
  3  5  1  0  0  0  0
  5  6  1  6  0  0  0
  5  7  1  0  0  0  0
  7  8  1  1  0  0  0
  7  9  1  0  0  0  0
  9 10  1  0  0  0  0
  9 11  1  6  0  0  0
 11 12  1  0  0  0  0
 13 14  1  6  0  0  0
 13 15  1  0  0  0  0
 13 22  1  0  0  0  0
 15 16  1  1  0  0  0
 15 17  1  0  0  0  0
 17 18  1  6  0  0  0
 17 19  1  0  0  0  0
 19  2  1  1  0  0  0
 19 20  1  0  0  0  0
 20 21  1  6  0  0  0
 20 22  1  0  0  0  0
 23 18  1  1  0  0  0
 23 24  1  0  0  0  0
 23 28  1  0  0  0  0
 24 25  1  6  0  0  0
 24 26  1  0  0  0  0
 26 27  1  0  0  0  0
 26 38  1  6  0  0  0
 27 28  1  0  0  0  0
 27 29  1  1  0  0  0
 29 30  1  0  0  0  0
 31 32  1  6  0  0  0
 31 33  1  0  0  0  0
 31 39  1  0  0  0  0
 33 34  1  1  0  0  0
 33 35  1  0  0  0  0
 35 36  1  6  0  0  0
 35 37  1  0  0  0  0
 37 38  1  6  0  0  0
 37 40  1  0  0  0  0
 39 40  1  0  0  0  0
 39 41  1  6  0  0  0
 41 42  1  0  0  0  0
M  CHG  5   4   1  14   1  21   1  36   1  42   1
M  END
>  <CHROM.1>
-161.77414723,57.17394159,-67.28757161,-64.94287366,64.41550728,175.39126722
-49.07068305,73.09146769,164.50856995,-75.84484129,175.25913386,-25.99111670
-46.59310845,87.28019383,178.17356657,-175.51548459,68.92261463,-57.97118269
-176.89157055,-67.64101936,-154.56245123,88.58553481,2.26059326,-3.89970074
41.84184621,-2.95914601,-0.92297251,-2.54508807

>  <Name>
1pbr

>  <RI>
0

>  <Rbt.Current_Directory>
/home/itssahil/PROJECTS/Mol_Feturizer/New_Systems/rnas/1pbr

>  <Rbt.Executable>
rbdock ($Id: //depot/dev/client3/rdock/2013.1/src/exe/rbdock.cxx#4 $)

>  <Rbt.Library>
libRbt.so (2013.1, Build901 2013/11/27)

>  <Rbt.Parameter_File>
/export/apps/rDock/src/rDock_2013.1_src/data/scripts/dock_solv.prm

>  <Rbt.Receptor>
prm/pocket_docking_8.prm

>  <SCORE>
-41.0868

>  <SCORE.INTER>
-34.4205

>  <SCORE.INTER.CONST>
1

>  <SCORE.INTER.POLAR>
-6.07731

>  <SCORE.INTER.ROT>
9

>  <SCORE.INTER.SOLV>
32.7098

>  <SCORE.INTER.VDW>
-23.1926

>  <SCORE.INTER.norm>
-0.819536

>  <SCORE.INTRA>
-6.66632

>  <SCORE.INTRA.DIHEDRAL>
-12.903

>  <SCORE.INTRA.DIHEDRAL.0>
29.7866

>  <SCORE.INTRA.POLAR>
-0.223639

>  <SCORE.INTRA.POLAR.0>
-0.984091

>  <SCORE.INTRA.REPUL>
-0.274115

>  <SCORE.INTRA.REPUL.0>
0.274115

>  <SCORE.INTRA.SOLV>
0.293633

>  <SCORE.INTRA.SOLV.lig_0>
-152.978

>  <SCORE.INTRA.VDW>
1.76931

>  <SCORE.INTRA.VDW.0>
-6.10719

>  <SCORE.INTRA.norm>
-0.158722

>  <SCORE.RESTR>
0

>  <SCORE.RESTR.CAVITY>
0

>  <SCORE.RESTR.norm>
0

>  <SCORE.SYSTEM>
0

>  <SCORE.SYSTEM.CONST>
0

>  <SCORE.SYSTEM.DIHEDRAL>
0

>  <SCORE.SYSTEM.SOLV>
0

>  <SCORE.SYSTEM.norm>
0

>  <SCORE.heavy>
42

>  <SCORE.norm>
-0.978258

>  <RMSD>
4.699

$$$$
1pbr
 OpenBabel11021811403D
libRbt.so/2013.1/901 2013/11/27
 42 45  0  0  0  0  0  0  0  0999 V2000
    0.2602   -2.6767   43.7756 C   0  0  2  0  0  0  0  0  0  0  0  0
    1.5867   -2.8280   44.3418 O   0  0  0  0  0  0  0  0  0  0  0  0
   -0.8441   -2.8505   44.8840 C   0  0  2  0  0  0  0  0  0  0  0  0
   -0.5229   -2.2006   46.1812 N   0  3  0  0  0  0  0  0  0  0  0  0
   -1.1032   -4.3359   45.1985 C   0  0  1  0  0  0  0  0  0  0  0  0
   -2.2746   -4.4872   45.9975 O   0  0  0  0  0  0  0  0  0  0  0  0
   -1.2562   -5.1548   43.9079 C   0  0  2  0  0  0  0  0  0  0  0  0
   -1.5383   -6.5158   44.2183 O   0  0  0  0  0  0  0  0  0  0  0  0
   -0.0091   -4.9989   43.0097 C   0  0  2  0  0  0  0  0  0  0  0  0
    0.0871   -3.6004   42.6656 O   0  0  0  0  0  0  0  0  0  0  0  0
   -0.0682   -5.7994   41.7098 C   0  0  0  0  0  0  0  0  0  0  0  0
    1.1514   -5.6982   40.9866 O   0  0  0  0  0  0  0  0  0  0  0  0
    3.6017    0.8094   43.3841 C   0  0  1  0  0  0  0  0  0  0  0  0
    4.5417    1.8566   42.9439 N   0  3  0  0  0  0  0  0  0  0  0  0
    3.0129    0.0033   42.1870 C   0  0  2  0  0  0  0  0  0  0  0  0
    2.3256    0.8735   41.2911 O   0  0  0  0  0  0  0  0  0  0  0  0
    2.0147   -1.0867   42.6759 C   0  0  1  0  0  0  0  0  0  0  0  0
    1.6316   -1.9126   41.5365 O   0  0  0  0  0  0  0  0  0  0  0  0
    2.6332   -1.9930   43.7901 C   0  0  1  0  0  0  0  0  0  0  0  0
    3.2682   -1.1714   44.9573 C   0  0  1  0  0  0  0  0  0  0  0  0
    3.9316   -2.0516   45.9446 N   0  3  0  0  0  0  0  0  0  0  0  0
    4.2884   -0.1406   44.4085 C   0  0  0  0  0  0  0  0  0  0  0  0
    2.6303   -2.7520   40.8732 C   0  0  1  0  0  0  0  0  0  0  0  0
    2.2009   -2.9661   39.4097 C   0  0  2  0  0  0  0  0  0  0  0  0
    2.7490   -4.1729   38.8867 O   0  0  0  0  0  0  0  0  0  0  0  0
    2.8418   -1.7174   38.7853 C   0  0  1  0  0  0  0  0  0  0  0  0
    4.2028   -1.6786   39.4604 C   0  0  2  0  0  0  0  0  0  0  0  0
    3.8892   -2.0608   40.7909 O   0  0  0  0  0  0  0  0  0  0  0  0
    4.8994   -0.3118   39.4484 C   0  0  0  0  0  0  0  0  0  0  0  0
    6.2405   -0.4443   39.8959 O   0  0  0  0  0  0  0  0  0  0  0  0
    3.0907    1.9789   35.1377 C   0  0  1  0  0  0  0  0  0  0  0  0
    4.4538    1.8558   34.7358 O   0  0  0  0  0  0  0  0  0  0  0  0
    2.2626    0.8216   34.5127 C   0  0  2  0  0  0  0  0  0  0  0  0
    0.8791    1.1540   34.6025 O   0  0  0  0  0  0  0  0  0  0  0  0
    2.4848   -0.5856   35.1579 C   0  0  1  0  0  0  0  0  0  0  0  0
    3.6620   -1.2481   34.5544 N   0  3  0  0  0  0  0  0  0  0  0  0
    2.5686   -0.5053   36.7049 C   0  0  1  0  0  0  0  0  0  0  0  0
    2.9854   -1.7398   37.3384 O   0  0  0  0  0  0  0  0  0  0  0  0
    2.9793    1.9275   36.6822 C   0  0  1  0  0  0  0  0  0  0  0  0
    3.4264    0.6130   37.1136 O   0  0  0  0  0  0  0  0  0  0  0  0
    3.7652    3.0402   37.4009 C   0  0  0  0  0  0  0  0  0  0  0  0
    5.2081    3.0098   37.0917 N   0  3  0  0  0  0  0  0  0  0  0  0
  1  2  1  1  0  0  0
  1  3  1  0  0  0  0
  1 10  1  0  0  0  0
  3  4  1  1  0  0  0
  3  5  1  0  0  0  0
  5  6  1  1  0  0  0
  5  7  1  0  0  0  0
  7  8  1  1  0  0  0
  7  9  1  0  0  0  0
  9 10  1  0  0  0  0
  9 11  1  6  0  0  0
 11 12  1  0  0  0  0
 13 14  1  6  0  0  0
 13 15  1  0  0  0  0
 13 22  1  0  0  0  0
 15 16  1  6  0  0  0
 15 17  1  0  0  0  0
 17 18  1  6  0  0  0
 17 19  1  0  0  0  0
 19  2  1  1  0  0  0
 19 20  1  0  0  0  0
 20 21  1  1  0  0  0
 20 22  1  0  0  0  0
 23 18  1  1  0  0  0
 23 24  1  0  0  0  0
 23 28  1  0  0  0  0
 24 25  1  6  0  0  0
 24 26  1  0  0  0  0
 26 27  1  0  0  0  0
 26 38  1  6  0  0  0
 27 28  1  0  0  0  0
 27 29  1  1  0  0  0
 29 30  1  0  0  0  0
 31 32  1  1  0  0  0
 31 33  1  0  0  0  0
 31 39  1  0  0  0  0
 33 34  1  1  0  0  0
 33 35  1  0  0  0  0
 35 36  1  6  0  0  0
 35 37  1  0  0  0  0
 37 38  1  6  0  0  0
 37 40  1  0  0  0  0
 39 40  1  0  0  0  0
 39 41  1  1  0  0  0
 41 42  1  0  0  0  0
M  CHG  5   4   1  14   1  21   1  36   1  42   1
M  END
>  <CHROM.1>
-144.44080181,0.63422895,89.71351122,-68.23490645,-58.37489349,-175.18636801
-161.36542170,99.41763770,-168.46811820,65.68673749,-153.48997041,54.90833503
59.50591454,134.41849701,-170.13216638,175.96185585,66.46421484,54.74505115
-56.01792879,-170.21396798,-58.98890369,-0.90981186,2.26526007,-1.47093205
40.66958575,2.14004633,0.90141527,1.61796454

>  <Name>
1pbr

>  <RI>
0

>  <Rbt.Current_Directory>
/home/itssahil/PROJECTS/Mol_Feturizer/New_Systems/rnas/1pbr

>  <Rbt.Executable>
rbdock ($Id: //depot/dev/client3/rdock/2013.1/src/exe/rbdock.cxx#4 $)

>  <Rbt.Library>
libRbt.so (2013.1, Build901 2013/11/27)

>  <Rbt.Parameter_File>
/export/apps/rDock/src/rDock_2013.1_src/data/scripts/dock_solv.prm

>  <Rbt.Receptor>
prm/pocket_docking_3.prm

>  <SCORE>
-50.9848

>  <SCORE.INTER>
-55.3746

>  <SCORE.INTER.CONST>
1

>  <SCORE.INTER.POLAR>
-8.97925

>  <SCORE.INTER.ROT>
9

>  <SCORE.INTER.SOLV>
40.3216

>  <SCORE.INTER.VDW>
-30.0261

>  <SCORE.INTER.norm>
-1.31844

>  <SCORE.INTRA>
4.38981

>  <SCORE.INTRA.DIHEDRAL>
3.84691

>  <SCORE.INTRA.DIHEDRAL.0>
29.7866

>  <SCORE.INTRA.POLAR>
-0.668683

>  <SCORE.INTRA.POLAR.0>
-0.984091

>  <SCORE.INTRA.REPUL>
-0.274115

>  <SCORE.INTRA.REPUL.0>
0.274115

>  <SCORE.INTRA.SOLV>
1.66675

>  <SCORE.INTRA.SOLV.lig_0>
-152.978

>  <SCORE.INTRA.VDW>
5.27707

>  <SCORE.INTRA.VDW.0>
-6.10719

>  <SCORE.INTRA.norm>
0.104519

>  <SCORE.RESTR>
0

>  <SCORE.RESTR.CAVITY>
0

>  <SCORE.RESTR.norm>
0

>  <SCORE.SYSTEM>
0

>  <SCORE.SYSTEM.CONST>
0

>  <SCORE.SYSTEM.DIHEDRAL>
0

>  <SCORE.SYSTEM.SOLV>
0

>  <SCORE.SYSTEM.norm>
0

>  <SCORE.heavy>
42

>  <SCORE.norm>
-1.21392

>  <RMSD>
4.755

$$$$
1pbr
 OpenBabel11021811403D
libRbt.so/2013.1/901 2013/11/27
 42 45  0  0  0  0  0  0  0  0999 V2000
    4.3789   -2.3376   45.2907 C   0  0  2  0  0  0  0  0  0  0  0  0
    4.0595   -1.0831   44.6370 O   0  0  0  0  0  0  0  0  0  0  0  0
    5.9337   -2.4856   45.4877 C   0  0  2  0  0  0  0  0  0  0  0  0
    6.6218   -1.2402   45.9165 N   0  3  0  0  0  0  0  0  0  0  0  0
    6.6295   -2.9377   44.1900 C   0  0  1  0  0  0  0  0  0  0  0  0
    7.9790   -3.3203   44.4461 O   0  0  0  0  0  0  0  0  0  0  0  0
    5.8800   -4.1117   43.5421 C   0  0  2  0  0  0  0  0  0  0  0  0
    6.5613   -4.5438   42.3686 O   0  0  0  0  0  0  0  0  0  0  0  0
    4.4072   -3.7356   43.2667 C   0  0  2  0  0  0  0  0  0  0  0  0
    3.8028   -3.4455   44.5450 O   0  0  0  0  0  0  0  0  0  0  0  0
    3.5909   -4.8426   42.6018 C   0  0  0  0  0  0  0  0  0  0  0  0
    3.5132   -5.9944   43.4312 O   0  0  0  0  0  0  0  0  0  0  0  0
   -0.0552   -2.0579   44.0650 C   0  0  1  0  0  0  0  0  0  0  0  0
   -1.5114   -2.0584   43.8339 N   0  3  0  0  0  0  0  0  0  0  0  0
    0.7441   -1.6373   42.7946 C   0  0  2  0  0  0  0  0  0  0  0  0
    0.4630   -2.5235   41.7138 O   0  0  0  0  0  0  0  0  0  0  0  0
    2.2780   -1.6567   43.0597 C   0  0  1  0  0  0  0  0  0  0  0  0
    2.9587   -1.0947   41.8988 O   0  0  0  0  0  0  0  0  0  0  0  0
    2.6646   -0.8387   44.3352 C   0  0  1  0  0  0  0  0  0  0  0  0
    1.8181   -1.2322   45.5879 C   0  0  1  0  0  0  0  0  0  0  0  0
    2.1364   -0.3749   46.7512 N   0  3  0  0  0  0  0  0  0  0  0  0
    0.3023   -1.1437   45.2733 C   0  0  0  0  0  0  0  0  0  0  0  0
    3.0885    0.3563   41.7586 C   0  0  1  0  0  0  0  0  0  0  0  0
    4.3803    0.6628   40.9779 C   0  0  2  0  0  0  0  0  0  0  0  0
    4.8709    1.9635   41.2903 O   0  0  0  0  0  0  0  0  0  0  0  0
    3.8237    0.5786   39.5485 C   0  0  1  0  0  0  0  0  0  0  0  0
    2.4998    1.3145   39.6714 C   0  0  2  0  0  0  0  0  0  0  0  0
    2.0285    0.8759   40.9364 O   0  0  0  0  0  0  0  0  0  0  0  0
    1.4709    0.9952   38.5791 C   0  0  0  0  0  0  0  0  0  0  0  0
    1.4573   -0.3999   38.3153 O   0  0  0  0  0  0  0  0  0  0  0  0
    6.2564   -1.8184   35.8437 C   0  0  1  0  0  0  0  0  0  0  0  0
    5.1315   -1.8294   34.9666 O   0  0  0  0  0  0  0  0  0  0  0  0
    6.9273   -0.4170   35.8038 C   0  0  2  0  0  0  0  0  0  0  0  0
    8.2311   -0.5221   36.3709 O   0  0  0  0  0  0  0  0  0  0  0  0
    6.1479    0.7203   36.5419 C   0  0  1  0  0  0  0  0  0  0  0  0
    5.1241    1.3057   35.6486 N   0  3  0  0  0  0  0  0  0  0  0  0
    5.5592    0.2348   37.8927 C   0  0  1  0  0  0  0  0  0  0  0  0
    4.6517    1.1778   38.5141 O   0  0  0  0  0  0  0  0  0  0  0  0
    5.8117   -2.1448   37.2916 C   0  0  1  0  0  0  0  0  0  0  0  0
    4.9261   -1.0793   37.7323 O   0  0  0  0  0  0  0  0  0  0  0  0
    5.1353   -3.5205   37.4405 C   0  0  0  0  0  0  0  0  0  0  0  0
    4.7989   -3.8417   38.8412 N   0  3  0  0  0  0  0  0  0  0  0  0
  1  2  1  6  0  0  0
  1  3  1  0  0  0  0
  1 10  1  0  0  0  0
  3  4  1  6  0  0  0
  3  5  1  0  0  0  0
  5  6  1  1  0  0  0
  5  7  1  0  0  0  0
  7  8  1  6  0  0  0
  7  9  1  0  0  0  0
  9 10  1  0  0  0  0
  9 11  1  1  0  0  0
 11 12  1  0  0  0  0
 13 14  1  6  0  0  0
 13 15  1  0  0  0  0
 13 22  1  0  0  0  0
 15 16  1  6  0  0  0
 15 17  1  0  0  0  0
 17 18  1  6  0  0  0
 17 19  1  0  0  0  0
 19  2  1  1  0  0  0
 19 20  1  0  0  0  0
 20 21  1  1  0  0  0
 20 22  1  0  0  0  0
 23 18  1  6  0  0  0
 23 24  1  0  0  0  0
 23 28  1  0  0  0  0
 24 25  1  1  0  0  0
 24 26  1  0  0  0  0
 26 27  1  0  0  0  0
 26 38  1  6  0  0  0
 27 28  1  0  0  0  0
 27 29  1  6  0  0  0
 29 30  1  0  0  0  0
 31 32  1  6  0  0  0
 31 33  1  0  0  0  0
 31 39  1  0  0  0  0
 33 34  1  1  0  0  0
 33 35  1  0  0  0  0
 35 36  1  6  0  0  0
 35 37  1  0  0  0  0
 37 38  1  6  0  0  0
 37 40  1  0  0  0  0
 39 40  1  0  0  0  0
 39 41  1  6  0  0  0
 41 42  1  0  0  0  0
M  CHG  5   4   1  14   1  21   1  36   1  42   1
M  END
>  <CHROM.1>
177.26535265,-78.04871207,-173.04265900,59.61392121,63.00729589,62.07983602
-178.69576914,6.81035664,172.53684245,82.93742926,150.13731278,75.43426305
60.76632429,92.58644357,42.28877869,-152.01842224,54.93402764,68.73500102
-148.64985228,163.27220651,176.38871357,62.97883443,3.99449757,-1.44702792
41.24673953,-1.89881031,0.46653730,-1.19670970

>  <Name>
1pbr

>  <RI>
0

>  <Rbt.Current_Directory>
/home/itssahil/PROJECTS/Mol_Feturizer/New_Systems/rnas/1pbr

>  <Rbt.Executable>
rbdock ($Id: //depot/dev/client3/rdock/2013.1/src/exe/rbdock.cxx#4 $)

>  <Rbt.Library>
libRbt.so (2013.1, Build901 2013/11/27)

>  <Rbt.Parameter_File>
/export/apps/rDock/src/rDock_2013.1_src/data/scripts/dock_solv.prm

>  <Rbt.Receptor>
prm/pocket_docking_6.prm

>  <SCORE>
-29.7399

>  <SCORE.INTER>
-30.3291

>  <SCORE.INTER.CONST>
1

>  <SCORE.INTER.POLAR>
-5.09262

>  <SCORE.INTER.ROT>
9

>  <SCORE.INTER.SOLV>
25.4631

>  <SCORE.INTER.VDW>
-21.3317

>  <SCORE.INTER.norm>
-0.722122

>  <SCORE.INTRA>
0.589169

>  <SCORE.INTRA.DIHEDRAL>
-5.1267

>  <SCORE.INTRA.DIHEDRAL.0>
29.7866

>  <SCORE.INTRA.POLAR>
0.982423

>  <SCORE.INTRA.POLAR.0>
-0.984091

>  <SCORE.INTRA.REPUL>
-0.274115

>  <SCORE.INTRA.REPUL.0>
0.274115

>  <SCORE.INTRA.SOLV>
-2.28829

>  <SCORE.INTRA.SOLV.lig_0>
-152.978

>  <SCORE.INTRA.VDW>
2.327

>  <SCORE.INTRA.VDW.0>
-6.10719

>  <SCORE.INTRA.norm>
0.0140278

>  <SCORE.RESTR>
0

>  <SCORE.RESTR.CAVITY>
0

>  <SCORE.RESTR.norm>
0

>  <SCORE.SYSTEM>
0

>  <SCORE.SYSTEM.CONST>
0

>  <SCORE.SYSTEM.DIHEDRAL>
0

>  <SCORE.SYSTEM.SOLV>
0

>  <SCORE.SYSTEM.norm>
0

>  <SCORE.heavy>
42

>  <SCORE.norm>
-0.708094

>  <RMSD>
4.762

$$$$
1pbr
 OpenBabel11021811403D
libRbt.so/2013.1/901 2013/11/27
 42 45  0  0  0  0  0  0  0  0999 V2000
    2.9763   -2.8627   44.2369 C   0  0  2  0  0  0  0  0  0  0  0  0
    3.3377   -1.5497   43.7383 O   0  0  0  0  0  0  0  0  0  0  0  0
    3.6370   -3.9938   43.3638 C   0  0  2  0  0  0  0  0  0  0  0  0
    5.0429   -3.7229   42.9657 N   0  3  0  0  0  0  0  0  0  0  0  0
    2.8568   -4.2303   42.0569 C   0  0  1  0  0  0  0  0  0  0  0  0
    3.3025   -5.4201   41.4097 O   0  0  0  0  0  0  0  0  0  0  0  0
    1.3476   -4.3297   42.3255 C   0  0  2  0  0  0  0  0  0  0  0  0
    0.6476   -4.5916   41.1132 O   0  0  0  0  0  0  0  0  0  0  0  0
    0.8347   -3.0613   43.0429 C   0  0  2  0  0  0  0  0  0  0  0  0
    1.5287   -2.9850   44.3061 O   0  0  0  0  0  0  0  0  0  0  0  0
   -0.6657   -3.0670   43.3309 C   0  0  0  0  0  0  0  0  0  0  0  0
   -1.0149   -4.1170   44.2231 O   0  0  0  0  0  0  0  0  0  0  0  0
    0.9760    0.5107   46.6339 C   0  0  1  0  0  0  0  0  0  0  0  0
    0.3365    1.4928   47.5287 N   0  3  0  0  0  0  0  0  0  0  0  0
    0.6060    0.7462   45.1381 C   0  0  2  0  0  0  0  0  0  0  0  0
   -0.8057    0.6647   44.9559 O   0  0  0  0  0  0  0  0  0  0  0  0
    1.2822   -0.3098   44.2156 C   0  0  1  0  0  0  0  0  0  0  0  0
    1.0396    0.0616   42.8262 O   0  0  0  0  0  0  0  0  0  0  0  0
    2.8226   -0.4085   44.4657 C   0  0  1  0  0  0  0  0  0  0  0  0
    3.1818   -0.5896   45.9753 C   0  0  1  0  0  0  0  0  0  0  0  0
    4.6455   -0.5798   46.1916 N   0  3  0  0  0  0  0  0  0  0  0  0
    2.5201    0.5209   46.8317 C   0  0  0  0  0  0  0  0  0  0  0  0
    1.7544    1.1944   42.2366 C   0  0  1  0  0  0  0  0  0  0  0  0
    3.1877    0.7480   41.8926 C   0  0  2  0  0  0  0  0  0  0  0  0
    4.0794    1.8593   41.8737 O   0  0  0  0  0  0  0  0  0  0  0  0
    2.9332    0.1823   40.4872 C   0  0  1  0  0  0  0  0  0  0  0  0
    2.0093    1.2248   39.8796 C   0  0  2  0  0  0  0  0  0  0  0  0
    1.1668    1.5536   40.9736 O   0  0  0  0  0  0  0  0  0  0  0  0
    1.1722    0.7413   38.6884 C   0  0  0  0  0  0  0  0  0  0  0  0
    0.4966    1.8378   38.0904 O   0  0  0  0  0  0  0  0  0  0  0  0
    4.8321    2.0612   35.9306 C   0  0  1  0  0  0  0  0  0  0  0  0
    6.1457    2.4993   36.2730 O   0  0  0  0  0  0  0  0  0  0  0  0
    4.8050    0.5082   35.8743 C   0  0  2  0  0  0  0  0  0  0  0  0
    3.6273    0.0999   35.1822 O   0  0  0  0  0  0  0  0  0  0  0  0
    4.8493   -0.2134   37.2610 C   0  0  1  0  0  0  0  0  0  0  0  0
    6.2483   -0.3632   37.7185 N   0  3  0  0  0  0  0  0  0  0  0  0
    3.9474    0.4915   38.3082 C   0  0  1  0  0  0  0  0  0  0  0  0
    4.1145   -0.0033   39.6597 O   0  0  0  0  0  0  0  0  0  0  0  0
    3.8077    2.5649   36.9783 C   0  0  1  0  0  0  0  0  0  0  0  0
    4.1376    1.9454   38.2515 O   0  0  0  0  0  0  0  0  0  0  0  0
    3.7534    4.0985   37.1093 C   0  0  0  0  0  0  0  0  0  0  0  0
    2.8718    4.7256   36.1052 N   0  3  0  0  0  0  0  0  0  0  0  0
  1  2  1  6  0  0  0
  1  3  1  0  0  0  0
  1 10  1  0  0  0  0
  3  4  1  6  0  0  0
  3  5  1  0  0  0  0
  5  6  1  1  0  0  0
  5  7  1  0  0  0  0
  7  8  1  6  0  0  0
  7  9  1  0  0  0  0
  9 10  1  0  0  0  0
  9 11  1  1  0  0  0
 11 12  1  0  0  0  0
 13 14  1  1  0  0  0
 13 15  1  0  0  0  0
 13 22  1  0  0  0  0
 15 16  1  1  0  0  0
 15 17  1  0  0  0  0
 17 18  1  6  0  0  0
 17 19  1  0  0  0  0
 19  2  1  6  0  0  0
 19 20  1  0  0  0  0
 20 21  1  6  0  0  0
 20 22  1  0  0  0  0
 23 18  1  6  0  0  0
 23 24  1  0  0  0  0
 23 28  1  0  0  0  0
 24 25  1  6  0  0  0
 24 26  1  0  0  0  0
 26 27  1  0  0  0  0
 26 38  1  6  0  0  0
 27 28  1  0  0  0  0
 27 29  1  6  0  0  0
 29 30  1  0  0  0  0
 31 32  1  1  0  0  0
 31 33  1  0  0  0  0
 31 39  1  0  0  0  0
 33 34  1  1  0  0  0
 33 35  1  0  0  0  0
 35 36  1  1  0  0  0
 35 37  1  0  0  0  0
 37 38  1  1  0  0  0
 37 40  1  0  0  0  0
 39 40  1  0  0  0  0
 39 41  1  1  0  0  0
 41 42  1  0  0  0  0
M  CHG  5   4   1  14   1  21   1  36   1  42   1
M  END
>  <CHROM.1>
-178.68386102,-70.79385779,-57.26483392,-176.37391975,-59.46012912,63.27531802
175.52073065,-39.74405744,66.60990803,73.45371286,77.62548612,-72.63607670
45.46450558,-134.06184733,-171.81121581,-177.28451608,-74.35215568,-64.07267592
-164.47566331,-153.91318507,84.33865768,174.53564710,2.62773118,-0.32717760
41.39718409,-2.48255156,1.20358850,-0.27404237

>  <Name>
1pbr

>  <RI>
0

>  <Rbt.Current_Directory>
/home/itssahil/PROJECTS/Mol_Feturizer/New_Systems/rnas/1pbr

>  <Rbt.Executable>
rbdock ($Id: //depot/dev/client3/rdock/2013.1/src/exe/rbdock.cxx#4 $)

>  <Rbt.Library>
libRbt.so (2013.1, Build901 2013/11/27)

>  <Rbt.Parameter_File>
/export/apps/rDock/src/rDock_2013.1_src/data/scripts/dock_solv.prm

>  <Rbt.Receptor>
prm/pocket_docking_3.prm

>  <SCORE>
-50.3779

>  <SCORE.INTER>
-53.4802

>  <SCORE.INTER.CONST>
1

>  <SCORE.INTER.POLAR>
-7.51459

>  <SCORE.INTER.ROT>
9

>  <SCORE.INTER.SOLV>
27.6086

>  <SCORE.INTER.VDW>
-29.4077

>  <SCORE.INTER.norm>
-1.27334

>  <SCORE.INTRA>
3.09383

>  <SCORE.INTRA.DIHEDRAL>
-10.6116

>  <SCORE.INTRA.DIHEDRAL.0>
29.7866

>  <SCORE.INTRA.POLAR>
0.961932

>  <SCORE.INTRA.POLAR.0>
-0.984091

>  <SCORE.INTRA.REPUL>
-0.136725

>  <SCORE.INTRA.REPUL.0>
0.274115

>  <SCORE.INTRA.SOLV>
-3.0022

>  <SCORE.INTRA.SOLV.lig_0>
-152.978

>  <SCORE.INTRA.VDW>
7.31379

>  <SCORE.INTRA.VDW.0>
-6.10719

>  <SCORE.INTRA.norm>
0.0736626

>  <SCORE.RESTR>
0.00850635

>  <SCORE.RESTR.CAVITY>
0.00850635

>  <SCORE.RESTR.norm>
0.000202532

>  <SCORE.SYSTEM>
0

>  <SCORE.SYSTEM.CONST>
0

>  <SCORE.SYSTEM.DIHEDRAL>
0

>  <SCORE.SYSTEM.SOLV>
0

>  <SCORE.SYSTEM.norm>
0

>  <SCORE.heavy>
42

>  <SCORE.norm>
-1.19947

>  <RMSD>
4.800

$$$$
1pbr
 OpenBabel11021811403D
libRbt.so/2013.1/901 2013/11/27
 42 45  0  0  0  0  0  0  0  0999 V2000
    3.6474   -2.7676   44.4328 C   0  0  2  0  0  0  0  0  0  0  0  0
    3.5211   -2.3333   43.0549 O   0  0  0  0  0  0  0  0  0  0  0  0
    4.8132   -1.9970   45.1575 C   0  0  2  0  0  0  0  0  0  0  0  0
    4.8869   -0.5479   44.8365 N   0  3  0  0  0  0  0  0  0  0  0  0
    6.1906   -2.5878   44.8021 C   0  0  1  0  0  0  0  0  0  0  0  0
    7.2029   -2.0620   45.6578 O   0  0  0  0  0  0  0  0  0  0  0  0
    6.1777   -4.1202   44.9080 C   0  0  2  0  0  0  0  0  0  0  0  0
    7.4697   -4.6451   44.6188 O   0  0  0  0  0  0  0  0  0  0  0  0
    5.0786   -4.7220   44.0046 C   0  0  2  0  0  0  0  0  0  0  0  0
    3.8165   -4.2113   44.4836 O   0  0  0  0  0  0  0  0  0  0  0  0
    5.0090   -6.2480   44.0332 C   0  0  0  0  0  0  0  0  0  0  0  0
    4.6280   -6.7700   42.7672 O   0  0  0  0  0  0  0  0  0  0  0  0
   -0.1360   -4.4221   42.3688 C   0  0  1  0  0  0  0  0  0  0  0  0
   -1.4383   -4.9147   41.8840 N   0  3  0  0  0  0  0  0  0  0  0  0
    1.0073   -4.6617   41.3367 C   0  0  2  0  0  0  0  0  0  0  0  0
    1.1341   -6.0522   41.0485 O   0  0  0  0  0  0  0  0  0  0  0  0
    2.3732   -4.1452   41.8761 C   0  0  1  0  0  0  0  0  0  0  0  0
    3.3620   -4.2403   40.8083 O   0  0  0  0  0  0  0  0  0  0  0  0
    2.2870   -2.6655   42.3743 C   0  0  1  0  0  0  0  0  0  0  0  0
    1.1035   -2.4271   43.3658 C   0  0  1  0  0  0  0  0  0  0  0  0
    0.9868   -1.0006   43.7413 N   0  3  0  0  0  0  0  0  0  0  0  0
   -0.2329   -2.9157   42.7495 C   0  0  0  0  0  0  0  0  0  0  0  0
    4.7823   -4.3704   41.1363 C   0  0  1  0  0  0  0  0  0  0  0  0
    5.5620   -4.6696   39.8422 C   0  0  2  0  0  0  0  0  0  0  0  0
    6.7765   -5.3592   40.1240 O   0  0  0  0  0  0  0  0  0  0  0  0
    5.8072   -3.2285   39.3699 C   0  0  1  0  0  0  0  0  0  0  0  0
    6.1923   -2.5246   40.6605 C   0  0  2  0  0  0  0  0  0  0  0  0
    5.3056   -3.1130   41.5998 O   0  0  0  0  0  0  0  0  0  0  0  0
    6.0221   -1.0000   40.6492 C   0  0  0  0  0  0  0  0  0  0  0  0
    6.0358   -0.4982   41.9775 O   0  0  0  0  0  0  0  0  0  0  0  0
    7.4341    0.1494   35.5333 C   0  0  1  0  0  0  0  0  0  0  0  0
    7.8722   -0.6921   34.4681 O   0  0  0  0  0  0  0  0  0  0  0  0
    5.9636   -0.2006   35.8951 C   0  0  2  0  0  0  0  0  0  0  0  0
    5.4228    0.8635   36.6748 O   0  0  0  0  0  0  0  0  0  0  0  0
    5.7661   -1.5437   36.6715 C   0  0  1  0  0  0  0  0  0  0  0  0
    5.6882   -2.6783   35.7250 N   0  3  0  0  0  0  0  0  0  0  0  0
    6.8505   -1.7454   37.7625 C   0  0  1  0  0  0  0  0  0  0  0  0
    6.8445   -3.0633   38.3642 O   0  0  0  0  0  0  0  0  0  0  0  0
    8.3389   -0.0425   36.7764 C   0  0  1  0  0  0  0  0  0  0  0  0
    8.1779   -1.4137   37.2321 O   0  0  0  0  0  0  0  0  0  0  0  0
    9.8227    0.2835   36.5232 C   0  0  0  0  0  0  0  0  0  0  0  0
   10.6885   -0.0797   37.6620 N   0  3  0  0  0  0  0  0  0  0  0  0
  1  2  1  6  0  0  0
  1  3  1  0  0  0  0
  1 10  1  0  0  0  0
  3  4  1  6  0  0  0
  3  5  1  0  0  0  0
  5  6  1  1  0  0  0
  5  7  1  0  0  0  0
  7  8  1  6  0  0  0
  7  9  1  0  0  0  0
  9 10  1  0  0  0  0
  9 11  1  1  0  0  0
 11 12  1  0  0  0  0
 13 14  1  6  0  0  0
 13 15  1  0  0  0  0
 13 22  1  0  0  0  0
 15 16  1  1  0  0  0
 15 17  1  0  0  0  0
 17 18  1  6  0  0  0
 17 19  1  0  0  0  0
 19  2  1  1  0  0  0
 19 20  1  0  0  0  0
 20 21  1  6  0  0  0
 20 22  1  0  0  0  0
 23 18  1  6  0  0  0
 23 24  1  0  0  0  0
 23 28  1  0  0  0  0
 24 25  1  1  0  0  0
 24 26  1  0  0  0  0
 26 27  1  0  0  0  0
 26 38  1  6  0  0  0
 27 28  1  0  0  0  0
 27 29  1  6  0  0  0
 29 30  1  0  0  0  0
 31 32  1  6  0  0  0
 31 33  1  0  0  0  0
 31 39  1  0  0  0  0
 33 34  1  1  0  0  0
 33 35  1  0  0  0  0
 35 36  1  6  0  0  0
 35 37  1  0  0  0  0
 37 38  1  6  0  0  0
 37 40  1  0  0  0  0
 39 40  1  0  0  0  0
 39 41  1  6  0  0  0
 41 42  1  0  0  0  0
M  CHG  5   4   1  14   1  21   1  36   1  42   1
M  END
>  <CHROM.1>
-163.45875165,-81.13885944,-174.14138911,178.26611286,177.99030466,-146.15887932
-175.21062676,77.77755726,64.29968078,-154.37127467,171.26120858,59.12964111
-58.95628849,168.24820868,163.39457926,179.08297805,58.79005564,-179.18543648
-179.43834827,-79.16490245,-172.22627151,179.46093136,4.98109905,-2.74698143
40.92118556,-2.18540295,-0.30213409,-1.35255795

>  <Name>
1pbr

>  <RI>
0

>  <Rbt.Current_Directory>
/home/itssahil/PROJECTS/Mol_Feturizer/New_Systems/rnas/1pbr

>  <Rbt.Executable>
rbdock ($Id: //depot/dev/client3/rdock/2013.1/src/exe/rbdock.cxx#4 $)

>  <Rbt.Library>
libRbt.so (2013.1, Build901 2013/11/27)

>  <Rbt.Parameter_File>
/export/apps/rDock/src/rDock_2013.1_src/data/scripts/dock_solv.prm

>  <Rbt.Receptor>
prm/pocket_docking_7.prm

>  <SCORE>
-29.9624

>  <SCORE.INTER>
-23.5286

>  <SCORE.INTER.CONST>
1

>  <SCORE.INTER.POLAR>
-4.31053

>  <SCORE.INTER.ROT>
9

>  <SCORE.INTER.SOLV>
22.5491

>  <SCORE.INTER.VDW>
-18.4337

>  <SCORE.INTER.norm>
-0.560205

>  <SCORE.INTRA>
-6.43383

>  <SCORE.INTRA.DIHEDRAL>
-14.7523

>  <SCORE.INTRA.DIHEDRAL.0>
29.7866

>  <SCORE.INTRA.POLAR>
-0.240987

>  <SCORE.INTRA.POLAR.0>
-0.984091

>  <SCORE.INTRA.REPUL>
0.14821

>  <SCORE.INTRA.REPUL.0>
0.274115

>  <SCORE.INTRA.SOLV>
1.84369

>  <SCORE.INTRA.SOLV.lig_0>
-152.978

>  <SCORE.INTRA.VDW>
0.0987609

>  <SCORE.INTRA.VDW.0>
-6.10719

>  <SCORE.INTRA.norm>
-0.153186

>  <SCORE.RESTR>
0

>  <SCORE.RESTR.CAVITY>
0

>  <SCORE.RESTR.norm>
0

>  <SCORE.SYSTEM>
0

>  <SCORE.SYSTEM.CONST>
0

>  <SCORE.SYSTEM.DIHEDRAL>
0

>  <SCORE.SYSTEM.SOLV>
0

>  <SCORE.SYSTEM.norm>
0

>  <SCORE.heavy>
42

>  <SCORE.norm>
-0.713391

>  <RMSD>
4.815

$$$$
1pbr
 OpenBabel11021811403D
libRbt.so/2013.1/901 2013/11/27
 42 45  0  0  0  0  0  0  0  0999 V2000
    4.5787   -2.2503   44.6449 C   0  0  2  0  0  0  0  0  0  0  0  0
    4.6962   -0.8711   44.2123 O   0  0  0  0  0  0  0  0  0  0  0  0
    5.8997   -3.0483   44.3342 C   0  0  2  0  0  0  0  0  0  0  0  0
    7.1523   -2.2981   44.6106 N   0  3  0  0  0  0  0  0  0  0  0  0
    5.9701   -3.4752   42.8559 C   0  0  1  0  0  0  0  0  0  0  0  0
    7.0252   -4.4118   42.6493 O   0  0  0  0  0  0  0  0  0  0  0  0
    4.6411   -4.0934   42.3961 C   0  0  2  0  0  0  0  0  0  0  0  0
    4.7393   -4.5213   41.0413 O   0  0  0  0  0  0  0  0  0  0  0  0
    3.4722   -3.1091   42.6226 C   0  0  2  0  0  0  0  0  0  0  0  0
    3.4036   -2.8600   44.0427 O   0  0  0  0  0  0  0  0  0  0  0  0
    2.1112   -3.6372   42.1722 C   0  0  0  0  0  0  0  0  0  0  0  0
    1.8953   -3.3911   40.7889 O   0  0  0  0  0  0  0  0  0  0  0  0
    0.9928    0.2908   45.9851 C   0  0  1  0  0  0  0  0  0  0  0  0
   -0.1739    1.0061   46.5338 N   0  3  0  0  0  0  0  0  0  0  0  0
    1.0995    0.4354   44.4368 C   0  0  2  0  0  0  0  0  0  0  0  0
   -0.0740   -0.0738   43.8074 O   0  0  0  0  0  0  0  0  0  0  0  0
    2.3306   -0.3382   43.8803 C   0  0  1  0  0  0  0  0  0  0  0  0
    2.4743   -0.0275   42.4627 O   0  0  0  0  0  0  0  0  0  0  0  0
    3.6497    0.0378   44.6311 C   0  0  1  0  0  0  0  0  0  0  0  0
    3.5124   -0.0587   46.1843 C   0  0  1  0  0  0  0  0  0  0  0  0
    4.7422    0.3976   46.8690 N   0  3  0  0  0  0  0  0  0  0  0  0
    2.3005    0.7727   46.6788 C   0  0  0  0  0  0  0  0  0  0  0  0
    3.0394    1.2577   42.0493 C   0  0  1  0  0  0  0  0  0  0  0  0
    4.1625    0.9971   41.0282 C   0  0  2  0  0  0  0  0  0  0  0  0
    5.1069    2.0641   41.0224 O   0  0  0  0  0  0  0  0  0  0  0  0
    3.3182    0.9604   39.7454 C   0  0  1  0  0  0  0  0  0  0  0  0
    2.3668    2.1279   39.9490 C   0  0  2  0  0  0  0  0  0  0  0  0
    2.0588    2.0270   41.3308 O   0  0  0  0  0  0  0  0  0  0  0  0
    1.0825    2.0780   39.1113 C   0  0  0  0  0  0  0  0  0  0  0  0
    0.1870    3.0969   39.5311 O   0  0  0  0  0  0  0  0  0  0  0  0
    2.6370    1.7993   34.4773 C   0  0  1  0  0  0  0  0  0  0  0  0
    3.8893    2.2600   33.9730 O   0  0  0  0  0  0  0  0  0  0  0  0
    2.7750    0.3169   34.9236 C   0  0  2  0  0  0  0  0  0  0  0  0
    1.4692   -0.2369   35.0674 O   0  0  0  0  0  0  0  0  0  0  0  0
    3.5674    0.0884   36.2524 C   0  0  1  0  0  0  0  0  0  0  0  0
    5.0205    0.0278   35.9809 N   0  3  0  0  0  0  0  0  0  0  0  0
    3.2017    1.1411   37.3317 C   0  0  1  0  0  0  0  0  0  0  0  0
    4.0563    1.1088   38.5013 O   0  0  0  0  0  0  0  0  0  0  0  0
    2.1896    2.6685   35.6794 C   0  0  1  0  0  0  0  0  0  0  0  0
    3.1631    2.4849   36.7435 O   0  0  0  0  0  0  0  0  0  0  0  0
    2.0191    4.1610   35.3398 C   0  0  0  0  0  0  0  0  0  0  0  0
    1.8281    5.0002   36.5389 N   0  3  0  0  0  0  0  0  0  0  0  0
  1  2  1  6  0  0  0
  1  3  1  0  0  0  0
  1 10  1  0  0  0  0
  3  4  1  6  0  0  0
  3  5  1  0  0  0  0
  5  6  1  1  0  0  0
  5  7  1  0  0  0  0
  7  8  1  6  0  0  0
  7  9  1  0  0  0  0
  9 10  1  0  0  0  0
  9 11  1  1  0  0  0
 11 12  1  0  0  0  0
 13 14  1  1  0  0  0
 13 15  1  0  0  0  0
 13 22  1  0  0  0  0
 15 16  1  6  0  0  0
 15 17  1  0  0  0  0
 17 18  1  6  0  0  0
 17 19  1  0  0  0  0
 19  2  1  6  0  0  0
 19 20  1  0  0  0  0
 20 21  1  1  0  0  0
 20 22  1  0  0  0  0
 23 18  1  6  0  0  0
 23 24  1  0  0  0  0
 23 28  1  0  0  0  0
 24 25  1  6  0  0  0
 24 26  1  0  0  0  0
 26 27  1  0  0  0  0
 26 38  1  6  0  0  0
 27 28  1  0  0  0  0
 27 29  1  6  0  0  0
 29 30  1  0  0  0  0
 31 32  1  1  0  0  0
 31 33  1  0  0  0  0
 31 39  1  0  0  0  0
 33 34  1  1  0  0  0
 33 35  1  0  0  0  0
 35 36  1  6  0  0  0
 35 37  1  0  0  0  0
 37 38  1  1  0  0  0
 37 40  1  0  0  0  0
 39 40  1  0  0  0  0
 39 41  1  6  0  0  0
 41 42  1  0  0  0  0
M  CHG  5   4   1  14   1  21   1  36   1  42   1
M  END
>  <CHROM.1>
-169.99657358,-69.32041901,-172.83891064,54.94820450,166.07244923,-85.53141148
61.06576681,-59.24900637,-61.53145362,76.63055828,129.34991414,-55.00096114
-177.44664243,-176.76604345,171.05358283,60.33659394,-62.04155561,63.40766064
98.24152836,-125.31075245,-169.85309802,144.91528022,3.18970778,0.00526617
40.98627145,-1.38494703,0.93442153,-1.33289410

>  <Name>
1pbr

>  <RI>
0

>  <Rbt.Current_Directory>
/home/itssahil/PROJECTS/Mol_Feturizer/New_Systems/rnas/1pbr

>  <Rbt.Executable>
rbdock ($Id: //depot/dev/client3/rdock/2013.1/src/exe/rbdock.cxx#4 $)

>  <Rbt.Library>
libRbt.so (2013.1, Build901 2013/11/27)

>  <Rbt.Parameter_File>
/export/apps/rDock/src/rDock_2013.1_src/data/scripts/dock_solv.prm

>  <Rbt.Receptor>
prm/pocket_docking_8.prm

>  <SCORE>
-42.5683

>  <SCORE.INTER>
-43.4184

>  <SCORE.INTER.CONST>
1

>  <SCORE.INTER.POLAR>
-5.34663

>  <SCORE.INTER.ROT>
9

>  <SCORE.INTER.SOLV>
30.8244

>  <SCORE.INTER.VDW>
-30.9983

>  <SCORE.INTER.norm>
-1.03377

>  <SCORE.INTRA>
0.850085

>  <SCORE.INTRA.DIHEDRAL>
-4.50284

>  <SCORE.INTRA.DIHEDRAL.0>
29.7866

>  <SCORE.INTRA.POLAR>
0.870724

>  <SCORE.INTRA.POLAR.0>
-0.984091

>  <SCORE.INTRA.REPUL>
-0.274115

>  <SCORE.INTRA.REPUL.0>
0.274115

>  <SCORE.INTRA.SOLV>
-1.78887

>  <SCORE.INTRA.SOLV.lig_0>
-152.978

>  <SCORE.INTRA.VDW>
2.40605

>  <SCORE.INTRA.VDW.0>
-6.10719

>  <SCORE.INTRA.norm>
0.0202401

>  <SCORE.RESTR>
0

>  <SCORE.RESTR.CAVITY>
0

>  <SCORE.RESTR.norm>
0

>  <SCORE.SYSTEM>
0

>  <SCORE.SYSTEM.CONST>
0

>  <SCORE.SYSTEM.DIHEDRAL>
0

>  <SCORE.SYSTEM.SOLV>
0

>  <SCORE.SYSTEM.norm>
0

>  <SCORE.heavy>
42

>  <SCORE.norm>
-1.01353

>  <RMSD>
4.822

$$$$
1pbr
 OpenBabel11021811403D
libRbt.so/2013.1/901 2013/11/27
 42 45  0  0  0  0  0  0  0  0999 V2000
    0.6071   -3.4759   42.4269 C   0  0  2  0  0  0  0  0  0  0  0  0
   -0.2844   -2.6029   43.1660 O   0  0  0  0  0  0  0  0  0  0  0  0
   -0.0516   -4.8880   42.2028 C   0  0  2  0  0  0  0  0  0  0  0  0
   -1.4945   -4.8458   41.8497 N   0  3  0  0  0  0  0  0  0  0  0  0
    0.0590   -5.7714   43.4597 C   0  0  1  0  0  0  0  0  0  0  0  0
   -0.2974   -7.1200   43.1634 O   0  0  0  0  0  0  0  0  0  0  0  0
    1.4821   -5.7343   44.0368 C   0  0  2  0  0  0  0  0  0  0  0  0
    1.5763   -6.5901   45.1713 O   0  0  0  0  0  0  0  0  0  0  0  0
    1.9067   -4.2831   44.3533 C   0  0  2  0  0  0  0  0  0  0  0  0
    1.8915   -3.5603   43.1040 O   0  0  0  0  0  0  0  0  0  0  0  0
    3.3062   -4.1556   44.9527 C   0  0  0  0  0  0  0  0  0  0  0  0
    3.5844   -2.8138   45.3305 O   0  0  0  0  0  0  0  0  0  0  0  0
    0.0717    0.1899   46.3724 C   0  0  1  0  0  0  0  0  0  0  0  0
    0.3890    0.9125   47.6179 N   0  3  0  0  0  0  0  0  0  0  0  0
    1.3191    0.0224   45.4528 C   0  0  2  0  0  0  0  0  0  0  0  0
    1.8565    1.2966   45.1062 O   0  0  0  0  0  0  0  0  0  0  0  0
    0.9563   -0.7315   44.1400 C   0  0  1  0  0  0  0  0  0  0  0  0
    2.1859   -1.0062   43.4053 O   0  0  0  0  0  0  0  0  0  0  0  0
    0.2079   -2.0753   44.4213 C   0  0  1  0  0  0  0  0  0  0  0  0
   -1.0073   -1.9021   45.3878 C   0  0  1  0  0  0  0  0  0  0  0  0
   -1.6335   -3.2026   45.7135 N   0  3  0  0  0  0  0  0  0  0  0  0
   -0.5694   -1.1916   46.6947 C   0  0  0  0  0  0  0  0  0  0  0  0
    3.0696    0.0953   43.0208 C   0  0  1  0  0  0  0  0  0  0  0  0
    4.3622   -0.4941   42.4259 C   0  0  2  0  0  0  0  0  0  0  0  0
    5.4515    0.4133   42.5684 O   0  0  0  0  0  0  0  0  0  0  0  0
    3.9114   -0.6373   40.9644 C   0  0  1  0  0  0  0  0  0  0  0  0
    3.1729    0.6687   40.7227 C   0  0  2  0  0  0  0  0  0  0  0  0
    2.4836    0.8556   41.9493 O   0  0  0  0  0  0  0  0  0  0  0  0
    2.1820    0.6520   39.5515 C   0  0  0  0  0  0  0  0  0  0  0  0
    1.2282   -0.3839   39.7349 O   0  0  0  0  0  0  0  0  0  0  0  0
    4.9428    0.2524   35.8023 C   0  0  1  0  0  0  0  0  0  0  0  0
    6.3196    0.6218   35.7488 O   0  0  0  0  0  0  0  0  0  0  0  0
    4.8279   -1.2608   36.1380 C   0  0  2  0  0  0  0  0  0  0  0  0
    3.5067   -1.6956   35.8252 O   0  0  0  0  0  0  0  0  0  0  0  0
    5.1458   -1.6441   37.6205 C   0  0  1  0  0  0  0  0  0  0  0  0
    6.6026   -1.8259   37.8037 N   0  3  0  0  0  0  0  0  0  0  0  0
    4.5366   -0.6291   38.6232 C   0  0  1  0  0  0  0  0  0  0  0  0
    4.9773   -0.8136   39.9910 O   0  0  0  0  0  0  0  0  0  0  0  0
    4.2047    1.0854   36.8802 C   0  0  1  0  0  0  0  0  0  0  0  0
    4.7802    0.7457   38.1714 O   0  0  0  0  0  0  0  0  0  0  0  0
    4.2562    2.6053   36.6366 C   0  0  0  0  0  0  0  0  0  0  0  0
    5.3787    3.2575   37.3390 N   0  3  0  0  0  0  0  0  0  0  0  0
  1  2  1  1  0  0  0
  1  3  1  0  0  0  0
  1 10  1  0  0  0  0
  3  4  1  1  0  0  0
  3  5  1  0  0  0  0
  5  6  1  6  0  0  0
  5  7  1  0  0  0  0
  7  8  1  1  0  0  0
  7  9  1  0  0  0  0
  9 10  1  0  0  0  0
  9 11  1  6  0  0  0
 11 12  1  0  0  0  0
 13 14  1  1  0  0  0
 13 15  1  0  0  0  0
 13 22  1  0  0  0  0
 15 16  1  6  0  0  0
 15 17  1  0  0  0  0
 17 18  1  1  0  0  0
 17 19  1  0  0  0  0
 19  2  1  6  0  0  0
 19 20  1  0  0  0  0
 20 21  1  1  0  0  0
 20 22  1  0  0  0  0
 23 18  1  6  0  0  0
 23 24  1  0  0  0  0
 23 28  1  0  0  0  0
 24 25  1  6  0  0  0
 24 26  1  0  0  0  0
 26 27  1  0  0  0  0
 26 38  1  6  0  0  0
 27 28  1  0  0  0  0
 27 29  1  6  0  0  0
 29 30  1  0  0  0  0
 31 32  1  1  0  0  0
 31 33  1  0  0  0  0
 31 39  1  0  0  0  0
 33 34  1  1  0  0  0
 33 35  1  0  0  0  0
 35 36  1  6  0  0  0
 35 37  1  0  0  0  0
 37 38  1  1  0  0  0
 37 40  1  0  0  0  0
 39 40  1  0  0  0  0
 39 41  1  6  0  0  0
 41 42  1  0  0  0  0
M  CHG  5   4   1  14   1  21   1  36   1  42   1
M  END
>  <CHROM.1>
121.20064474,89.10037666,-165.23396886,58.01779515,59.49528181,-174.70248305
-54.68219005,-56.78967536,67.12608571,-57.31589987,172.83924987,-114.79765284
59.97969499,-166.33339785,56.64981484,-59.34678572,72.54107322,-68.32635724
-57.20995641,-139.60684880,-93.40526659,-119.25370481,2.43046257,-1.47009509
41.78396785,2.99777285,1.06760946,0.60330194

>  <Name>
1pbr

>  <RI>
0

>  <Rbt.Current_Directory>
/home/itssahil/PROJECTS/Mol_Feturizer/New_Systems/rnas/1pbr

>  <Rbt.Executable>
rbdock ($Id: //depot/dev/client3/rdock/2013.1/src/exe/rbdock.cxx#4 $)

>  <Rbt.Library>
libRbt.so (2013.1, Build901 2013/11/27)

>  <Rbt.Parameter_File>
/export/apps/rDock/src/rDock_2013.1_src/data/scripts/dock_solv.prm

>  <Rbt.Receptor>
prm/pocket_docking_3.prm

>  <SCORE>
-45.6913

>  <SCORE.INTER>
-49.6404

>  <SCORE.INTER.CONST>
1

>  <SCORE.INTER.POLAR>
-7.81679

>  <SCORE.INTER.ROT>
9

>  <SCORE.INTER.SOLV>
39.9038

>  <SCORE.INTER.VDW>
-29.9389

>  <SCORE.INTER.norm>
-1.18191

>  <SCORE.INTRA>
3.1169

>  <SCORE.INTRA.DIHEDRAL>
0.548866

>  <SCORE.INTRA.DIHEDRAL.0>
29.7866

>  <SCORE.INTRA.POLAR>
-0.252002

>  <SCORE.INTRA.POLAR.0>
-0.984091

>  <SCORE.INTRA.REPUL>
-0.274115

>  <SCORE.INTRA.REPUL.0>
0.274115

>  <SCORE.INTRA.SOLV>
1.67941

>  <SCORE.INTRA.SOLV.lig_0>
-152.978

>  <SCORE.INTRA.VDW>
4.23014

>  <SCORE.INTRA.VDW.0>
-6.10719

>  <SCORE.INTRA.norm>
0.074212

>  <SCORE.RESTR>
0.832207

>  <SCORE.RESTR.CAVITY>
0.832207

>  <SCORE.RESTR.norm>
0.0198145

>  <SCORE.SYSTEM>
0

>  <SCORE.SYSTEM.CONST>
0

>  <SCORE.SYSTEM.DIHEDRAL>
0

>  <SCORE.SYSTEM.SOLV>
0

>  <SCORE.SYSTEM.norm>
0

>  <SCORE.heavy>
42

>  <SCORE.norm>
-1.08789

>  <RMSD>
4.884

$$$$
1pbr
 OpenBabel11021811403D
libRbt.so/2013.1/901 2013/11/27
 42 45  0  0  0  0  0  0  0  0999 V2000
    4.1324   -1.7875   44.9163 C   0  0  2  0  0  0  0  0  0  0  0  0
    3.9858   -0.4133   44.4767 O   0  0  0  0  0  0  0  0  0  0  0  0
    5.3620   -2.4722   44.2108 C   0  0  2  0  0  0  0  0  0  0  0  0
    6.5653   -1.6081   44.0943 N   0  3  0  0  0  0  0  0  0  0  0  0
    5.0154   -2.9239   42.7795 C   0  0  1  0  0  0  0  0  0  0  0  0
    6.0375   -3.7679   42.2538 O   0  0  0  0  0  0  0  0  0  0  0  0
    3.6717   -3.6675   42.7457 C   0  0  2  0  0  0  0  0  0  0  0  0
    3.3893   -4.1151   41.4235 O   0  0  0  0  0  0  0  0  0  0  0  0
    2.5435   -2.7857   43.3256 C   0  0  2  0  0  0  0  0  0  0  0  0
    2.8901   -2.5121   44.6997 O   0  0  0  0  0  0  0  0  0  0  0  0
    1.1640   -3.4422   43.3109 C   0  0  0  0  0  0  0  0  0  0  0  0
    0.7448   -3.7304   41.9836 O   0  0  0  0  0  0  0  0  0  0  0  0
    0.6196    0.3763   46.9774 C   0  0  1  0  0  0  0  0  0  0  0  0
   -0.4511    0.9729   47.7969 N   0  3  0  0  0  0  0  0  0  0  0  0
    0.4521    0.6986   45.4616 C   0  0  2  0  0  0  0  0  0  0  0  0
   -0.8001    0.2118   44.9847 O   0  0  0  0  0  0  0  0  0  0  0  0
    1.5863    0.0479   44.6166 C   0  0  1  0  0  0  0  0  0  0  0  0
    1.4739    0.5221   43.2420 O   0  0  0  0  0  0  0  0  0  0  0  0
    3.0062    0.3954   45.1717 C   0  0  1  0  0  0  0  0  0  0  0  0
    3.1432    0.1188   46.7032 C   0  0  1  0  0  0  0  0  0  0  0  0
    4.4618    0.5494   47.2183 N   0  3  0  0  0  0  0  0  0  0  0  0
    2.0158    0.8348   47.4911 C   0  0  0  0  0  0  0  0  0  0  0  0
    1.8439   -0.3575   42.1325 C   0  0  1  0  0  0  0  0  0  0  0  0
    0.8423   -0.1477   40.9815 C   0  0  2  0  0  0  0  0  0  0  0  0
    0.7638   -1.3048   40.1537 O   0  0  0  0  0  0  0  0  0  0  0  0
    1.5317    1.0285   40.2735 C   0  0  1  0  0  0  0  0  0  0  0  0
    2.9930    0.6120   40.2992 C   0  0  2  0  0  0  0  0  0  0  0  0
    3.1175    0.0323   41.5888 O   0  0  0  0  0  0  0  0  0  0  0  0
    4.0015    1.7554   40.1289 C   0  0  0  0  0  0  0  0  0  0  0  0
    5.2966    1.3255   40.5216 O   0  0  0  0  0  0  0  0  0  0  0  0
    3.4837    2.5767   35.5479 C   0  0  1  0  0  0  0  0  0  0  0  0
    2.7382    1.8523   34.5710 O   0  0  0  0  0  0  0  0  0  0  0  0
    2.5685    3.6475   36.2048 C   0  0  2  0  0  0  0  0  0  0  0  0
    3.3916    4.5914   36.8860 O   0  0  0  0  0  0  0  0  0  0  0  0
    1.5025    3.0944   37.2065 C   0  0  1  0  0  0  0  0  0  0  0  0
    0.2890    2.6614   36.4791 N   0  3  0  0  0  0  0  0  0  0  0  0
    2.0866    1.9813   38.1157 C   0  0  1  0  0  0  0  0  0  0  0  0
    1.0942    1.2874   38.9111 O   0  0  0  0  0  0  0  0  0  0  0  0
    4.0247    1.6131   36.6339 C   0  0  1  0  0  0  0  0  0  0  0  0
    2.8811    1.0367   37.3221 O   0  0  0  0  0  0  0  0  0  0  0  0
    4.9499    0.5113   36.0843 C   0  0  0  0  0  0  0  0  0  0  0  0
    4.2213   -0.5086   35.3049 N   0  3  0  0  0  0  0  0  0  0  0  0
  1  2  1  6  0  0  0
  1  3  1  0  0  0  0
  1 10  1  0  0  0  0
  3  4  1  6  0  0  0
  3  5  1  0  0  0  0
  5  6  1  1  0  0  0
  5  7  1  0  0  0  0
  7  8  1  6  0  0  0
  7  9  1  0  0  0  0
  9 10  1  0  0  0  0
  9 11  1  1  0  0  0
 11 12  1  0  0  0  0
 13 14  1  1  0  0  0
 13 15  1  0  0  0  0
 13 22  1  0  0  0  0
 15 16  1  6  0  0  0
 15 17  1  0  0  0  0
 17 18  1  6  0  0  0
 17 19  1  0  0  0  0
 19  2  1  6  0  0  0
 19 20  1  0  0  0  0
 20 21  1  1  0  0  0
 20 22  1  0  0  0  0
 23 18  1  1  0  0  0
 23 24  1  0  0  0  0
 23 28  1  0  0  0  0
 24 25  1  6  0  0  0
 24 26  1  0  0  0  0
 26 27  1  0  0  0  0
 26 38  1  6  0  0  0
 27 28  1  0  0  0  0
 27 29  1  1  0  0  0
 29 30  1  0  0  0  0
 31 32  1  6  0  0  0
 31 33  1  0  0  0  0
 31 39  1  0  0  0  0
 33 34  1  1  0  0  0
 33 35  1  0  0  0  0
 35 36  1  6  0  0  0
 35 37  1  0  0  0  0
 37 38  1  6  0  0  0
 37 40  1  0  0  0  0
 39 40  1  0  0  0  0
 39 41  1  6  0  0  0
 41 42  1  0  0  0  0
M  CHG  5   4   1  14   1  21   1  36   1  42   1
M  END
>  <CHROM.1>
-172.06112689,-79.37719232,99.77433885,-68.88943265,-165.71919758,-61.95168143
177.12170130,-75.43208322,-61.26617103,-146.85958436,141.11820461,-57.55913163
54.58328708,-155.94396118,164.39296683,-53.76567754,50.64816637,155.31490825
-173.47817499,-138.60267145,-71.40246657,145.74349850,2.72999917,-0.04497626
41.51823822,-1.62738558,0.84290177,-1.21833720

>  <Name>
1pbr

>  <RI>
0

>  <Rbt.Current_Directory>
/home/itssahil/PROJECTS/Mol_Feturizer/New_Systems/rnas/1pbr

>  <Rbt.Executable>
rbdock ($Id: //depot/dev/client3/rdock/2013.1/src/exe/rbdock.cxx#4 $)

>  <Rbt.Library>
libRbt.so (2013.1, Build901 2013/11/27)

>  <Rbt.Parameter_File>
/export/apps/rDock/src/rDock_2013.1_src/data/scripts/dock_solv.prm

>  <Rbt.Receptor>
prm/pocket_docking_4.prm

>  <SCORE>
-41.421

>  <SCORE.INTER>
-41.1787

>  <SCORE.INTER.CONST>
1

>  <SCORE.INTER.POLAR>
-5.31223

>  <SCORE.INTER.ROT>
9

>  <SCORE.INTER.SOLV>
34.3616

>  <SCORE.INTER.VDW>
-30.7989

>  <SCORE.INTER.norm>
-0.980446

>  <SCORE.INTRA>
-0.24233

>  <SCORE.INTRA.DIHEDRAL>
1.78398

>  <SCORE.INTRA.DIHEDRAL.0>
29.7866

>  <SCORE.INTRA.POLAR>
-1.82427

>  <SCORE.INTRA.POLAR.0>
-0.984091

>  <SCORE.INTRA.REPUL>
-0.147824

>  <SCORE.INTRA.REPUL.0>
0.274115

>  <SCORE.INTRA.SOLV>
1.32978

>  <SCORE.INTRA.SOLV.lig_0>
-152.978

>  <SCORE.INTRA.VDW>
5.14242

>  <SCORE.INTRA.VDW.0>
-6.10719

>  <SCORE.INTRA.norm>
-0.00576977

>  <SCORE.RESTR>
0

>  <SCORE.RESTR.CAVITY>
0

>  <SCORE.RESTR.norm>
0

>  <SCORE.SYSTEM>
0

>  <SCORE.SYSTEM.CONST>
0

>  <SCORE.SYSTEM.DIHEDRAL>
0

>  <SCORE.SYSTEM.SOLV>
0

>  <SCORE.SYSTEM.norm>
0

>  <SCORE.heavy>
42

>  <SCORE.norm>
-0.986215

>  <RMSD>
4.894

$$$$
1pbr
 OpenBabel11021811403D
libRbt.so/2013.1/901 2013/11/27
 42 45  0  0  0  0  0  0  0  0999 V2000
    2.5984   -2.3936   43.4390 C   0  0  2  0  0  0  0  0  0  0  0  0
    2.0330   -3.5254   44.1479 O   0  0  0  0  0  0  0  0  0  0  0  0
    3.9647   -1.9543   44.0859 C   0  0  2  0  0  0  0  0  0  0  0  0
    4.8461   -3.0809   44.4889 N   0  3  0  0  0  0  0  0  0  0  0  0
    3.7457   -1.1043   45.3516 C   0  0  1  0  0  0  0  0  0  0  0  0
    4.9661   -0.4980   45.7715 O   0  0  0  0  0  0  0  0  0  0  0  0
    2.6911   -0.0141   45.1085 C   0  0  2  0  0  0  0  0  0  0  0  0
    2.5339    0.7883   46.2746 O   0  0  0  0  0  0  0  0  0  0  0  0
    1.3592   -0.6370   44.6348 C   0  0  2  0  0  0  0  0  0  0  0  0
    1.6313   -1.3086   43.3865 O   0  0  0  0  0  0  0  0  0  0  0  0
    0.2445    0.3783   44.3885 C   0  0  0  0  0  0  0  0  0  0  0  0
   -0.0706    1.0953   45.5748 O   0  0  0  0  0  0  0  0  0  0  0  0
   -0.8892   -6.5468   43.4131 C   0  0  1  0  0  0  0  0  0  0  0  0
   -2.0682   -7.3360   43.0118 N   0  3  0  0  0  0  0  0  0  0  0  0
   -0.0453   -6.0813   42.1880 C   0  0  2  0  0  0  0  0  0  0  0  0
    0.4042   -7.2066   41.4369 O   0  0  0  0  0  0  0  0  0  0  0  0
    1.1996   -5.2617   42.6377 C   0  0  1  0  0  0  0  0  0  0  0  0
    1.8495   -4.7137   41.4527 O   0  0  0  0  0  0  0  0  0  0  0  0
    0.8170   -4.0957   43.6068 C   0  0  1  0  0  0  0  0  0  0  0  0
   -0.0743   -4.5665   44.8004 C   0  0  1  0  0  0  0  0  0  0  0  0
   -0.5018   -3.4277   45.6429 N   0  3  0  0  0  0  0  0  0  0  0  0
   -1.3208   -5.3306   44.2838 C   0  0  0  0  0  0  0  0  0  0  0  0
    2.5596   -5.6018   40.5314 C   0  0  1  0  0  0  0  0  0  0  0  0
    2.9927   -4.7882   39.2975 C   0  0  2  0  0  0  0  0  0  0  0  0
    3.1478   -5.6296   38.1581 O   0  0  0  0  0  0  0  0  0  0  0  0
    4.3378   -4.2591   39.8176 C   0  0  1  0  0  0  0  0  0  0  0  0
    4.9273   -5.4834   40.4983 C   0  0  2  0  0  0  0  0  0  0  0  0
    3.7892   -6.0567   41.1235 O   0  0  0  0  0  0  0  0  0  0  0  0
    6.0167   -5.1917   41.5383 C   0  0  0  0  0  0  0  0  0  0  0  0
    6.4258   -6.3975   42.1668 O   0  0  0  0  0  0  0  0  0  0  0  0
    8.9884   -1.6291   39.2544 C   0  0  1  0  0  0  0  0  0  0  0  0
    9.4766   -1.9465   37.9522 O   0  0  0  0  0  0  0  0  0  0  0  0
    7.7063   -0.7599   39.1264 C   0  0  2  0  0  0  0  0  0  0  0  0
    7.4465   -0.1465   40.3868 O   0  0  0  0  0  0  0  0  0  0  0  0
    6.4223   -1.5240   38.6646 C   0  0  1  0  0  0  0  0  0  0  0  0
    6.3785   -1.6113   37.1883 N   0  3  0  0  0  0  0  0  0  0  0  0
    6.2954   -2.9091   39.3520 C   0  0  1  0  0  0  0  0  0  0  0  0
    5.2465   -3.7456   38.8051 O   0  0  0  0  0  0  0  0  0  0  0  0
    8.6654   -2.9263   40.0378 C   0  0  1  0  0  0  0  0  0  0  0  0
    7.5865   -3.6064   39.3399 O   0  0  0  0  0  0  0  0  0  0  0  0
    9.8763   -3.8597   40.2237 C   0  0  0  0  0  0  0  0  0  0  0  0
   10.5567   -4.1710   38.9514 N   0  3  0  0  0  0  0  0  0  0  0  0
  1  2  1  1  0  0  0
  1  3  1  0  0  0  0
  1 10  1  0  0  0  0
  3  4  1  1  0  0  0
  3  5  1  0  0  0  0
  5  6  1  6  0  0  0
  5  7  1  0  0  0  0
  7  8  1  1  0  0  0
  7  9  1  0  0  0  0
  9 10  1  0  0  0  0
  9 11  1  6  0  0  0
 11 12  1  0  0  0  0
 13 14  1  6  0  0  0
 13 15  1  0  0  0  0
 13 22  1  0  0  0  0
 15 16  1  1  0  0  0
 15 17  1  0  0  0  0
 17 18  1  6  0  0  0
 17 19  1  0  0  0  0
 19  2  1  1  0  0  0
 19 20  1  0  0  0  0
 20 21  1  6  0  0  0
 20 22  1  0  0  0  0
 23 18  1  1  0  0  0
 23 24  1  0  0  0  0
 23 28  1  0  0  0  0
 24 25  1  6  0  0  0
 24 26  1  0  0  0  0
 26 27  1  0  0  0  0
 26 38  1  6  0  0  0
 27 28  1  0  0  0  0
 27 29  1  1  0  0  0
 29 30  1  0  0  0  0
 31 32  1  6  0  0  0
 31 33  1  0  0  0  0
 31 39  1  0  0  0  0
 33 34  1  1  0  0  0
 33 35  1  0  0  0  0
 35 36  1  6  0  0  0
 35 37  1  0  0  0  0
 37 38  1  6  0  0  0
 37 40  1  0  0  0  0
 39 40  1  0  0  0  0
 39 41  1  6  0  0  0
 41 42  1  0  0  0  0
M  CHG  5   4   1  14   1  21   1  36   1  42   1
M  END
>  <CHROM.1>
-175.95542581,92.64346649,-61.61134099,-65.09507570,176.99386418,-60.62050242
-61.03824902,-177.74276558,-64.30028599,-70.57123926,173.17197400,-48.38517143
61.87459307,162.47780132,176.13996049,-58.11791448,-67.00575923,164.42687864
87.96760294,-127.79378057,-52.66295418,52.55751806,3.80040987,-3.30919787
41.93982366,-2.85527131,-0.52619401,-2.51119785

>  <Name>
1pbr

>  <RI>
0

>  <Rbt.Current_Directory>
/home/itssahil/PROJECTS/Mol_Feturizer/New_Systems/rnas/1pbr

>  <Rbt.Executable>
rbdock ($Id: //depot/dev/client3/rdock/2013.1/src/exe/rbdock.cxx#4 $)

>  <Rbt.Library>
libRbt.so (2013.1, Build901 2013/11/27)

>  <Rbt.Parameter_File>
/export/apps/rDock/src/rDock_2013.1_src/data/scripts/dock_solv.prm

>  <Rbt.Receptor>
prm/pocket_docking_8.prm

>  <SCORE>
-30.4886

>  <SCORE.INTER>
-25.3178

>  <SCORE.INTER.CONST>
1

>  <SCORE.INTER.POLAR>
-3.92162

>  <SCORE.INTER.ROT>
9

>  <SCORE.INTER.SOLV>
22.0721

>  <SCORE.INTER.VDW>
-20.7638

>  <SCORE.INTER.norm>
-0.602804

>  <SCORE.INTRA>
-5.17082

>  <SCORE.INTRA.DIHEDRAL>
-11.9254

>  <SCORE.INTRA.DIHEDRAL.0>
29.7866

>  <SCORE.INTRA.POLAR>
0.335998

>  <SCORE.INTRA.POLAR.0>
-0.984091

>  <SCORE.INTRA.REPUL>
-0.274115

>  <SCORE.INTRA.REPUL.0>
0.274115

>  <SCORE.INTRA.SOLV>
1.25629

>  <SCORE.INTRA.SOLV.lig_0>
-152.978

>  <SCORE.INTRA.VDW>
0.391903

>  <SCORE.INTRA.VDW.0>
-6.10719

>  <SCORE.INTRA.norm>
-0.123115

>  <SCORE.RESTR>
0

>  <SCORE.RESTR.CAVITY>
0

>  <SCORE.RESTR.norm>
0

>  <SCORE.SYSTEM>
0

>  <SCORE.SYSTEM.CONST>
0

>  <SCORE.SYSTEM.DIHEDRAL>
0

>  <SCORE.SYSTEM.SOLV>
0

>  <SCORE.SYSTEM.norm>
0

>  <SCORE.heavy>
42

>  <SCORE.norm>
-0.725918

>  <RMSD>
4.898

$$$$
1pbr
 OpenBabel11021811403D
libRbt.so/2013.1/901 2013/11/27
 42 45  0  0  0  0  0  0  0  0999 V2000
    4.0502   -2.5540   41.8552 C   0  0  2  0  0  0  0  0  0  0  0  0
    3.1817   -1.6068   42.5272 O   0  0  0  0  0  0  0  0  0  0  0  0
    5.4658   -1.9206   41.5850 C   0  0  2  0  0  0  0  0  0  0  0  0
    6.0001   -1.1047   42.7063 N   0  3  0  0  0  0  0  0  0  0  0  0
    5.4486   -0.9987   40.3511 C   0  0  1  0  0  0  0  0  0  0  0  0
    6.7750   -0.6465   39.9639 O   0  0  0  0  0  0  0  0  0  0  0  0
    4.7334   -1.6714   39.1697 C   0  0  2  0  0  0  0  0  0  0  0  0
    4.7656   -0.8229   38.0263 O   0  0  0  0  0  0  0  0  0  0  0  0
    3.2966   -2.0820   39.5616 C   0  0  2  0  0  0  0  0  0  0  0  0
    3.4126   -3.0347   40.6396 O   0  0  0  0  0  0  0  0  0  0  0  0
    2.5035   -2.7420   38.4349 C   0  0  0  0  0  0  0  0  0  0  0  0
    2.8306   -4.1199   38.3134 O   0  0  0  0  0  0  0  0  0  0  0  0
    0.0194   -4.4326   42.9990 C   0  0  1  0  0  0  0  0  0  0  0  0
   -1.2222   -5.1550   43.3311 N   0  3  0  0  0  0  0  0  0  0  0  0
   -0.2231   -3.2799   41.9782 C   0  0  2  0  0  0  0  0  0  0  0  0
   -0.7785   -3.7938   40.7700 O   0  0  0  0  0  0  0  0  0  0  0  0
    1.1034   -2.5412   41.6341 C   0  0  1  0  0  0  0  0  0  0  0  0
    0.7890   -1.3761   40.8151 O   0  0  0  0  0  0  0  0  0  0  0  0
    1.8709   -2.0828   42.9170 C   0  0  1  0  0  0  0  0  0  0  0  0
    2.0591   -3.2347   43.9555 C   0  0  1  0  0  0  0  0  0  0  0  0
    2.6987   -2.7484   45.1980 N   0  3  0  0  0  0  0  0  0  0  0  0
    0.6970   -3.8943   44.2931 C   0  0  0  0  0  0  0  0  0  0  0  0
    0.5766   -0.0735   41.4475 C   0  0  1  0  0  0  0  0  0  0  0  0
    1.6622    0.8991   40.9499 C   0  0  2  0  0  0  0  0  0  0  0  0
    1.8880    1.9413   41.8950 O   0  0  0  0  0  0  0  0  0  0  0  0
    0.9659    1.4075   39.6784 C   0  0  1  0  0  0  0  0  0  0  0  0
   -0.4623    1.6191   40.1526 C   0  0  2  0  0  0  0  0  0  0  0  0
   -0.6651    0.5013   41.0035 O   0  0  0  0  0  0  0  0  0  0  0  0
   -1.5220    1.6441   39.0435 C   0  0  0  0  0  0  0  0  0  0  0  0
   -1.3987    2.8339   38.2784 O   0  0  0  0  0  0  0  0  0  0  0  0
    3.6776    2.3678   35.3828 C   0  0  1  0  0  0  0  0  0  0  0  0
    2.6551    2.9708   34.5917 O   0  0  0  0  0  0  0  0  0  0  0  0
    4.1998    3.3983   36.4225 C   0  0  2  0  0  0  0  0  0  0  0  0
    5.4429    2.9300   36.9401 O   0  0  0  0  0  0  0  0  0  0  0  0
    3.2353    3.6911   37.6183 C   0  0  1  0  0  0  0  0  0  0  0  0
    2.2525    4.7315   37.2435 N   0  3  0  0  0  0  0  0  0  0  0  0
    2.5659    2.3969   38.1510 C   0  0  1  0  0  0  0  0  0  0  0  0
    1.5068    2.6323   39.1112 O   0  0  0  0  0  0  0  0  0  0  0  0
    3.1242    1.1196   36.1152 C   0  0  1  0  0  0  0  0  0  0  0  0
    2.0925    1.5692   37.0357 O   0  0  0  0  0  0  0  0  0  0  0  0
    2.5829    0.0313   35.1695 C   0  0  0  0  0  0  0  0  0  0  0  0
    1.3229    0.4250   34.5092 N   0  3  0  0  0  0  0  0  0  0  0  0
  1  2  1  6  0  0  0
  1  3  1  0  0  0  0
  1 10  1  0  0  0  0
  3  4  1  1  0  0  0
  3  5  1  0  0  0  0
  5  6  1  6  0  0  0
  5  7  1  0  0  0  0
  7  8  1  6  0  0  0
  7  9  1  0  0  0  0
  9 10  1  0  0  0  0
  9 11  1  6  0  0  0
 11 12  1  0  0  0  0
 13 14  1  1  0  0  0
 13 15  1  0  0  0  0
 13 22  1  0  0  0  0
 15 16  1  6  0  0  0
 15 17  1  0  0  0  0
 17 18  1  6  0  0  0
 17 19  1  0  0  0  0
 19  2  1  6  0  0  0
 19 20  1  0  0  0  0
 20 21  1  1  0  0  0
 20 22  1  0  0  0  0
 23 18  1  6  0  0  0
 23 24  1  0  0  0  0
 23 28  1  0  0  0  0
 24 25  1  1  0  0  0
 24 26  1  0  0  0  0
 26 27  1  0  0  0  0
 26 38  1  1  0  0  0
 27 28  1  0  0  0  0
 27 29  1  6  0  0  0
 29 30  1  0  0  0  0
 31 32  1  1  0  0  0
 31 33  1  0  0  0  0
 31 39  1  0  0  0  0
 33 34  1  1  0  0  0
 33 35  1  0  0  0  0
 35 36  1  6  0  0  0
 35 37  1  0  0  0  0
 37 38  1  1  0  0  0
 37 40  1  0  0  0  0
 39 40  1  0  0  0  0
 39 41  1  6  0  0  0
 41 42  1  0  0  0  0
M  CHG  5   4   1  14   1  21   1  36   1  42   1
M  END
>  <CHROM.1>
-176.15559060,-60.01976288,-154.76826107,-162.66952024,-67.66338160,81.42002898
-163.96592740,-172.91270521,-62.04748432,93.03882553,117.11125503,36.87814832
57.72324277,89.51344148,-70.81581093,62.27938048,64.17661852,176.21611231
64.63455217,-175.33485382,-70.77535364,171.36456176,2.26657350,-0.37847377
39.77533185,-1.71637173,0.16079134,-0.80769188

>  <Name>
1pbr

>  <RI>
0

>  <Rbt.Current_Directory>
/home/itssahil/PROJECTS/Mol_Feturizer/New_Systems/rnas/1pbr

>  <Rbt.Executable>
rbdock ($Id: //depot/dev/client3/rdock/2013.1/src/exe/rbdock.cxx#4 $)

>  <Rbt.Library>
libRbt.so (2013.1, Build901 2013/11/27)

>  <Rbt.Parameter_File>
/export/apps/rDock/src/rDock_2013.1_src/data/scripts/dock_solv.prm

>  <Rbt.Receptor>
prm/pocket_docking_3.prm

>  <SCORE>
-50.4059

>  <SCORE.INTER>
-47.2759

>  <SCORE.INTER.CONST>
1

>  <SCORE.INTER.POLAR>
-8.16245

>  <SCORE.INTER.ROT>
9

>  <SCORE.INTER.SOLV>
33.9699

>  <SCORE.INTER.VDW>
-25.2324

>  <SCORE.INTER.norm>
-1.12562

>  <SCORE.INTRA>
-3.23851

>  <SCORE.INTRA.DIHEDRAL>
-5.76104

>  <SCORE.INTRA.DIHEDRAL.0>
29.7866

>  <SCORE.INTRA.POLAR>
0.0944235

>  <SCORE.INTRA.POLAR.0>
-0.984091

>  <SCORE.INTRA.REPUL>
-0.274115

>  <SCORE.INTRA.REPUL.0>
0.274115

>  <SCORE.INTRA.SOLV>
-0.650881

>  <SCORE.INTRA.SOLV.lig_0>
-152.978

>  <SCORE.INTRA.VDW>
1.01698

>  <SCORE.INTRA.VDW.0>
-6.10719

>  <SCORE.INTRA.norm>
-0.0771075

>  <SCORE.RESTR>
0.108531

>  <SCORE.RESTR.CAVITY>
0.108531

>  <SCORE.RESTR.norm>
0.00258407

>  <SCORE.SYSTEM>
0

>  <SCORE.SYSTEM.CONST>
0

>  <SCORE.SYSTEM.DIHEDRAL>
0

>  <SCORE.SYSTEM.SOLV>
0

>  <SCORE.SYSTEM.norm>
0

>  <SCORE.heavy>
42

>  <SCORE.norm>
-1.20014

>  <RMSD>
4.907

$$$$
1pbr
 OpenBabel11021811403D
libRbt.so/2013.1/901 2013/11/27
 42 45  0  0  0  0  0  0  0  0999 V2000
    4.0718   -1.7170   44.3566 C   0  0  2  0  0  0  0  0  0  0  0  0
    4.0725   -0.2832   44.1386 O   0  0  0  0  0  0  0  0  0  0  0  0
    5.3743   -2.3734   43.7643 C   0  0  2  0  0  0  0  0  0  0  0  0
    6.6187   -1.5968   44.0024 N   0  3  0  0  0  0  0  0  0  0  0  0
    5.2703   -2.5640   42.2393 C   0  0  1  0  0  0  0  0  0  0  0  0
    6.3290   -3.3898   41.7592 O   0  0  0  0  0  0  0  0  0  0  0  0
    3.9207   -3.1872   41.8519 C   0  0  2  0  0  0  0  0  0  0  0  0
    3.8603   -3.3960   40.4444 O   0  0  0  0  0  0  0  0  0  0  0  0
    2.7499   -2.3246   42.3730 C   0  0  2  0  0  0  0  0  0  0  0  0
    2.8557   -2.3002   43.8123 O   0  0  0  0  0  0  0  0  0  0  0  0
    1.3659   -2.8623   42.0130 C   0  0  0  0  0  0  0  0  0  0  0  0
    1.1699   -2.8788   40.6052 O   0  0  0  0  0  0  0  0  0  0  0  0
    0.7653    0.4136   46.7433 C   0  0  1  0  0  0  0  0  0  0  0  0
   -0.2703    0.9763   47.6292 N   0  3  0  0  0  0  0  0  0  0  0  0
    0.6021    0.8891   45.2679 C   0  0  2  0  0  0  0  0  0  0  0  0
   -0.6751    0.5091   44.7609 O   0  0  0  0  0  0  0  0  0  0  0  0
    1.6983    0.2721   44.3506 C   0  0  1  0  0  0  0  0  0  0  0  0
    1.5983    0.8823   43.0298 O   0  0  0  0  0  0  0  0  0  0  0  0
    3.1370    0.4983   44.9200 C   0  0  1  0  0  0  0  0  0  0  0  0
    3.2719    0.0682   46.4159 C   0  0  1  0  0  0  0  0  0  0  0  0
    4.6130    0.3856   46.9547 N   0  3  0  0  0  0  0  0  0  0  0  0
    2.1851    0.7553   47.2825 C   0  0  0  0  0  0  0  0  0  0  0  0
    2.0749    0.1572   41.8513 C   0  0  1  0  0  0  0  0  0  0  0  0
    1.5805    0.8882   40.5890 C   0  0  2  0  0  0  0  0  0  0  0  0
    1.4878   -0.0054   39.4831 O   0  0  0  0  0  0  0  0  0  0  0  0
    2.7290    1.8956   40.4285 C   0  0  1  0  0  0  0  0  0  0  0  0
    3.9536    1.0391   40.7051 C   0  0  2  0  0  0  0  0  0  0  0  0
    3.5101    0.2172   41.7739 O   0  0  0  0  0  0  0  0  0  0  0  0
    5.2133    1.8130   41.1148 C   0  0  0  0  0  0  0  0  0  0  0  0
    5.0257    2.4095   42.3897 O   0  0  0  0  0  0  0  0  0  0  0  0
    4.3513    0.5037   35.6251 C   0  0  1  0  0  0  0  0  0  0  0  0
    3.1920    0.7320   34.8260 O   0  0  0  0  0  0  0  0  0  0  0  0
    5.0079    1.8665   35.9818 C   0  0  2  0  0  0  0  0  0  0  0  0
    6.3345    1.6235   36.4441 O   0  0  0  0  0  0  0  0  0  0  0  0
    4.2492    2.7154   37.0539 C   0  0  1  0  0  0  0  0  0  0  0  0
    3.1850    3.5198   36.4141 N   0  3  0  0  0  0  0  0  0  0  0  0
    3.7200    1.8370   38.2180 C   0  0  1  0  0  0  0  0  0  0  0  0
    2.8303    2.5328   39.1253 O   0  0  0  0  0  0  0  0  0  0  0  0
    3.9685   -0.2491   36.9241 C   0  0  1  0  0  0  0  0  0  0  0  0
    3.0924    0.6181   37.6949 O   0  0  0  0  0  0  0  0  0  0  0  0
    3.3107   -1.6199   36.6791 C   0  0  0  0  0  0  0  0  0  0  0  0
    3.9421   -2.7027   37.4585 N   0  3  0  0  0  0  0  0  0  0  0  0
  1  2  1  6  0  0  0
  1  3  1  0  0  0  0
  1 10  1  0  0  0  0
  3  4  1  6  0  0  0
  3  5  1  0  0  0  0
  5  6  1  1  0  0  0
  5  7  1  0  0  0  0
  7  8  1  6  0  0  0
  7  9  1  0  0  0  0
  9 10  1  0  0  0  0
  9 11  1  1  0  0  0
 11 12  1  0  0  0  0
 13 14  1  1  0  0  0
 13 15  1  0  0  0  0
 13 22  1  0  0  0  0
 15 16  1  6  0  0  0
 15 17  1  0  0  0  0
 17 18  1  6  0  0  0
 17 19  1  0  0  0  0
 19  2  1  6  0  0  0
 19 20  1  0  0  0  0
 20 21  1  1  0  0  0
 20 22  1  0  0  0  0
 23 18  1  1  0  0  0
 23 24  1  0  0  0  0
 23 28  1  0  0  0  0
 24 25  1  6  0  0  0
 24 26  1  0  0  0  0
 26 27  1  0  0  0  0
 26 38  1  6  0  0  0
 27 28  1  0  0  0  0
 27 29  1  1  0  0  0
 29 30  1  0  0  0  0
 31 32  1  6  0  0  0
 31 33  1  0  0  0  0
 31 39  1  0  0  0  0
 33 34  1  1  0  0  0
 33 35  1  0  0  0  0
 35 36  1  6  0  0  0
 35 37  1  0  0  0  0
 37 38  1  6  0  0  0
 37 40  1  0  0  0  0
 39 40  1  0  0  0  0
 39 41  1  6  0  0  0
 41 42  1  0  0  0  0
M  CHG  5   4   1  14   1  21   1  36   1  42   1
M  END
>  <CHROM.1>
-164.14806722,-73.97453000,88.86546016,-77.43033177,-177.70616301,-63.07596871
174.05922291,-65.83119765,178.22206544,-154.43533033,168.05432387,-63.58178970
15.92556954,-92.71312254,67.44567886,93.89411752,65.85449467,-72.62045062
-166.76966403,-159.03855549,129.55675473,70.34995262,3.27605912,-0.09223386
41.39204393,-1.91925026,1.00994651,-1.15679910

>  <Name>
1pbr

>  <RI>
0

>  <Rbt.Current_Directory>
/home/itssahil/PROJECTS/Mol_Feturizer/New_Systems/rnas/1pbr

>  <Rbt.Executable>
rbdock ($Id: //depot/dev/client3/rdock/2013.1/src/exe/rbdock.cxx#4 $)

>  <Rbt.Library>
libRbt.so (2013.1, Build901 2013/11/27)

>  <Rbt.Parameter_File>
/export/apps/rDock/src/rDock_2013.1_src/data/scripts/dock_solv.prm

>  <Rbt.Receptor>
prm/pocket_docking_3.prm

>  <SCORE>
-43.6866

>  <SCORE.INTER>
-48.5351

>  <SCORE.INTER.CONST>
1

>  <SCORE.INTER.POLAR>
-5.60039

>  <SCORE.INTER.ROT>
9

>  <SCORE.INTER.SOLV>
32.7285

>  <SCORE.INTER.VDW>
-34.1982

>  <SCORE.INTER.norm>
-1.1556

>  <SCORE.INTRA>
4.11469

>  <SCORE.INTRA.DIHEDRAL>
2.65666

>  <SCORE.INTRA.DIHEDRAL.0>
29.7866

>  <SCORE.INTRA.POLAR>
-1.68441

>  <SCORE.INTRA.POLAR.0>
-0.984091

>  <SCORE.INTRA.REPUL>
0.162436

>  <SCORE.INTRA.REPUL.0>
0.274115

>  <SCORE.INTRA.SOLV>
3.69109

>  <SCORE.INTRA.SOLV.lig_0>
-152.978

>  <SCORE.INTRA.VDW>
5.85561

>  <SCORE.INTRA.VDW.0>
-6.10719

>  <SCORE.INTRA.norm>
0.0979687

>  <SCORE.RESTR>
0.733768

>  <SCORE.RESTR.CAVITY>
0.733768

>  <SCORE.RESTR.norm>
0.0174707

>  <SCORE.SYSTEM>
0

>  <SCORE.SYSTEM.CONST>
0

>  <SCORE.SYSTEM.DIHEDRAL>
0

>  <SCORE.SYSTEM.SOLV>
0

>  <SCORE.SYSTEM.norm>
0

>  <SCORE.heavy>
42

>  <SCORE.norm>
-1.04016

>  <RMSD>
4.911

$$$$
1pbr
 OpenBabel11021811403D
libRbt.so/2013.1/901 2013/11/27
 42 45  0  0  0  0  0  0  0  0999 V2000
    3.7157   -3.0399   43.2641 C   0  0  2  0  0  0  0  0  0  0  0  0
    3.8974   -1.6333   42.9615 O   0  0  0  0  0  0  0  0  0  0  0  0
    4.5837   -3.9353   42.3033 C   0  0  2  0  0  0  0  0  0  0  0  0
    5.9500   -3.4130   42.0413 N   0  3  0  0  0  0  0  0  0  0  0  0
    3.9148   -4.1031   40.9260 C   0  0  1  0  0  0  0  0  0  0  0  0
    4.5682   -5.1177   40.1664 O   0  0  0  0  0  0  0  0  0  0  0  0
    2.4269   -4.4548   41.0743 C   0  0  2  0  0  0  0  0  0  0  0  0
    1.8362   -4.6488   39.7930 O   0  0  0  0  0  0  0  0  0  0  0  0
    1.6916   -3.3825   41.9086 C   0  0  2  0  0  0  0  0  0  0  0  0
    2.3020   -3.3782   43.2166 O   0  0  0  0  0  0  0  0  0  0  0  0
    0.1972   -3.6436   42.0887 C   0  0  0  0  0  0  0  0  0  0  0  0
   -0.4647   -3.7345   40.8340 O   0  0  0  0  0  0  0  0  0  0  0  0
    1.2808   -0.3386   46.0736 C   0  0  1  0  0  0  0  0  0  0  0  0
    0.5125    0.4130   47.0829 N   0  3  0  0  0  0  0  0  0  0  0  0
    0.8735    0.0417   44.6178 C   0  0  2  0  0  0  0  0  0  0  0  0
   -0.5130   -0.2138   44.4062 O   0  0  0  0  0  0  0  0  0  0  0  0
    1.6887   -0.7734   43.5716 C   0  0  1  0  0  0  0  0  0  0  0  0
    1.3886   -0.2561   42.2414 O   0  0  0  0  0  0  0  0  0  0  0  0
    3.2287   -0.6855   43.8281 C   0  0  1  0  0  0  0  0  0  0  0  0
    3.6175   -1.0158   45.3047 C   0  0  1  0  0  0  0  0  0  0  0  0
    5.0660   -0.8278   45.5413 N   0  3  0  0  0  0  0  0  0  0  0  0
    2.8087   -0.1363   46.2930 C   0  0  0  0  0  0  0  0  0  0  0  0
    1.9561    1.0215   41.8085 C   0  0  1  0  0  0  0  0  0  0  0  0
    3.2231    0.7425   40.9784 C   0  0  2  0  0  0  0  0  0  0  0  0
    4.1160    1.8521   41.0183 O   0  0  0  0  0  0  0  0  0  0  0  0
    2.5730    0.5680   39.5976 C   0  0  1  0  0  0  0  0  0  0  0  0
    1.5572    1.6981   39.5714 C   0  0  2  0  0  0  0  0  0  0  0  0
    1.0590    1.6850   40.9004 O   0  0  0  0  0  0  0  0  0  0  0  0
    0.4088    1.5215   38.5696 C   0  0  0  0  0  0  0  0  0  0  0  0
   -0.5279    2.5793   38.7106 O   0  0  0  0  0  0  0  0  0  0  0  0
    2.6323    1.7878   34.3739 C   0  0  1  0  0  0  0  0  0  0  0  0
    3.9575    2.2282   34.0826 O   0  0  0  0  0  0  0  0  0  0  0  0
    2.6524    0.2657   34.6877 C   0  0  2  0  0  0  0  0  0  0  0  0
    1.3187   -0.2316   34.6071 O   0  0  0  0  0  0  0  0  0  0  0  0
    3.2512   -0.1237   36.0789 C   0  0  1  0  0  0  0  0  0  0  0  0
    4.7241   -0.2333   35.9925 N   0  3  0  0  0  0  0  0  0  0  0  0
    2.7858    0.8431   37.1994 C   0  0  1  0  0  0  0  0  0  0  0  0
    3.4750    0.6603   38.4607 O   0  0  0  0  0  0  0  0  0  0  0  0
    2.0625    2.5650   35.5872 C   0  0  1  0  0  0  0  0  0  0  0  0
    2.8777    2.2353   36.7450 O   0  0  0  0  0  0  0  0  0  0  0  0
    1.9965    4.0891   35.3755 C   0  0  0  0  0  0  0  0  0  0  0  0
    2.0983    4.8450   36.6392 N   0  3  0  0  0  0  0  0  0  0  0  0
  1  2  1  6  0  0  0
  1  3  1  0  0  0  0
  1 10  1  0  0  0  0
  3  4  1  6  0  0  0
  3  5  1  0  0  0  0
  5  6  1  1  0  0  0
  5  7  1  0  0  0  0
  7  8  1  6  0  0  0
  7  9  1  0  0  0  0
  9 10  1  0  0  0  0
  9 11  1  1  0  0  0
 11 12  1  0  0  0  0
 13 14  1  1  0  0  0
 13 15  1  0  0  0  0
 13 22  1  0  0  0  0
 15 16  1  1  0  0  0
 15 17  1  0  0  0  0
 17 18  1  6  0  0  0
 17 19  1  0  0  0  0
 19  2  1  6  0  0  0
 19 20  1  0  0  0  0
 20 21  1  6  0  0  0
 20 22  1  0  0  0  0
 23 18  1  6  0  0  0
 23 24  1  0  0  0  0
 23 28  1  0  0  0  0
 24 25  1  6  0  0  0
 24 26  1  0  0  0  0
 26 27  1  0  0  0  0
 26 38  1  6  0  0  0
 27 28  1  0  0  0  0
 27 29  1  6  0  0  0
 29 30  1  0  0  0  0
 31 32  1  1  0  0  0
 31 33  1  0  0  0  0
 31 39  1  0  0  0  0
 33 34  1  1  0  0  0
 33 35  1  0  0  0  0
 35 36  1  6  0  0  0
 35 37  1  0  0  0  0
 37 38  1  1  0  0  0
 37 40  1  0  0  0  0
 39 40  1  0  0  0  0
 39 41  1  6  0  0  0
 41 42  1  0  0  0  0
M  CHG  5   4   1  14   1  21   1  36   1  42   1
M  END
>  <CHROM.1>
-175.88895181,-70.04946596,-64.48663928,-71.49755809,-53.15382407,-58.16386325
60.69828673,64.93382753,-164.03412306,74.82251495,96.85930923,-61.84672269
57.93725899,-164.64756390,175.34342400,-60.52029345,-179.62316731,-52.10020943
104.50502322,-131.00727742,-152.12287942,24.60429670,2.45204951,-0.40715684
40.46486125,-1.58612728,1.20203433,-1.14223439

>  <Name>
1pbr

>  <RI>
0

>  <Rbt.Current_Directory>
/home/itssahil/PROJECTS/Mol_Feturizer/New_Systems/rnas/1pbr

>  <Rbt.Executable>
rbdock ($Id: //depot/dev/client3/rdock/2013.1/src/exe/rbdock.cxx#4 $)

>  <Rbt.Library>
libRbt.so (2013.1, Build901 2013/11/27)

>  <Rbt.Parameter_File>
/export/apps/rDock/src/rDock_2013.1_src/data/scripts/dock_solv.prm

>  <Rbt.Receptor>
prm/pocket_docking_3.prm

>  <SCORE>
-33.2078

>  <SCORE.INTER>
-33.8244

>  <SCORE.INTER.CONST>
1

>  <SCORE.INTER.POLAR>
-4.60874

>  <SCORE.INTER.ROT>
9

>  <SCORE.INTER.SOLV>
24.0476

>  <SCORE.INTER.VDW>
-24.803

>  <SCORE.INTER.norm>
-0.805343

>  <SCORE.INTRA>
0.598867

>  <SCORE.INTRA.DIHEDRAL>
-4.84285

>  <SCORE.INTRA.DIHEDRAL.0>
29.7866

>  <SCORE.INTRA.POLAR>
0.24199

>  <SCORE.INTRA.POLAR.0>
-0.984091

>  <SCORE.INTRA.REPUL>
-0.274115

>  <SCORE.INTRA.REPUL.0>
0.274115

>  <SCORE.INTRA.SOLV>
-2.58941

>  <SCORE.INTRA.SOLV.lig_0>
-152.978

>  <SCORE.INTRA.VDW>
4.86281

>  <SCORE.INTRA.VDW.0>
-6.10719

>  <SCORE.INTRA.norm>
0.0142587

>  <SCORE.RESTR>
0.017699

>  <SCORE.RESTR.CAVITY>
0.017699

>  <SCORE.RESTR.norm>
0.000421404

>  <SCORE.SYSTEM>
0

>  <SCORE.SYSTEM.CONST>
0

>  <SCORE.SYSTEM.DIHEDRAL>
0

>  <SCORE.SYSTEM.SOLV>
0

>  <SCORE.SYSTEM.norm>
0

>  <SCORE.heavy>
42

>  <SCORE.norm>
-0.790662

>  <RMSD>
4.916

$$$$
1pbr
 OpenBabel11021811403D
libRbt.so/2013.1/901 2013/11/27
 42 45  0  0  0  0  0  0  0  0999 V2000
    1.1596   -5.1703   41.8300 C   0  0  2  0  0  0  0  0  0  0  0  0
    0.1942   -4.5891   42.7430 O   0  0  0  0  0  0  0  0  0  0  0  0
    0.6158   -6.5178   41.2244 C   0  0  2  0  0  0  0  0  0  0  0  0
   -0.8219   -6.4890   40.8494 N   0  3  0  0  0  0  0  0  0  0  0  0
    0.7809   -7.6900   42.2098 C   0  0  1  0  0  0  0  0  0  0  0  0
    0.5345   -8.9354   41.5606 O   0  0  0  0  0  0  0  0  0  0  0  0
    2.1902   -7.7028   42.8210 C   0  0  2  0  0  0  0  0  0  0  0  0
    2.3382   -8.8174   43.6951 O   0  0  0  0  0  0  0  0  0  0  0  0
    2.4964   -6.3589   43.5186 C   0  0  2  0  0  0  0  0  0  0  0  0
    2.4389   -5.3363   42.5016 O   0  0  0  0  0  0  0  0  0  0  0  0
    3.8748   -6.2923   44.1742 C   0  0  0  0  0  0  0  0  0  0  0  0
    4.1510   -4.9856   44.6609 O   0  0  0  0  0  0  0  0  0  0  0  0
   -0.4584   -0.7028   44.3796 C   0  0  1  0  0  0  0  0  0  0  0  0
   -0.3540    0.6195   45.0234 N   0  3  0  0  0  0  0  0  0  0  0  0
    0.3307   -0.7697   43.0370 C   0  0  2  0  0  0  0  0  0  0  0  0
   -0.1557    0.2118   42.1245 O   0  0  0  0  0  0  0  0  0  0  0  0
    0.1949   -2.1701   42.3707 C   0  0  1  0  0  0  0  0  0  0  0  0
    1.0852   -2.2256   41.2169 O   0  0  0  0  0  0  0  0  0  0  0  0
    0.5519   -3.3284   43.3587 C   0  0  1  0  0  0  0  0  0  0  0  0
   -0.2049   -3.2186   44.7210 C   0  0  1  0  0  0  0  0  0  0  0  0
    0.2269   -4.2688   45.6698 N   0  3  0  0  0  0  0  0  0  0  0  0
    0.0119   -1.8205   45.3558 C   0  0  0  0  0  0  0  0  0  0  0  0
    2.5356   -2.1970   41.4104 C   0  0  1  0  0  0  0  0  0  0  0  0
    3.2168   -2.1606   40.0295 C   0  0  2  0  0  0  0  0  0  0  0  0
    4.5338   -2.7006   40.0939 O   0  0  0  0  0  0  0  0  0  0  0  0
    3.2212   -0.6413   39.8029 C   0  0  1  0  0  0  0  0  0  0  0  0
    3.6349   -0.1107   41.1656 C   0  0  2  0  0  0  0  0  0  0  0  0
    2.9307   -0.9700   42.0490 O   0  0  0  0  0  0  0  0  0  0  0  0
    3.2639    1.3530   41.4370 C   0  0  0  0  0  0  0  0  0  0  0  0
    4.0958    1.8855   42.4572 O   0  0  0  0  0  0  0  0  0  0  0  0
    3.2825    1.6636   34.9414 C   0  0  1  0  0  0  0  0  0  0  0  0
    4.5961    2.1867   34.7532 O   0  0  0  0  0  0  0  0  0  0  0  0
    3.3460    0.1110   34.9749 C   0  0  2  0  0  0  0  0  0  0  0  0
    2.0287   -0.4009   34.7870 O   0  0  0  0  0  0  0  0  0  0  0  0
    3.9442   -0.5070   36.2811 C   0  0  1  0  0  0  0  0  0  0  0  0
    5.4205   -0.5574   36.1970 N   0  3  0  0  0  0  0  0  0  0  0  0
    3.4399    0.2272   37.5513 C   0  0  1  0  0  0  0  0  0  0  0  0
    4.1234   -0.1615   38.7682 O   0  0  0  0  0  0  0  0  0  0  0  0
    2.6788    2.1916   36.2670 C   0  0  1  0  0  0  0  0  0  0  0  0
    3.4936    1.6808   37.3575 O   0  0  0  0  0  0  0  0  0  0  0  0
    2.5685    3.7264   36.3337 C   0  0  0  0  0  0  0  0  0  0  0  0
    1.9677    4.3080   35.1174 N   0  3  0  0  0  0  0  0  0  0  0  0
  1  2  1  1  0  0  0
  1  3  1  0  0  0  0
  1 10  1  0  0  0  0
  3  4  1  1  0  0  0
  3  5  1  0  0  0  0
  5  6  1  6  0  0  0
  5  7  1  0  0  0  0
  7  8  1  1  0  0  0
  7  9  1  0  0  0  0
  9 10  1  0  0  0  0
  9 11  1  6  0  0  0
 11 12  1  0  0  0  0
 13 14  1  1  0  0  0
 13 15  1  0  0  0  0
 13 22  1  0  0  0  0
 15 16  1  6  0  0  0
 15 17  1  0  0  0  0
 17 18  1  6  0  0  0
 17 19  1  0  0  0  0
 19  2  1  6  0  0  0
 19 20  1  0  0  0  0
 20 21  1  1  0  0  0
 20 22  1  0  0  0  0
 23 18  1  6  0  0  0
 23 24  1  0  0  0  0
 23 28  1  0  0  0  0
 24 25  1  1  0  0  0
 24 26  1  0  0  0  0
 26 27  1  0  0  0  0
 26 38  1  6  0  0  0
 27 28  1  0  0  0  0
 27 29  1  6  0  0  0
 29 30  1  0  0  0  0
 31 32  1  1  0  0  0
 31 33  1  0  0  0  0
 31 39  1  0  0  0  0
 33 34  1  1  0  0  0
 33 35  1  0  0  0  0
 35 36  1  6  0  0  0
 35 37  1  0  0  0  0
 37 38  1  1  0  0  0
 37 40  1  0  0  0  0
 39 40  1  0  0  0  0
 39 41  1  6  0  0  0
 41 42  1  0  0  0  0
M  CHG  5   4   1  14   1  21   1  36   1  42   1
M  END
>  <CHROM.1>
-178.88884535,83.64012649,62.66215968,60.45737705,-179.63119257,173.29237775
-49.63869981,71.39948762,69.24989153,67.03725262,-175.78866724,-169.35377370
-50.59191601,105.21599133,-158.08873703,-162.37163483,53.52009361,68.15538089
118.29206196,-123.85984797,47.64124849,30.14703044,2.14831082,-2.07384390
40.72330512,-2.22250291,1.22575590,-0.14262726

>  <Name>
1pbr

>  <RI>
0

>  <Rbt.Current_Directory>
/home/itssahil/PROJECTS/Mol_Feturizer/New_Systems/rnas/1pbr

>  <Rbt.Executable>
rbdock ($Id: //depot/dev/client3/rdock/2013.1/src/exe/rbdock.cxx#4 $)

>  <Rbt.Library>
libRbt.so (2013.1, Build901 2013/11/27)

>  <Rbt.Parameter_File>
/export/apps/rDock/src/rDock_2013.1_src/data/scripts/dock_solv.prm

>  <Rbt.Receptor>
prm/pocket_docking_6.prm

>  <SCORE>
-37.9604

>  <SCORE.INTER>
-37.6846

>  <SCORE.INTER.CONST>
1

>  <SCORE.INTER.POLAR>
-6.5727

>  <SCORE.INTER.ROT>
9

>  <SCORE.INTER.SOLV>
29.7288

>  <SCORE.INTER.VDW>
-22.7236

>  <SCORE.INTER.norm>
-0.897251

>  <SCORE.INTRA>
-0.275858

>  <SCORE.INTRA.DIHEDRAL>
-1.85163

>  <SCORE.INTRA.DIHEDRAL.0>
29.7866

>  <SCORE.INTRA.POLAR>
0.862042

>  <SCORE.INTRA.POLAR.0>
-0.984091

>  <SCORE.INTRA.REPUL>
-0.274115

>  <SCORE.INTRA.REPUL.0>
0.274115

>  <SCORE.INTRA.SOLV>
-3.42873

>  <SCORE.INTRA.SOLV.lig_0>
-152.978

>  <SCORE.INTRA.VDW>
0.803951

>  <SCORE.INTRA.VDW.0>
-6.10719

>  <SCORE.INTRA.norm>
-0.00656806

>  <SCORE.RESTR>
0

>  <SCORE.RESTR.CAVITY>
0

>  <SCORE.RESTR.norm>
0

>  <SCORE.SYSTEM>
0

>  <SCORE.SYSTEM.CONST>
0

>  <SCORE.SYSTEM.DIHEDRAL>
0

>  <SCORE.SYSTEM.SOLV>
0

>  <SCORE.SYSTEM.norm>
0

>  <SCORE.heavy>
42

>  <SCORE.norm>
-0.903819

>  <RMSD>
4.936

$$$$
1pbr
 OpenBabel11021811403D
libRbt.so/2013.1/901 2013/11/27
 42 45  0  0  0  0  0  0  0  0999 V2000
    3.5912   -2.6957   45.7517 C   0  0  2  0  0  0  0  0  0  0  0  0
    4.0510   -1.3288   45.9044 O   0  0  0  0  0  0  0  0  0  0  0  0
    4.5718   -3.6988   46.4660 C   0  0  2  0  0  0  0  0  0  0  0  0
    5.0707   -3.2372   47.7875 N   0  3  0  0  0  0  0  0  0  0  0  0
    5.8200   -3.9797   45.6081 C   0  0  1  0  0  0  0  0  0  0  0  0
    6.5611   -5.0771   46.1370 O   0  0  0  0  0  0  0  0  0  0  0  0
    5.4328   -4.2793   44.1521 C   0  0  2  0  0  0  0  0  0  0  0  0
    6.5947   -4.5790   43.3850 O   0  0  0  0  0  0  0  0  0  0  0  0
    4.6124   -3.1153   43.5534 C   0  0  2  0  0  0  0  0  0  0  0  0
    3.4086   -3.0024   44.3417 O   0  0  0  0  0  0  0  0  0  0  0  0
    4.2019   -3.3217   42.0963 C   0  0  0  0  0  0  0  0  0  0  0  0
    3.9881   -2.0788   41.4404 O   0  0  0  0  0  0  0  0  0  0  0  0
    0.1164    0.3190   45.7975 C   0  0  1  0  0  0  0  0  0  0  0  0
   -1.0771    1.1844   45.7735 N   0  3  0  0  0  0  0  0  0  0  0  0
    0.9556    0.4341   44.4890 C   0  0  2  0  0  0  0  0  0  0  0  0
    0.1654    0.0753   43.3579 O   0  0  0  0  0  0  0  0  0  0  0  0
    2.2021   -0.4974   44.5331 C   0  0  1  0  0  0  0  0  0  0  0  0
    3.0318   -0.2212   43.3659 O   0  0  0  0  0  0  0  0  0  0  0  0
    3.0467   -0.2883   45.8323 C   0  0  1  0  0  0  0  0  0  0  0  0
    2.1841   -0.3518   47.1334 C   0  0  1  0  0  0  0  0  0  0  0  0
    2.9912   -0.0521   48.3368 N   0  3  0  0  0  0  0  0  0  0  0  0
    0.9904    0.6341   47.0466 C   0  0  0  0  0  0  0  0  0  0  0  0
    3.3318    1.1618   42.9927 C   0  0  1  0  0  0  0  0  0  0  0  0
    4.5619    1.1669   42.0660 C   0  0  2  0  0  0  0  0  0  0  0  0
    5.2464    2.4149   42.1305 O   0  0  0  0  0  0  0  0  0  0  0  0
    3.8504    0.9623   40.7200 C   0  0  1  0  0  0  0  0  0  0  0  0
    2.6529    1.8901   40.8410 C   0  0  2  0  0  0  0  0  0  0  0  0
    2.2663    1.7065   42.1944 O   0  0  0  0  0  0  0  0  0  0  0  0
    1.4812    1.5705   39.9037 C   0  0  0  0  0  0  0  0  0  0  0  0
    0.5890    2.6736   39.8451 O   0  0  0  0  0  0  0  0  0  0  0  0
    4.7470   -0.6020   35.6509 C   0  0  1  0  0  0  0  0  0  0  0  0
    6.1051   -0.2614   35.3784 O   0  0  0  0  0  0  0  0  0  0  0  0
    4.6900   -1.5469   36.8836 C   0  0  2  0  0  0  0  0  0  0  0  0
    3.4079   -2.1695   36.9188 O   0  0  0  0  0  0  0  0  0  0  0  0
    4.9552   -0.8630   38.2648 C   0  0  1  0  0  0  0  0  0  0  0  0
    6.4088   -0.7847   38.5293 N   0  3  0  0  0  0  0  0  0  0  0  0
    4.2504    0.5148   38.3723 C   0  0  1  0  0  0  0  0  0  0  0  0
    4.6340    1.2847   39.5381 O   0  0  0  0  0  0  0  0  0  0  0  0
    3.9187    0.6768   35.9327 C   0  0  1  0  0  0  0  0  0  0  0  0
    4.4481    1.2882   37.1409 O   0  0  0  0  0  0  0  0  0  0  0  0
    3.9078    1.6818   34.7657 C   0  0  0  0  0  0  0  0  0  0  0  0
    2.8998    2.7459   34.9393 N   0  3  0  0  0  0  0  0  0  0  0  0
  1  2  1  6  0  0  0
  1  3  1  0  0  0  0
  1 10  1  0  0  0  0
  3  4  1  1  0  0  0
  3  5  1  0  0  0  0
  5  6  1  1  0  0  0
  5  7  1  0  0  0  0
  7  8  1  6  0  0  0
  7  9  1  0  0  0  0
  9 10  1  0  0  0  0
  9 11  1  6  0  0  0
 11 12  1  0  0  0  0
 13 14  1  6  0  0  0
 13 15  1  0  0  0  0
 13 22  1  0  0  0  0
 15 16  1  6  0  0  0
 15 17  1  0  0  0  0
 17 18  1  6  0  0  0
 17 19  1  0  0  0  0
 19  2  1  1  0  0  0
 19 20  1  0  0  0  0
 20 21  1  1  0  0  0
 20 22  1  0  0  0  0
 23 18  1  6  0  0  0
 23 24  1  0  0  0  0
 23 28  1  0  0  0  0
 24 25  1  6  0  0  0
 24 26  1  0  0  0  0
 26 27  1  0  0  0  0
 26 38  1  6  0  0  0
 27 28  1  0  0  0  0
 27 29  1  6  0  0  0
 29 30  1  0  0  0  0
 31 32  1  1  0  0  0
 31 33  1  0  0  0  0
 31 39  1  0  0  0  0
 33 34  1  1  0  0  0
 33 35  1  0  0  0  0
 35 36  1  6  0  0  0
 35 37  1  0  0  0  0
 37 38  1  1  0  0  0
 37 40  1  0  0  0  0
 39 40  1  0  0  0  0
 39 41  1  6  0  0  0
 41 42  1  0  0  0  0
M  CHG  5   4   1  14   1  21   1  36   1  42   1
M  END
>  <CHROM.1>
-154.40550013,-51.20780945,-51.55271465,-175.16567107,69.03616359,-154.75994103
-55.15624515,9.97196267,168.07709261,46.18945707,161.14238748,157.37643301
174.08617915,151.47362915,-164.76462009,176.15157965,61.86445839,174.01385680
-93.32885108,-86.16466745,168.03579951,-96.07359232,3.60489615,-0.55523908
42.01142834,-1.68345264,0.81068815,-1.23134828

>  <Name>
1pbr

>  <RI>
0

>  <Rbt.Current_Directory>
/home/itssahil/PROJECTS/Mol_Feturizer/New_Systems/rnas/1pbr

>  <Rbt.Executable>
rbdock ($Id: //depot/dev/client3/rdock/2013.1/src/exe/rbdock.cxx#4 $)

>  <Rbt.Library>
libRbt.so (2013.1, Build901 2013/11/27)

>  <Rbt.Parameter_File>
/export/apps/rDock/src/rDock_2013.1_src/data/scripts/dock_solv.prm

>  <Rbt.Receptor>
prm/pocket_docking_5.prm

>  <SCORE>
-39.0137

>  <SCORE.INTER>
-33.6178

>  <SCORE.INTER.CONST>
1

>  <SCORE.INTER.POLAR>
-4.5304

>  <SCORE.INTER.ROT>
9

>  <SCORE.INTER.SOLV>
35.1526

>  <SCORE.INTER.VDW>
-28.6281

>  <SCORE.INTER.norm>
-0.800424

>  <SCORE.INTRA>
-5.39587

>  <SCORE.INTRA.DIHEDRAL>
-2.94961

>  <SCORE.INTRA.DIHEDRAL.0>
29.7866

>  <SCORE.INTRA.POLAR>
-0.741964

>  <SCORE.INTRA.POLAR.0>
-0.984091

>  <SCORE.INTRA.REPUL>
-0.274115

>  <SCORE.INTRA.REPUL.0>
0.274115

>  <SCORE.INTRA.SOLV>
-1.44326

>  <SCORE.INTRA.SOLV.lig_0>
-152.978

>  <SCORE.INTRA.VDW>
0.693817

>  <SCORE.INTRA.VDW.0>
-6.10719

>  <SCORE.INTRA.norm>
-0.128473

>  <SCORE.RESTR>
0

>  <SCORE.RESTR.CAVITY>
0

>  <SCORE.RESTR.norm>
0

>  <SCORE.SYSTEM>
0

>  <SCORE.SYSTEM.CONST>
0

>  <SCORE.SYSTEM.DIHEDRAL>
0

>  <SCORE.SYSTEM.SOLV>
0

>  <SCORE.SYSTEM.norm>
0

>  <SCORE.heavy>
42

>  <SCORE.norm>
-0.928897

>  <RMSD>
4.949

$$$$
1pbr
 OpenBabel11021811403D
libRbt.so/2013.1/901 2013/11/27
 42 45  0  0  0  0  0  0  0  0999 V2000
    4.3537   -3.3595   43.8812 C   0  0  2  0  0  0  0  0  0  0  0  0
    4.6460   -1.9990   43.4729 O   0  0  0  0  0  0  0  0  0  0  0  0
    4.8685   -4.3886   42.8069 C   0  0  2  0  0  0  0  0  0  0  0  0
    6.2011   -4.0662   42.2336 N   0  3  0  0  0  0  0  0  0  0  0  0
    3.9002   -4.4951   41.6137 C   0  0  1  0  0  0  0  0  0  0  0  0
    4.2357   -5.6079   40.7875 O   0  0  0  0  0  0  0  0  0  0  0  0
    2.4474   -4.6345   42.0927 C   0  0  2  0  0  0  0  0  0  0  0  0
    1.5723   -4.7755   40.9780 O   0  0  0  0  0  0  0  0  0  0  0  0
    2.0564   -3.4516   43.0061 C   0  0  2  0  0  0  0  0  0  0  0  0
    2.9318   -3.5005   44.1527 O   0  0  0  0  0  0  0  0  0  0  0  0
    0.6159   -3.4997   43.5127 C   0  0  0  0  0  0  0  0  0  0  0  0
   -0.3110   -3.3997   42.4397 O   0  0  0  0  0  0  0  0  0  0  0  0
    2.6918   -0.2463   46.8370 C   0  0  1  0  0  0  0  0  0  0  0  0
    2.1967    0.6336   47.9116 N   0  3  0  0  0  0  0  0  0  0  0  0
    2.1925    0.2017   45.4300 C   0  0  2  0  0  0  0  0  0  0  0  0
    0.7675    0.2042   45.3853 O   0  0  0  0  0  0  0  0  0  0  0  0
    2.7174   -0.7492   44.3147 C   0  0  1  0  0  0  0  0  0  0  0  0
    2.3624   -0.1861   43.0171 O   0  0  0  0  0  0  0  0  0  0  0  0
    4.2670   -0.9445   44.3900 C   0  0  1  0  0  0  0  0  0  0  0  0
    4.7599   -1.3400   45.8188 C   0  0  1  0  0  0  0  0  0  0  0  0
    6.2361   -1.4202   45.8826 N   0  3  0  0  0  0  0  0  0  0  0  0
    4.2460   -0.3269   46.8743 C   0  0  0  0  0  0  0  0  0  0  0  0
    2.9176    1.1030   42.6027 C   0  0  1  0  0  0  0  0  0  0  0  0
    4.1675    0.8473   41.7399 C   0  0  2  0  0  0  0  0  0  0  0  0
    5.0583    1.9583   41.7872 O   0  0  0  0  0  0  0  0  0  0  0  0
    3.4889    0.7035   40.3692 C   0  0  1  0  0  0  0  0  0  0  0  0
    2.4701    1.8310   40.3911 C   0  0  2  0  0  0  0  0  0  0  0  0
    2.0000    1.7851   41.7296 O   0  0  0  0  0  0  0  0  0  0  0  0
    1.3013    1.6747   39.4097 C   0  0  0  0  0  0  0  0  0  0  0  0
    0.6849    0.4075   39.5839 O   0  0  0  0  0  0  0  0  0  0  0  0
    3.1500    0.1327   35.1268 C   0  0  1  0  0  0  0  0  0  0  0  0
    3.6829    1.3556   34.6217 O   0  0  0  0  0  0  0  0  0  0  0  0
    4.3090   -0.7497   35.6687 C   0  0  2  0  0  0  0  0  0  0  0  0
    3.8309   -2.0844   35.8187 O   0  0  0  0  0  0  0  0  0  0  0  0
    4.9288   -0.2818   37.0262 C   0  0  1  0  0  0  0  0  0  0  0  0
    5.9670    0.7456   36.7907 N   0  3  0  0  0  0  0  0  0  0  0  0
    3.8401    0.1836   38.0286 C   0  0  1  0  0  0  0  0  0  0  0  0
    4.3666    0.8252   39.2162 O   0  0  0  0  0  0  0  0  0  0  0  0
    2.1341    0.4175   36.2615 C   0  0  1  0  0  0  0  0  0  0  0  0
    2.8588    1.0426   37.3560 O   0  0  0  0  0  0  0  0  0  0  0  0
    0.9393    1.2855   35.8247 C   0  0  0  0  0  0  0  0  0  0  0  0
    0.4537    0.9480   34.4724 N   0  3  0  0  0  0  0  0  0  0  0  0
  1  2  1  6  0  0  0
  1  3  1  0  0  0  0
  1 10  1  0  0  0  0
  3  4  1  6  0  0  0
  3  5  1  0  0  0  0
  5  6  1  1  0  0  0
  5  7  1  0  0  0  0
  7  8  1  6  0  0  0
  7  9  1  0  0  0  0
  9 10  1  0  0  0  0
  9 11  1  1  0  0  0
 11 12  1  0  0  0  0
 13 14  1  1  0  0  0
 13 15  1  0  0  0  0
 13 22  1  0  0  0  0
 15 16  1  1  0  0  0
 15 17  1  0  0  0  0
 17 18  1  6  0  0  0
 17 19  1  0  0  0  0
 19  2  1  6  0  0  0
 19 20  1  0  0  0  0
 20 21  1  6  0  0  0
 20 22  1  0  0  0  0
 23 18  1  6  0  0  0
 23 24  1  0  0  0  0
 23 28  1  0  0  0  0
 24 25  1  6  0  0  0
 24 26  1  0  0  0  0
 26 27  1  0  0  0  0
 26 38  1  6  0  0  0
 27 28  1  0  0  0  0
 27 29  1  6  0  0  0
 29 30  1  0  0  0  0
 31 32  1  1  0  0  0
 31 33  1  0  0  0  0
 31 39  1  0  0  0  0
 33 34  1  1  0  0  0
 33 35  1  0  0  0  0
 35 36  1  6  0  0  0
 35 37  1  0  0  0  0
 37 38  1  1  0  0  0
 37 40  1  0  0  0  0
 39 40  1  0  0  0  0
 39 41  1  6  0  0  0
 41 42  1  0  0  0  0
M  CHG  5   4   1  14   1  21   1  36   1  42   1
M  END
>  <CHROM.1>
-178.01225101,-75.35668414,-66.28153485,-61.24346678,58.16532096,-63.72680732
51.55960491,-54.35423042,177.52511803,63.44959497,95.36602789,49.34999707
-54.41837043,157.02123647,52.65756908,179.03406178,-60.30583919,60.80399735
-42.13410440,-153.36739846,39.21028806,-75.33026634,3.14779307,-0.88713239
41.16458389,-1.41006079,1.36525930,-1.49861906

>  <Name>
1pbr

>  <RI>
0

>  <Rbt.Current_Directory>
/home/itssahil/PROJECTS/Mol_Feturizer/New_Systems/rnas/1pbr

>  <Rbt.Executable>
rbdock ($Id: //depot/dev/client3/rdock/2013.1/src/exe/rbdock.cxx#4 $)

>  <Rbt.Library>
libRbt.so (2013.1, Build901 2013/11/27)

>  <Rbt.Parameter_File>
/export/apps/rDock/src/rDock_2013.1_src/data/scripts/dock_solv.prm

>  <Rbt.Receptor>
prm/pocket_docking_6.prm

>  <SCORE>
-30.4509

>  <SCORE.INTER>
-25.8179

>  <SCORE.INTER.CONST>
1

>  <SCORE.INTER.POLAR>
-3.21569

>  <SCORE.INTER.ROT>
9

>  <SCORE.INTER.SOLV>
32.0658

>  <SCORE.INTER.VDW>
-26.7816

>  <SCORE.INTER.norm>
-0.614713

>  <SCORE.INTRA>
-4.63296

>  <SCORE.INTRA.DIHEDRAL>
-13.9926

>  <SCORE.INTRA.DIHEDRAL.0>
29.7866

>  <SCORE.INTRA.POLAR>
0.157363

>  <SCORE.INTRA.POLAR.0>
-0.984091

>  <SCORE.INTRA.REPUL>
-0.151266

>  <SCORE.INTRA.REPUL.0>
0.274115

>  <SCORE.INTRA.SOLV>
-1.48105

>  <SCORE.INTRA.SOLV.lig_0>
-152.978

>  <SCORE.INTRA.VDW>
3.32515

>  <SCORE.INTRA.VDW.0>
-6.10719

>  <SCORE.INTRA.norm>
-0.110309

>  <SCORE.RESTR>
0

>  <SCORE.RESTR.CAVITY>
0

>  <SCORE.RESTR.norm>
0

>  <SCORE.SYSTEM>
0

>  <SCORE.SYSTEM.CONST>
0

>  <SCORE.SYSTEM.DIHEDRAL>
0

>  <SCORE.SYSTEM.SOLV>
0

>  <SCORE.SYSTEM.norm>
0

>  <SCORE.heavy>
42

>  <SCORE.norm>
-0.725021

>  <RMSD>
4.972

$$$$
1pbr
 OpenBabel11021811403D
libRbt.so/2013.1/901 2013/11/27
 42 45  0  0  0  0  0  0  0  0999 V2000
    2.0625   -2.0544   44.1827 C   0  0  2  0  0  0  0  0  0  0  0  0
    1.7154   -1.5796   42.8571 O   0  0  0  0  0  0  0  0  0  0  0  0
    0.7929   -2.6139   44.9266 C   0  0  2  0  0  0  0  0  0  0  0  0
   -0.1146   -3.4238   44.0727 N   0  3  0  0  0  0  0  0  0  0  0  0
   -0.0668   -1.4786   45.5137 C   0  0  1  0  0  0  0  0  0  0  0  0
   -1.0554   -1.9989   46.3998 O   0  0  0  0  0  0  0  0  0  0  0  0
    0.8036   -0.4580   46.2623 C   0  0  2  0  0  0  0  0  0  0  0  0
   -0.0121    0.5595   46.8347 O   0  0  0  0  0  0  0  0  0  0  0  0
    1.8981    0.1134   45.3338 C   0  0  2  0  0  0  0  0  0  0  0  0
    2.7262   -0.9974   44.9294 O   0  0  0  0  0  0  0  0  0  0  0  0
    2.7996    1.1553   45.9940 C   0  0  0  0  0  0  0  0  0  0  0  0
    4.1221    0.6613   46.1599 O   0  0  0  0  0  0  0  0  0  0  0  0
    5.4577    0.3165   42.0774 C   0  0  1  0  0  0  0  0  0  0  0  0
    6.6800    0.8909   41.4858 N   0  3  0  0  0  0  0  0  0  0  0  0
    4.1777    1.1095   41.6743 C   0  0  2  0  0  0  0  0  0  0  0  0
    4.2816    2.4683   42.0933 O   0  0  0  0  0  0  0  0  0  0  0  0
    2.9032    0.4921   42.3209 C   0  0  1  0  0  0  0  0  0  0  0  0
    1.7306    1.1661   41.7753 O   0  0  0  0  0  0  0  0  0  0  0  0
    2.7923   -1.0441   42.0507 C   0  0  1  0  0  0  0  0  0  0  0  0
    4.1010   -1.8190   42.4078 C   0  0  1  0  0  0  0  0  0  0  0  0
    4.0009   -3.2510   42.0491 N   0  3  0  0  0  0  0  0  0  0  0  0
    5.3232   -1.1861   41.6935 C   0  0  0  0  0  0  0  0  0  0  0  0
    0.7751    0.4214   40.9541 C   0  0  1  0  0  0  0  0  0  0  0  0
   -0.2530    1.4107   40.3742 C   0  0  2  0  0  0  0  0  0  0  0  0
   -1.4828    0.7554   40.0769 O   0  0  0  0  0  0  0  0  0  0  0  0
    0.5047    1.8296   39.1053 C   0  0  1  0  0  0  0  0  0  0  0  0
    1.0514    0.5043   38.6009 C   0  0  2  0  0  0  0  0  0  0  0  0
    1.4345   -0.1408   39.8057 O   0  0  0  0  0  0  0  0  0  0  0  0
    2.2500    0.6117   37.6492 C   0  0  0  0  0  0  0  0  0  0  0  0
    2.6328   -0.6798   37.2001 O   0  0  0  0  0  0  0  0  0  0  0  0
    1.8475    5.2398   35.5354 C   0  0  1  0  0  0  0  0  0  0  0  0
    2.0218    4.3193   34.4597 O   0  0  0  0  0  0  0  0  0  0  0  0
    0.3311    5.5128   35.7394 C   0  0  2  0  0  0  0  0  0  0  0  0
    0.1847    6.6854   36.5371 O   0  0  0  0  0  0  0  0  0  0  0  0
   -0.4757    4.3490   36.4031 C   0  0  1  0  0  0  0  0  0  0  0  0
   -0.9014    3.3693   35.3794 N   0  3  0  0  0  0  0  0  0  0  0  0
    0.3084    3.6948   37.5709 C   0  0  1  0  0  0  0  0  0  0  0  0
   -0.2953    2.4801   38.0799 O   0  0  0  0  0  0  0  0  0  0  0  0
    2.4559    4.6642   36.8389 C   0  0  1  0  0  0  0  0  0  0  0  0
    1.7059    3.4678   37.1853 O   0  0  0  0  0  0  0  0  0  0  0  0
    3.9629    4.3612   36.7423 C   0  0  0  0  0  0  0  0  0  0  0  0
    4.3016    3.0009   37.2042 N   0  3  0  0  0  0  0  0  0  0  0  0
  1  2  1  6  0  0  0
  1  3  1  0  0  0  0
  1 10  1  0  0  0  0
  3  4  1  6  0  0  0
  3  5  1  0  0  0  0
  5  6  1  1  0  0  0
  5  7  1  0  0  0  0
  7  8  1  6  0  0  0
  7  9  1  0  0  0  0
  9 10  1  0  0  0  0
  9 11  1  1  0  0  0
 11 12  1  0  0  0  0
 13 14  1  6  0  0  0
 13 15  1  0  0  0  0
 13 22  1  0  0  0  0
 15 16  1  1  0  0  0
 15 17  1  0  0  0  0
 17 18  1  6  0  0  0
 17 19  1  0  0  0  0
 19  2  1  1  0  0  0
 19 20  1  0  0  0  0
 20 21  1  6  0  0  0
 20 22  1  0  0  0  0
 23 18  1  1  0  0  0
 23 24  1  0  0  0  0
 23 28  1  0  0  0  0
 24 25  1  6  0  0  0
 24 26  1  0  0  0  0
 26 27  1  0  0  0  0
 26 38  1  6  0  0  0
 27 28  1  0  0  0  0
 27 29  1  6  0  0  0
 29 30  1  0  0  0  0
 31 32  1  6  0  0  0
 31 33  1  0  0  0  0
 31 39  1  0  0  0  0
 33 34  1  1  0  0  0
 33 35  1  0  0  0  0
 35 36  1  6  0  0  0
 35 37  1  0  0  0  0
 37 38  1  6  0  0  0
 37 40  1  0  0  0  0
 39 40  1  0  0  0  0
 39 41  1  6  0  0  0
 41 42  1  0  0  0  0
M  CHG  5   4   1  14   1  21   1  36   1  42   1
M  END
>  <CHROM.1>
-179.55263841,-90.14056381,56.69643310,54.07044223,66.12376017,111.51652818
171.40733158,-179.43351542,-83.29975160,114.75062324,-172.97762966,-175.76419078
-175.38856889,131.95112811,-177.40942240,-58.38264917,-78.14417289,65.81318131
-71.92629341,175.71138721,-129.76509299,75.61850215,1.89267244,1.00960454
40.81577458,1.51061181,-0.07175145,2.11270130

>  <Name>
1pbr

>  <RI>
0

>  <Rbt.Current_Directory>
/home/itssahil/PROJECTS/Mol_Feturizer/New_Systems/rnas/1pbr

>  <Rbt.Executable>
rbdock ($Id: //depot/dev/client3/rdock/2013.1/src/exe/rbdock.cxx#4 $)

>  <Rbt.Library>
libRbt.so (2013.1, Build901 2013/11/27)

>  <Rbt.Parameter_File>
/export/apps/rDock/src/rDock_2013.1_src/data/scripts/dock_solv.prm

>  <Rbt.Receptor>
prm/pocket_docking_7.prm

>  <SCORE>
-31.5113

>  <SCORE.INTER>
-39.4952

>  <SCORE.INTER.CONST>
1

>  <SCORE.INTER.POLAR>
-4.98057

>  <SCORE.INTER.ROT>
9

>  <SCORE.INTER.SOLV>
30.9452

>  <SCORE.INTER.VDW>
-29.6433

>  <SCORE.INTER.norm>
-0.940362

>  <SCORE.INTRA>
7.98386

>  <SCORE.INTRA.DIHEDRAL>
4.68477

>  <SCORE.INTRA.DIHEDRAL.0>
29.7866

>  <SCORE.INTRA.POLAR>
0.912764

>  <SCORE.INTRA.POLAR.0>
-0.984091

>  <SCORE.INTRA.REPUL>
-0.274115

>  <SCORE.INTRA.REPUL.0>
0.274115

>  <SCORE.INTRA.SOLV>
-0.654445

>  <SCORE.INTRA.SOLV.lig_0>
-152.978

>  <SCORE.INTRA.VDW>
4.23588

>  <SCORE.INTRA.VDW.0>
-6.10719

>  <SCORE.INTRA.norm>
0.190092

>  <SCORE.RESTR>
0

>  <SCORE.RESTR.CAVITY>
0

>  <SCORE.RESTR.norm>
0

>  <SCORE.SYSTEM>
0

>  <SCORE.SYSTEM.CONST>
0

>  <SCORE.SYSTEM.DIHEDRAL>
0

>  <SCORE.SYSTEM.SOLV>
0

>  <SCORE.SYSTEM.norm>
0

>  <SCORE.heavy>
42

>  <SCORE.norm>
-0.75027

>  <RMSD>
4.999

$$$$
1pbr
 OpenBabel11021811403D
libRbt.so/2013.1/901 2013/11/27
 42 45  0  0  0  0  0  0  0  0999 V2000
    4.4156   -3.4944   44.5633 C   0  0  2  0  0  0  0  0  0  0  0  0
    4.5556   -2.1557   44.0235 O   0  0  0  0  0  0  0  0  0  0  0  0
    5.0443   -4.5591   43.5889 C   0  0  2  0  0  0  0  0  0  0  0  0
    6.3340   -4.1476   42.9759 N   0  3  0  0  0  0  0  0  0  0  0  0
    4.0966   -4.8873   42.4197 C   0  0  1  0  0  0  0  0  0  0  0  0
    4.5557   -6.0305   41.7018 O   0  0  0  0  0  0  0  0  0  0  0  0
    2.6672   -5.1401   42.9223 C   0  0  2  0  0  0  0  0  0  0  0  0
    1.8158   -5.4844   41.8338 O   0  0  0  0  0  0  0  0  0  0  0  0
    2.1449   -3.9251   43.7208 C   0  0  2  0  0  0  0  0  0  0  0  0
    3.0176   -3.7655   44.8592 O   0  0  0  0  0  0  0  0  0  0  0  0
    0.7175   -4.0836   44.2418 C   0  0  0  0  0  0  0  0  0  0  0  0
    0.2290   -2.8642   44.7849 O   0  0  0  0  0  0  0  0  0  0  0  0
    2.4746   -0.2993   47.2531 C   0  0  1  0  0  0  0  0  0  0  0  0
    1.9091    0.6228   48.2551 N   0  3  0  0  0  0  0  0  0  0  0  0
    1.9257   -0.0233   45.8206 C   0  0  2  0  0  0  0  0  0  0  0  0
    0.5062   -0.1538   45.7978 O   0  0  0  0  0  0  0  0  0  0  0  0
    2.5271   -1.0168   44.7837 C   0  0  1  0  0  0  0  0  0  0  0  0
    2.1122   -0.6040   43.4479 O   0  0  0  0  0  0  0  0  0  0  0  0
    4.0886   -1.0637   44.8517 C   0  0  1  0  0  0  0  0  0  0  0  0
    4.6264   -1.2862   46.3015 C   0  0  1  0  0  0  0  0  0  0  0  0
    6.1041   -1.2266   46.3491 N   0  3  0  0  0  0  0  0  0  0  0  0
    4.0299   -0.2353   47.2732 C   0  0  0  0  0  0  0  0  0  0  0  0
    2.3274    0.7754   43.0089 C   0  0  1  0  0  0  0  0  0  0  0  0
    3.5923    0.8221   42.1314 C   0  0  2  0  0  0  0  0  0  0  0  0
    4.1818    2.1191   42.1515 O   0  0  0  0  0  0  0  0  0  0  0  0
    2.9552    0.4935   40.7727 C   0  0  1  0  0  0  0  0  0  0  0  0
    1.6900    1.3350   40.7950 C   0  0  2  0  0  0  0  0  0  0  0  0
    1.2603    1.1960   42.1406 O   0  0  0  0  0  0  0  0  0  0  0  0
    0.5852    0.8795   39.8328 C   0  0  0  0  0  0  0  0  0  0  0  0
   -0.6153    0.6340   40.5503 O   0  0  0  0  0  0  0  0  0  0  0  0
    2.9515   -0.0445   35.4468 C   0  0  1  0  0  0  0  0  0  0  0  0
    3.6552    1.0880   34.9398 O   0  0  0  0  0  0  0  0  0  0  0  0
    3.9501   -0.9899   36.1711 C   0  0  2  0  0  0  0  0  0  0  0  0
    3.3296   -2.2624   36.3388 O   0  0  0  0  0  0  0  0  0  0  0  0
    4.4564   -0.4896   37.5636 C   0  0  1  0  0  0  0  0  0  0  0  0
    5.6102    0.4209   37.3948 N   0  3  0  0  0  0  0  0  0  0  0  0
    3.3129    0.1395   38.4023 C   0  0  1  0  0  0  0  0  0  0  0  0
    3.7630    0.8094   39.6055 O   0  0  0  0  0  0  0  0  0  0  0  0
    1.8475    0.4075   36.4355 C   0  0  1  0  0  0  0  0  0  0  0  0
    2.5024    1.0368   37.5708 O   0  0  0  0  0  0  0  0  0  0  0  0
    0.8002    1.3491   35.8120 C   0  0  0  0  0  0  0  0  0  0  0  0
    0.4488    0.9744   34.4283 N   0  3  0  0  0  0  0  0  0  0  0  0
  1  2  1  6  0  0  0
  1  3  1  0  0  0  0
  1 10  1  0  0  0  0
  3  4  1  6  0  0  0
  3  5  1  0  0  0  0
  5  6  1  1  0  0  0
  5  7  1  0  0  0  0
  7  8  1  6  0  0  0
  7  9  1  0  0  0  0
  9 10  1  0  0  0  0
  9 11  1  1  0  0  0
 11 12  1  0  0  0  0
 13 14  1  1  0  0  0
 13 15  1  0  0  0  0
 13 22  1  0  0  0  0
 15 16  1  1  0  0  0
 15 17  1  0  0  0  0
 17 18  1  6  0  0  0
 17 19  1  0  0  0  0
 19  2  1  6  0  0  0
 19 20  1  0  0  0  0
 20 21  1  6  0  0  0
 20 22  1  0  0  0  0
 23 18  1  6  0  0  0
 23 24  1  0  0  0  0
 23 28  1  0  0  0  0
 24 25  1  6  0  0  0
 24 26  1  0  0  0  0
 26 27  1  0  0  0  0
 26 38  1  6  0  0  0
 27 28  1  0  0  0  0
 27 29  1  6  0  0  0
 29 30  1  0  0  0  0
 31 32  1  1  0  0  0
 31 33  1  0  0  0  0
 31 39  1  0  0  0  0
 33 34  1  1  0  0  0
 33 35  1  0  0  0  0
 35 36  1  6  0  0  0
 35 37  1  0  0  0  0
 37 38  1  1  0  0  0
 37 40  1  0  0  0  0
 39 40  1  0  0  0  0
 39 41  1  6  0  0  0
 41 42  1  0  0  0  0
M  CHG  5   4   1  14   1  21   1  36   1  42   1
M  END
>  <CHROM.1>
-176.58010438,-76.50480974,63.41752594,-174.85558753,-60.16414870,-171.07650386
70.79113049,71.01798012,-70.99416164,52.06750307,99.59924347,-63.65388276
-18.65554068,162.86560413,123.52718686,-74.08004100,60.66542411,-178.06581877
177.74727782,-135.12278308,38.64395250,-80.81398479,2.91074004,-1.07073800
41.71346785,-1.43001959,1.15594870,-1.44217613

>  <Name>
1pbr

>  <RI>
0

>  <Rbt.Current_Directory>
/home/itssahil/PROJECTS/Mol_Feturizer/New_Systems/rnas/1pbr

>  <Rbt.Executable>
rbdock ($Id: //depot/dev/client3/rdock/2013.1/src/exe/rbdock.cxx#4 $)

>  <Rbt.Library>
libRbt.so (2013.1, Build901 2013/11/27)

>  <Rbt.Parameter_File>
/export/apps/rDock/src/rDock_2013.1_src/data/scripts/dock_solv.prm

>  <Rbt.Receptor>
prm/pocket_docking_6.prm

>  <SCORE>
-34.8705

>  <SCORE.INTER>
-35.4757

>  <SCORE.INTER.CONST>
1

>  <SCORE.INTER.POLAR>
-5.53235

>  <SCORE.INTER.ROT>
9

>  <SCORE.INTER.SOLV>
34.4838

>  <SCORE.INTER.VDW>
-26.3039

>  <SCORE.INTER.norm>
-0.844659

>  <SCORE.INTRA>
0.605129

>  <SCORE.INTRA.DIHEDRAL>
0.879056

>  <SCORE.INTRA.DIHEDRAL.0>
29.7866

>  <SCORE.INTRA.POLAR>
0.142126

>  <SCORE.INTRA.POLAR.0>
-0.984091

>  <SCORE.INTRA.REPUL>
-0.274115

>  <SCORE.INTRA.REPUL.0>
0.274115

>  <SCORE.INTRA.SOLV>
-2.23606

>  <SCORE.INTRA.SOLV.lig_0>
-152.978

>  <SCORE.INTRA.VDW>
2.17097

>  <SCORE.INTRA.VDW.0>
-6.10719

>  <SCORE.INTRA.norm>
0.0144078

>  <SCORE.RESTR>
0

>  <SCORE.RESTR.CAVITY>
0

>  <SCORE.RESTR.norm>
0

>  <SCORE.SYSTEM>
0

>  <SCORE.SYSTEM.CONST>
0

>  <SCORE.SYSTEM.DIHEDRAL>
0

>  <SCORE.SYSTEM.SOLV>
0

>  <SCORE.SYSTEM.norm>
0

>  <SCORE.heavy>
42

>  <SCORE.norm>
-0.830251

>  <RMSD>
5.001

$$$$
1pbr
 OpenBabel11021811403D
libRbt.so/2013.1/901 2013/11/27
 42 45  0  0  0  0  0  0  0  0999 V2000
    4.6377   -3.0726   44.6429 C   0  0  2  0  0  0  0  0  0  0  0  0
    5.1420   -1.7221   44.4848 O   0  0  0  0  0  0  0  0  0  0  0  0
    5.7026   -4.1272   44.1610 C   0  0  2  0  0  0  0  0  0  0  0  0
    7.1007   -3.8162   44.5570 N   0  3  0  0  0  0  0  0  0  0  0  0
    5.7098   -4.2656   42.6269 C   0  0  1  0  0  0  0  0  0  0  0  0
    6.4774   -5.3979   42.2246 O   0  0  0  0  0  0  0  0  0  0  0  0
    4.2810   -4.3961   42.0779 C   0  0  2  0  0  0  0  0  0  0  0  0
    4.3100   -4.5669   40.6643 O   0  0  0  0  0  0  0  0  0  0  0  0
    3.4162   -3.1916   42.5109 C   0  0  2  0  0  0  0  0  0  0  0  0
    3.3646   -3.2099   43.9533 O   0  0  0  0  0  0  0  0  0  0  0  0
    1.9808   -3.2301   41.9891 C   0  0  0  0  0  0  0  0  0  0  0  0
    1.5754   -1.9577   41.5022 O   0  0  0  0  0  0  0  0  0  0  0  0
    2.3311   -0.0577   47.2300 C   0  0  1  0  0  0  0  0  0  0  0  0
    1.5197    0.8080   48.1054 N   0  3  0  0  0  0  0  0  0  0  0  0
    2.0857    0.2349   45.7188 C   0  0  2  0  0  0  0  0  0  0  0  0
    0.7119    0.0407   45.3910 O   0  0  0  0  0  0  0  0  0  0  0  0
    2.9432   -0.6994   44.8157 C   0  0  1  0  0  0  0  0  0  0  0  0
    2.8011   -0.2669   43.4301 O   0  0  0  0  0  0  0  0  0  0  0  0
    4.4550   -0.6771   45.2146 C   0  0  1  0  0  0  0  0  0  0  0  0
    4.6831   -0.9174   46.7414 C   0  0  1  0  0  0  0  0  0  0  0  0
    6.1120   -0.7919   47.1047 N   0  3  0  0  0  0  0  0  0  0  0  0
    3.8413    0.0764   47.5830 C   0  0  0  0  0  0  0  0  0  0  0  0
    3.2956    1.0481   43.0201 C   0  0  1  0  0  0  0  0  0  0  0  0
    4.4861    0.8508   42.0630 C   0  0  2  0  0  0  0  0  0  0  0  0
    5.3525    1.9818   42.0837 O   0  0  0  0  0  0  0  0  0  0  0  0
    3.7146    0.7329   40.7399 C   0  0  1  0  0  0  0  0  0  0  0  0
    2.6745    1.8333   40.8710 C   0  0  2  0  0  0  0  0  0  0  0  0
    2.3026    1.7338   42.2371 O   0  0  0  0  0  0  0  0  0  0  0  0
    1.4423    1.6784   39.9702 C   0  0  0  0  0  0  0  0  0  0  0  0
    0.5759    0.6841   40.4964 O   0  0  0  0  0  0  0  0  0  0  0  0
    3.0896    1.5063   35.4913 C   0  0  1  0  0  0  0  0  0  0  0  0
    4.1585    2.3671   35.1024 O   0  0  0  0  0  0  0  0  0  0  0  0
    3.6580    0.1004   35.8319 C   0  0  2  0  0  0  0  0  0  0  0  0
    2.5797   -0.8321   35.8516 O   0  0  0  0  0  0  0  0  0  0  0  0
    4.4333    0.0014   37.1865 C   0  0  1  0  0  0  0  0  0  0  0  0
    5.8442    0.4069   37.0024 N   0  3  0  0  0  0  0  0  0  0  0  0
    3.7242    0.7920   38.3174 C   0  0  1  0  0  0  0  0  0  0  0  0
    4.5044    0.9126   39.5322 O   0  0  0  0  0  0  0  0  0  0  0  0
    2.3543    2.0868   36.7254 C   0  0  1  0  0  0  0  0  0  0  0  0
    3.2979    2.1093   37.8313 O   0  0  0  0  0  0  0  0  0  0  0  0
    1.7481    3.4829   36.4897 C   0  0  0  0  0  0  0  0  0  0  0  0
    0.4926    3.4358   35.7152 N   0  3  0  0  0  0  0  0  0  0  0  0
  1  2  1  6  0  0  0
  1  3  1  0  0  0  0
  1 10  1  0  0  0  0
  3  4  1  6  0  0  0
  3  5  1  0  0  0  0
  5  6  1  1  0  0  0
  5  7  1  0  0  0  0
  7  8  1  6  0  0  0
  7  9  1  0  0  0  0
  9 10  1  0  0  0  0
  9 11  1  6  0  0  0
 11 12  1  0  0  0  0
 13 14  1  1  0  0  0
 13 15  1  0  0  0  0
 13 22  1  0  0  0  0
 15 16  1  6  0  0  0
 15 17  1  0  0  0  0
 17 18  1  6  0  0  0
 17 19  1  0  0  0  0
 19  2  1  6  0  0  0
 19 20  1  0  0  0  0
 20 21  1  6  0  0  0
 20 22  1  0  0  0  0
 23 18  1  6  0  0  0
 23 24  1  0  0  0  0
 23 28  1  0  0  0  0
 24 25  1  6  0  0  0
 24 26  1  0  0  0  0
 26 27  1  0  0  0  0
 26 38  1  6  0  0  0
 27 28  1  0  0  0  0
 27 29  1  6  0  0  0
 29 30  1  0  0  0  0
 31 32  1  1  0  0  0
 31 33  1  0  0  0  0
 31 39  1  0  0  0  0
 33 34  1  1  0  0  0
 33 35  1  0  0  0  0
 35 36  1  6  0  0  0
 35 37  1  0  0  0  0
 37 38  1  1  0  0  0
 37 40  1  0  0  0  0
 39 40  1  0  0  0  0
 39 41  1  6  0  0  0
 41 42  1  0  0  0  0
M  CHG  5   4   1  14   1  21   1  36   1  42   1
M  END
>  <CHROM.1>
-163.16892565,-56.51718353,61.04314655,-71.07409940,64.40111890,-136.15053720
-57.75341095,-43.42176906,-52.41972846,64.74295259,112.73313796,-91.12401412
62.71772822,-179.93874533,76.13726627,-56.83139006,172.95371323,60.77943949
157.36821302,-138.66756696,77.50682488,-69.90174235,3.54712044,-0.43102361
41.62224682,-1.33320107,1.00747500,-1.41529253

>  <Name>
1pbr

>  <RI>
0

>  <Rbt.Current_Directory>
/home/itssahil/PROJECTS/Mol_Feturizer/New_Systems/rnas/1pbr

>  <Rbt.Executable>
rbdock ($Id: //depot/dev/client3/rdock/2013.1/src/exe/rbdock.cxx#4 $)

>  <Rbt.Library>
libRbt.so (2013.1, Build901 2013/11/27)

>  <Rbt.Parameter_File>
/export/apps/rDock/src/rDock_2013.1_src/data/scripts/dock_solv.prm

>  <Rbt.Receptor>
prm/pocket_docking_5.prm

>  <SCORE>
-41.3864

>  <SCORE.INTER>
-35.2709

>  <SCORE.INTER.CONST>
1

>  <SCORE.INTER.POLAR>
-4.67525

>  <SCORE.INTER.ROT>
9

>  <SCORE.INTER.SOLV>
25.0484

>  <SCORE.INTER.VDW>
-25.8792

>  <SCORE.INTER.norm>
-0.839783

>  <SCORE.INTRA>
-6.11547

>  <SCORE.INTRA.DIHEDRAL>
-3.47813

>  <SCORE.INTRA.DIHEDRAL.0>
29.7866

>  <SCORE.INTRA.POLAR>
-1.2033

>  <SCORE.INTRA.POLAR.0>
-0.984091

>  <SCORE.INTRA.REPUL>
-0.2558

>  <SCORE.INTRA.REPUL.0>
0.274115

>  <SCORE.INTRA.SOLV>
-1.5936

>  <SCORE.INTRA.SOLV.lig_0>
-152.978

>  <SCORE.INTRA.VDW>
1.79061

>  <SCORE.INTRA.VDW.0>
-6.10719

>  <SCORE.INTRA.norm>
-0.145606

>  <SCORE.RESTR>
0

>  <SCORE.RESTR.CAVITY>
0

>  <SCORE.RESTR.norm>
0

>  <SCORE.SYSTEM>
0

>  <SCORE.SYSTEM.CONST>
0

>  <SCORE.SYSTEM.DIHEDRAL>
0

>  <SCORE.SYSTEM.SOLV>
0

>  <SCORE.SYSTEM.norm>
0

>  <SCORE.heavy>
42

>  <SCORE.norm>
-0.98539

>  <RMSD>
5.010

$$$$
1pbr
 OpenBabel11021811403D
libRbt.so/2013.1/901 2013/11/27
 42 45  0  0  0  0  0  0  0  0999 V2000
    3.7356   -2.3832   44.8696 C   0  0  2  0  0  0  0  0  0  0  0  0
    4.0405   -1.0272   44.4554 O   0  0  0  0  0  0  0  0  0  0  0  0
    4.8278   -3.3876   44.3437 C   0  0  2  0  0  0  0  0  0  0  0  0
    6.2237   -2.8877   44.4431 N   0  3  0  0  0  0  0  0  0  0  0  0
    4.6026   -3.7459   42.8626 C   0  0  1  0  0  0  0  0  0  0  0  0
    5.4260   -4.8443   42.4768 O   0  0  0  0  0  0  0  0  0  0  0  0
    3.1302   -4.0933   42.5965 C   0  0  2  0  0  0  0  0  0  0  0  0
    2.9498   -4.4637   41.2333 O   0  0  0  0  0  0  0  0  0  0  0  0
    2.2078   -2.9288   43.0204 C   0  0  2  0  0  0  0  0  0  0  0  0
    2.3935   -2.7426   44.4396 O   0  0  0  0  0  0  0  0  0  0  0  0
    0.7221   -3.1824   42.7704 C   0  0  0  0  0  0  0  0  0  0  0  0
    0.2412   -4.2552   43.5694 O   0  0  0  0  0  0  0  0  0  0  0  0
    0.7650    0.6524   46.6135 C   0  0  1  0  0  0  0  0  0  0  0  0
   -0.2289    1.5275   47.2618 N   0  3  0  0  0  0  0  0  0  0  0  0
    0.6774    0.7104   45.0583 C   0  0  2  0  0  0  0  0  0  0  0  0
   -0.6201    0.3167   44.6179 O   0  0  0  0  0  0  0  0  0  0  0  0
    1.7270   -0.2306   44.3976 C   0  0  1  0  0  0  0  0  0  0  0  0
    1.7123   -0.0062   42.9566 O   0  0  0  0  0  0  0  0  0  0  0  0
    3.1693    0.0193   44.9477 C   0  0  1  0  0  0  0  0  0  0  0  0
    3.2328    0.0129   46.5087 C   0  0  1  0  0  0  0  0  0  0  0  0
    4.5873    0.3500   46.9998 N   0  3  0  0  0  0  0  0  0  0  0  0
    2.2002    1.0060   47.1019 C   0  0  0  0  0  0  0  0  0  0  0  0
    2.2632    1.2317   42.4036 C   0  0  1  0  0  0  0  0  0  0  0  0
    3.7667    1.0276   42.1390 C   0  0  2  0  0  0  0  0  0  0  0  0
    4.4645    2.2695   42.1657 O   0  0  0  0  0  0  0  0  0  0  0  0
    3.6842    0.4367   40.7234 C   0  0  1  0  0  0  0  0  0  0  0  0
    2.6365    1.3182   40.0639 C   0  0  2  0  0  0  0  0  0  0  0  0
    1.6938    1.4981   41.1096 O   0  0  0  0  0  0  0  0  0  0  0  0
    1.9552    0.7119   38.8302 C   0  0  0  0  0  0  0  0  0  0  0  0
    1.1444   -0.3892   39.2131 O   0  0  0  0  0  0  0  0  0  0  0  0
    5.6141   -0.4345   35.7880 C   0  0  1  0  0  0  0  0  0  0  0  0
    6.8352    0.2974   35.6982 O   0  0  0  0  0  0  0  0  0  0  0  0
    5.7904   -1.6101   36.7892 C   0  0  2  0  0  0  0  0  0  0  0  0
    4.7231   -2.5351   36.5949 O   0  0  0  0  0  0  0  0  0  0  0  0
    5.8352   -1.2036   38.2986 C   0  0  1  0  0  0  0  0  0  0  0  0
    7.2086   -0.8122   38.6854 N   0  3  0  0  0  0  0  0  0  0  0  0
    4.7832   -0.1141   38.6352 C   0  0  1  0  0  0  0  0  0  0  0  0
    4.9228    0.4516   39.9617 O   0  0  0  0  0  0  0  0  0  0  0  0
    4.4667    0.4913   36.2644 C   0  0  1  0  0  0  0  0  0  0  0  0
    4.7886    0.9363   37.6105 O   0  0  0  0  0  0  0  0  0  0  0  0
    4.2076    1.6914   35.3344 C   0  0  0  0  0  0  0  0  0  0  0  0
    4.3759    2.9888   36.0177 N   0  3  0  0  0  0  0  0  0  0  0  0
  1  2  1  6  0  0  0
  1  3  1  0  0  0  0
  1 10  1  0  0  0  0
  3  4  1  6  0  0  0
  3  5  1  0  0  0  0
  5  6  1  1  0  0  0
  5  7  1  0  0  0  0
  7  8  1  6  0  0  0
  7  9  1  0  0  0  0
  9 10  1  0  0  0  0
  9 11  1  1  0  0  0
 11 12  1  0  0  0  0
 13 14  1  1  0  0  0
 13 15  1  0  0  0  0
 13 22  1  0  0  0  0
 15 16  1  1  0  0  0
 15 17  1  0  0  0  0
 17 18  1  6  0  0  0
 17 19  1  0  0  0  0
 19  2  1  6  0  0  0
 19 20  1  0  0  0  0
 20 21  1  6  0  0  0
 20 22  1  0  0  0  0
 23 18  1  6  0  0  0
 23 24  1  0  0  0  0
 23 28  1  0  0  0  0
 24 25  1  6  0  0  0
 24 26  1  0  0  0  0
 26 27  1  0  0  0  0
 26 38  1  6  0  0  0
 27 28  1  0  0  0  0
 27 29  1  6  0  0  0
 29 30  1  0  0  0  0
 31 32  1  1  0  0  0
 31 33  1  0  0  0  0
 31 39  1  0  0  0  0
 33 34  1  1  0  0  0
 33 35  1  0  0  0  0
 35 36  1  6  0  0  0
 35 37  1  0  0  0  0
 37 38  1  1  0  0  0
 37 40  1  0  0  0  0
 39 40  1  0  0  0  0
 39 41  1  6  0  0  0
 41 42  1  0  0  0  0
M  CHG  5   4   1  14   1  21   1  36   1  42   1
M  END
>  <CHROM.1>
-175.80433675,-62.71045393,175.50316645,-69.65364630,59.49640014,64.82854141
-60.95602589,47.14874928,-171.70764143,71.77013748,88.56560875,59.71598713
45.60796323,-179.83868899,67.92858923,49.52943586,161.38722747,-60.04459191
-151.75265438,-128.59294315,-120.40075022,89.11449730,3.41494008,-0.65234417
41.64714818,-2.26666755,1.02316989,-0.84476932

>  <Name>
1pbr

>  <RI>
0

>  <Rbt.Current_Directory>
/home/itssahil/PROJECTS/Mol_Feturizer/New_Systems/rnas/1pbr

>  <Rbt.Executable>
rbdock ($Id: //depot/dev/client3/rdock/2013.1/src/exe/rbdock.cxx#4 $)

>  <Rbt.Library>
libRbt.so (2013.1, Build901 2013/11/27)

>  <Rbt.Parameter_File>
/export/apps/rDock/src/rDock_2013.1_src/data/scripts/dock_solv.prm

>  <Rbt.Receptor>
prm/pocket_docking_7.prm

>  <SCORE>
-48.6427

>  <SCORE.INTER>
-49.4274

>  <SCORE.INTER.CONST>
1

>  <SCORE.INTER.POLAR>
-6.91072

>  <SCORE.INTER.ROT>
9

>  <SCORE.INTER.SOLV>
31.9408

>  <SCORE.INTER.VDW>
-30.1628

>  <SCORE.INTER.norm>
-1.17684

>  <SCORE.INTRA>
0.784721

>  <SCORE.INTRA.DIHEDRAL>
-4.76365

>  <SCORE.INTRA.DIHEDRAL.0>
29.7866

>  <SCORE.INTRA.POLAR>
0.678222

>  <SCORE.INTRA.POLAR.0>
-0.984091

>  <SCORE.INTRA.REPUL>
-0.274115

>  <SCORE.INTRA.REPUL.0>
0.274115

>  <SCORE.INTRA.SOLV>
-1.81477

>  <SCORE.INTRA.SOLV.lig_0>
-152.978

>  <SCORE.INTRA.VDW>
3.13855

>  <SCORE.INTRA.VDW.0>
-6.10719

>  <SCORE.INTRA.norm>
0.0186838

>  <SCORE.RESTR>
0

>  <SCORE.RESTR.CAVITY>
0

>  <SCORE.RESTR.norm>
0

>  <SCORE.SYSTEM>
0

>  <SCORE.SYSTEM.CONST>
0

>  <SCORE.SYSTEM.DIHEDRAL>
0

>  <SCORE.SYSTEM.SOLV>
0

>  <SCORE.SYSTEM.norm>
0

>  <SCORE.heavy>
42

>  <SCORE.norm>
-1.15816

>  <RMSD>
5.015

$$$$
1pbr
 OpenBabel11021811403D
libRbt.so/2013.1/901 2013/11/27
 42 45  0  0  0  0  0  0  0  0999 V2000
    4.3612   -1.4167   44.3440 C   0  0  2  0  0  0  0  0  0  0  0  0
    3.8967   -0.1011   43.9480 O   0  0  0  0  0  0  0  0  0  0  0  0
    5.4173   -1.9698   43.3159 C   0  0  2  0  0  0  0  0  0  0  0  0
    6.3970   -0.9609   42.8359 N   0  3  0  0  0  0  0  0  0  0  0  0
    4.7379   -2.5433   42.0580 C   0  0  1  0  0  0  0  0  0  0  0  0
    5.6730   -3.2716   41.2653 O   0  0  0  0  0  0  0  0  0  0  0  0
    3.5641   -3.4601   42.4343 C   0  0  2  0  0  0  0  0  0  0  0  0
    2.9766   -4.0149   41.2615 O   0  0  0  0  0  0  0  0  0  0  0  0
    2.5390   -2.7055   43.3096 C   0  0  2  0  0  0  0  0  0  0  0  0
    3.2274   -2.3114   44.5154 O   0  0  0  0  0  0  0  0  0  0  0  0
    1.3245   -3.5398   43.7135 C   0  0  0  0  0  0  0  0  0  0  0  0
    0.5540   -3.9111   42.5781 O   0  0  0  0  0  0  0  0  0  0  0  0
    0.7657    0.1698   46.8343 C   0  0  1  0  0  0  0  0  0  0  0  0
   -0.2430    0.5950   47.8222 N   0  3  0  0  0  0  0  0  0  0  0  0
    0.4338    0.6741   45.3972 C   0  0  2  0  0  0  0  0  0  0  0  0
   -0.8374    0.1827   44.9786 O   0  0  0  0  0  0  0  0  0  0  0  0
    1.5052    0.2023   44.3711 C   0  0  1  0  0  0  0  0  0  0  0  0
    1.2356    0.8419   43.0885 O   0  0  0  0  0  0  0  0  0  0  0  0
    2.9570    0.5551   44.8328 C   0  0  1  0  0  0  0  0  0  0  0  0
    3.2581    0.0924   46.2943 C   0  0  1  0  0  0  0  0  0  0  0  0
    4.6015    0.5270   46.7370 N   0  3  0  0  0  0  0  0  0  0  0  0
    2.1848    0.6366   47.2722 C   0  0  0  0  0  0  0  0  0  0  0  0
    0.7237    0.0495   41.9695 C   0  0  1  0  0  0  0  0  0  0  0  0
    0.3064    1.0069   40.8375 C   0  0  2  0  0  0  0  0  0  0  0  0
   -0.6891    0.4151   40.0075 O   0  0  0  0  0  0  0  0  0  0  0  0
    1.6591    1.1371   40.1211 C   0  0  1  0  0  0  0  0  0  0  0  0
    2.1650   -0.2959   40.1190 C   0  0  2  0  0  0  0  0  0  0  0  0
    1.7743   -0.7543   41.4042 O   0  0  0  0  0  0  0  0  0  0  0  0
    3.6798   -0.4537   39.9343 C   0  0  0  0  0  0  0  0  0  0  0  0
    4.3704    0.2100   40.9826 O   0  0  0  0  0  0  0  0  0  0  0  0
    4.8614    2.2580   35.9859 C   0  0  1  0  0  0  0  0  0  0  0  0
    4.0796    2.0232   34.8162 O   0  0  0  0  0  0  0  0  0  0  0  0
    4.3293    3.5226   36.7161 C   0  0  2  0  0  0  0  0  0  0  0  0
    5.3182    3.9596   37.6454 O   0  0  0  0  0  0  0  0  0  0  0  0
    2.9737    3.3380   37.4739 C   0  0  1  0  0  0  0  0  0  0  0  0
    1.8363    3.5283   36.5471 N   0  3  0  0  0  0  0  0  0  0  0  0
    2.9132    1.9838   38.2285 C   0  0  1  0  0  0  0  0  0  0  0  0
    1.6065    1.6664   38.7677 O   0  0  0  0  0  0  0  0  0  0  0  0
    4.7883    1.0357   36.9352 C   0  0  1  0  0  0  0  0  0  0  0  0
    3.4088    0.8990   37.3735 O   0  0  0  0  0  0  0  0  0  0  0  0
    5.2987   -0.2738   36.3053 C   0  0  0  0  0  0  0  0  0  0  0  0
    6.4395   -0.8535   37.0408 N   0  3  0  0  0  0  0  0  0  0  0  0
  1  2  1  6  0  0  0
  1  3  1  0  0  0  0
  1 10  1  0  0  0  0
  3  4  1  6  0  0  0
  3  5  1  0  0  0  0
  5  6  1  1  0  0  0
  5  7  1  0  0  0  0
  7  8  1  6  0  0  0
  7  9  1  0  0  0  0
  9 10  1  0  0  0  0
  9 11  1  1  0  0  0
 11 12  1  0  0  0  0
 13 14  1  1  0  0  0
 13 15  1  0  0  0  0
 13 22  1  0  0  0  0
 15 16  1  6  0  0  0
 15 17  1  0  0  0  0
 17 18  1  6  0  0  0
 17 19  1  0  0  0  0
 19  2  1  6  0  0  0
 19 20  1  0  0  0  0
 20 21  1  1  0  0  0
 20 22  1  0  0  0  0
 23 18  1  1  0  0  0
 23 24  1  0  0  0  0
 23 28  1  0  0  0  0
 24 25  1  6  0  0  0
 24 26  1  0  0  0  0
 26 27  1  0  0  0  0
 26 38  1  6  0  0  0
 27 28  1  0  0  0  0
 27 29  1  1  0  0  0
 29 30  1  0  0  0  0
 31 32  1  6  0  0  0
 31 33  1  0  0  0  0
 31 39  1  0  0  0  0
 33 34  1  1  0  0  0
 33 35  1  0  0  0  0
 35 36  1  6  0  0  0
 35 37  1  0  0  0  0
 37 38  1  6  0  0  0
 37 40  1  0  0  0  0
 39 40  1  0  0  0  0
 39 41  1  6  0  0  0
 41 42  1  0  0  0  0
M  CHG  5   4   1  14   1  21   1  36   1  42   1
M  END
>  <CHROM.1>
-177.65344439,-91.94121976,-77.08350714,-56.41746845,62.64225092,-64.24947753
175.06305277,-39.13776952,-61.41735738,-109.03133639,170.39584349,-58.67563203
173.12906506,169.94083652,59.90732460,51.04077992,51.76517359,-41.10643098
50.46180351,-136.46493916,120.05638384,170.36655915,2.92279001,-0.04250460
41.45933206,-1.87778377,0.71981088,-1.07326296

>  <Name>
1pbr

>  <RI>
0

>  <Rbt.Current_Directory>
/home/itssahil/PROJECTS/Mol_Feturizer/New_Systems/rnas/1pbr

>  <Rbt.Executable>
rbdock ($Id: //depot/dev/client3/rdock/2013.1/src/exe/rbdock.cxx#4 $)

>  <Rbt.Library>
libRbt.so (2013.1, Build901 2013/11/27)

>  <Rbt.Parameter_File>
/export/apps/rDock/src/rDock_2013.1_src/data/scripts/dock_solv.prm

>  <Rbt.Receptor>
prm/pocket_docking_5.prm

>  <SCORE>
-49.2402

>  <SCORE.INTER>
-43.6093

>  <SCORE.INTER.CONST>
1

>  <SCORE.INTER.POLAR>
-4.73524

>  <SCORE.INTER.ROT>
9

>  <SCORE.INTER.SOLV>
31.0572

>  <SCORE.INTER.VDW>
-33.2412

>  <SCORE.INTER.norm>
-1.03832

>  <SCORE.INTRA>
-5.63082

>  <SCORE.INTRA.DIHEDRAL>
-1.26834

>  <SCORE.INTRA.DIHEDRAL.0>
29.7866

>  <SCORE.INTRA.POLAR>
-1.23313

>  <SCORE.INTRA.POLAR.0>
-0.984091

>  <SCORE.INTRA.REPUL>
-0.274115

>  <SCORE.INTRA.REPUL.0>
0.274115

>  <SCORE.INTRA.SOLV>
1.85307

>  <SCORE.INTRA.SOLV.lig_0>
-152.978

>  <SCORE.INTRA.VDW>
-0.359968

>  <SCORE.INTRA.VDW.0>
-6.10719

>  <SCORE.INTRA.norm>
-0.134067

>  <SCORE.RESTR>
0

>  <SCORE.RESTR.CAVITY>
0

>  <SCORE.RESTR.norm>
0

>  <SCORE.SYSTEM>
0

>  <SCORE.SYSTEM.CONST>
0

>  <SCORE.SYSTEM.DIHEDRAL>
0

>  <SCORE.SYSTEM.SOLV>
0

>  <SCORE.SYSTEM.norm>
0

>  <SCORE.heavy>
42

>  <SCORE.norm>
-1.17238

>  <RMSD>
5.031

$$$$
1pbr
 OpenBabel11021811403D
libRbt.so/2013.1/901 2013/11/27
 42 45  0  0  0  0  0  0  0  0999 V2000
    0.8267   -3.4546   42.5239 C   0  0  2  0  0  0  0  0  0  0  0  0
    1.7680   -3.8854   43.5395 O   0  0  0  0  0  0  0  0  0  0  0  0
   -0.6107   -4.0267   42.8148 C   0  0  2  0  0  0  0  0  0  0  0  0
   -1.0100   -3.9915   44.2458 N   0  3  0  0  0  0  0  0  0  0  0  0
   -0.7378   -5.4953   42.3678 C   0  0  1  0  0  0  0  0  0  0  0  0
   -2.1004   -5.9151   42.3906 O   0  0  0  0  0  0  0  0  0  0  0  0
   -0.1659   -5.6939   40.9560 C   0  0  2  0  0  0  0  0  0  0  0  0
   -0.3316   -7.0467   40.5430 O   0  0  0  0  0  0  0  0  0  0  0  0
    1.3068   -5.2317   40.8921 C   0  0  2  0  0  0  0  0  0  0  0  0
    1.3177   -3.8228   41.2053 O   0  0  0  0  0  0  0  0  0  0  0  0
    1.9626   -5.4139   39.5244 C   0  0  0  0  0  0  0  0  0  0  0  0
    2.0173   -6.7862   39.1580 O   0  0  0  0  0  0  0  0  0  0  0  0
    3.4396   -0.3681   45.2837 C   0  0  1  0  0  0  0  0  0  0  0  0
    4.3119    0.7043   45.7964 N   0  3  0  0  0  0  0  0  0  0  0  0
    3.4563   -0.4492   43.7271 C   0  0  2  0  0  0  0  0  0  0  0  0
    3.0271    0.7863   43.1598 O   0  0  0  0  0  0  0  0  0  0  0  0
    2.5189   -1.5794   43.2099 C   0  0  1  0  0  0  0  0  0  0  0  0
    2.7062   -1.7178   41.7702 O   0  0  0  0  0  0  0  0  0  0  0  0
    2.8100   -2.9491   43.9058 C   0  0  1  0  0  0  0  0  0  0  0  0
    2.8445   -2.8426   45.4641 C   0  0  1  0  0  0  0  0  0  0  0  0
    3.2196   -4.1301   46.0896 N   0  3  0  0  0  0  0  0  0  0  0  0
    3.8327   -1.7359   45.9147 C   0  0  0  0  0  0  0  0  0  0  0  0
    4.0541   -1.8626   41.2187 C   0  0  1  0  0  0  0  0  0  0  0  0
    3.9417   -2.3647   39.7670 C   0  0  2  0  0  0  0  0  0  0  0  0
    5.1208   -3.0610   39.3734 O   0  0  0  0  0  0  0  0  0  0  0  0
    3.7999   -1.0113   39.0542 C   0  0  1  0  0  0  0  0  0  0  0  0
    4.8355   -0.1581   39.7677 C   0  0  2  0  0  0  0  0  0  0  0  0
    4.6930   -0.5777   41.1162 O   0  0  0  0  0  0  0  0  0  0  0  0
    4.6232    1.3572   39.6556 C   0  0  0  0  0  0  0  0  0  0  0  0
    4.8745    1.7875   38.3260 O   0  0  0  0  0  0  0  0  0  0  0  0
    2.2687    2.5004   35.8611 C   0  0  1  0  0  0  0  0  0  0  0  0
    3.3251    3.3819   36.2376 O   0  0  0  0  0  0  0  0  0  0  0  0
    2.8170    1.4299   34.8765 C   0  0  2  0  0  0  0  0  0  0  0  0
    1.7132    0.8033   34.2273 O   0  0  0  0  0  0  0  0  0  0  0  0
    3.7151    0.3240   35.5215 C   0  0  1  0  0  0  0  0  0  0  0  0
    5.1153    0.7917   35.6208 N   0  3  0  0  0  0  0  0  0  0  0  0
    3.1467   -0.1622   36.8806 C   0  0  1  0  0  0  0  0  0  0  0  0
    4.0442   -1.0259   37.6208 O   0  0  0  0  0  0  0  0  0  0  0  0
    1.6768    1.8057   37.1132 C   0  0  1  0  0  0  0  0  0  0  0  0
    2.7227    0.9814   37.6965 O   0  0  0  0  0  0  0  0  0  0  0  0
    1.1008    2.7836   38.1543 C   0  0  0  0  0  0  0  0  0  0  0  0
   -0.1064    3.4831   37.6726 N   0  3  0  0  0  0  0  0  0  0  0  0
  1  2  1  1  0  0  0
  1  3  1  0  0  0  0
  1 10  1  0  0  0  0
  3  4  1  1  0  0  0
  3  5  1  0  0  0  0
  5  6  1  6  0  0  0
  5  7  1  0  0  0  0
  7  8  1  1  0  0  0
  7  9  1  0  0  0  0
  9 10  1  0  0  0  0
  9 11  1  6  0  0  0
 11 12  1  0  0  0  0
 13 14  1  6  0  0  0
 13 15  1  0  0  0  0
 13 22  1  0  0  0  0
 15 16  1  6  0  0  0
 15 17  1  0  0  0  0
 17 18  1  6  0  0  0
 17 19  1  0  0  0  0
 19  2  1  1  0  0  0
 19 20  1  0  0  0  0
 20 21  1  1  0  0  0
 20 22  1  0  0  0  0
 23 18  1  6  0  0  0
 23 24  1  0  0  0  0
 23 28  1  0  0  0  0
 24 25  1  6  0  0  0
 24 26  1  0  0  0  0
 26 27  1  0  0  0  0
 26 38  1  6  0  0  0
 27 28  1  0  0  0  0
 27 29  1  1  0  0  0
 29 30  1  0  0  0  0
 31 32  1  1  0  0  0
 31 33  1  0  0  0  0
 31 39  1  0  0  0  0
 33 34  1  1  0  0  0
 33 35  1  0  0  0  0
 35 36  1  1  0  0  0
 35 37  1  0  0  0  0
 37 38  1  1  0  0  0
 37 40  1  0  0  0  0
 39 40  1  0  0  0  0
 39 41  1  1  0  0  0
 41 42  1  0  0  0  0
M  CHG  5   4   1  14   1  21   1  36   1  42   1
M  END
>  <CHROM.1>
-145.21087088,7.74969568,41.93695940,-67.64970349,-176.03090642,-62.66745997
175.91779296,96.63323642,172.28190504,50.94327438,164.82937174,-172.70940866
67.86061824,141.55412146,-69.68219931,-171.08774199,-60.08585367,64.62425941
77.99509931,155.12667338,67.70707851,55.36028458,2.47140370,-1.51451755,40.46292099
1.98054237,1.05211710,1.90613634

>  <Name>
1pbr

>  <RI>
0

>  <Rbt.Current_Directory>
/home/itssahil/PROJECTS/Mol_Feturizer/New_Systems/rnas/1pbr

>  <Rbt.Executable>
rbdock ($Id: //depot/dev/client3/rdock/2013.1/src/exe/rbdock.cxx#4 $)

>  <Rbt.Library>
libRbt.so (2013.1, Build901 2013/11/27)

>  <Rbt.Parameter_File>
/export/apps/rDock/src/rDock_2013.1_src/data/scripts/dock_solv.prm

>  <Rbt.Receptor>
prm/pocket_docking_2.prm

>  <SCORE>
-23.223

>  <SCORE.INTER>
-23.7745

>  <SCORE.INTER.CONST>
1

>  <SCORE.INTER.POLAR>
-3.83432

>  <SCORE.INTER.ROT>
9

>  <SCORE.INTER.SOLV>
27.0073

>  <SCORE.INTER.VDW>
-21.6711

>  <SCORE.INTER.norm>
-0.56606

>  <SCORE.INTRA>
-2.42958

>  <SCORE.INTRA.DIHEDRAL>
-2.40763

>  <SCORE.INTRA.DIHEDRAL.0>
29.7866

>  <SCORE.INTRA.POLAR>
-1.96198

>  <SCORE.INTRA.POLAR.0>
-0.984091

>  <SCORE.INTRA.REPUL>
-0.249455

>  <SCORE.INTRA.REPUL.0>
0.274115

>  <SCORE.INTRA.SOLV>
0.943648

>  <SCORE.INTRA.SOLV.lig_0>
-152.978

>  <SCORE.INTRA.VDW>
6.2204

>  <SCORE.INTRA.VDW.0>
-6.10719

>  <SCORE.INTRA.norm>
-0.0578472

>  <SCORE.RESTR>
2.98107

>  <SCORE.RESTR.CAVITY>
2.98107

>  <SCORE.RESTR.norm>
0.0709779

>  <SCORE.SYSTEM>
0

>  <SCORE.SYSTEM.CONST>
0

>  <SCORE.SYSTEM.DIHEDRAL>
0

>  <SCORE.SYSTEM.SOLV>
0

>  <SCORE.SYSTEM.norm>
0

>  <SCORE.heavy>
42

>  <SCORE.norm>
-0.55293

>  <RMSD>
5.039

$$$$
1pbr
 OpenBabel11021811403D
libRbt.so/2013.1/901 2013/11/27
 42 45  0  0  0  0  0  0  0  0999 V2000
    2.2915   -2.6162   42.6220 C   0  0  2  0  0  0  0  0  0  0  0  0
    1.6055   -3.6040   43.4323 O   0  0  0  0  0  0  0  0  0  0  0  0
    3.8438   -2.6614   42.8802 C   0  0  2  0  0  0  0  0  0  0  0  0
    4.4089   -4.0305   43.0005 N   0  3  0  0  0  0  0  0  0  0  0  0
    4.2248   -1.9223   44.1768 C   0  0  1  0  0  0  0  0  0  0  0  0
    5.6369   -1.7425   44.2605 O   0  0  0  0  0  0  0  0  0  0  0  0
    3.5303   -0.5544   44.2568 C   0  0  2  0  0  0  0  0  0  0  0  0
    3.9282    0.1319   45.4396 O   0  0  0  0  0  0  0  0  0  0  0  0
    1.9972   -0.7121   44.1515 C   0  0  2  0  0  0  0  0  0  0  0  0
    1.7240   -1.2986   42.8613 O   0  0  0  0  0  0  0  0  0  0  0  0
    1.2237    0.6022   44.2432 C   0  0  0  0  0  0  0  0  0  0  0  0
    1.3362    1.1767   45.5385 O   0  0  0  0  0  0  0  0  0  0  0  0
   -0.9494   -6.9798   42.8987 C   0  0  1  0  0  0  0  0  0  0  0  0
   -1.9322   -7.9773   42.4372 N   0  3  0  0  0  0  0  0  0  0  0  0
    0.2827   -6.8817   41.9489 C   0  0  2  0  0  0  0  0  0  0  0  0
    0.9381   -8.1440   41.8519 O   0  0  0  0  0  0  0  0  0  0  0  0
    1.3110   -5.8323   42.4636 C   0  0  1  0  0  0  0  0  0  0  0  0
    2.3496   -5.6634   41.4537 O   0  0  0  0  0  0  0  0  0  0  0  0
    0.6427   -4.4496   42.7580 C   0  0  1  0  0  0  0  0  0  0  0  0
   -0.6228   -4.5686   43.6664 C   0  0  1  0  0  0  0  0  0  0  0  0
   -1.2895   -3.2598   43.8454 N   0  3  0  0  0  0  0  0  0  0  0  0
   -1.6277   -5.5896   43.0729 C   0  0  0  0  0  0  0  0  0  0  0  0
    1.9960   -5.1988   40.1117 C   0  0  1  0  0  0  0  0  0  0  0  0
    2.4279   -3.7273   39.9695 C   0  0  2  0  0  0  0  0  0  0  0  0
    1.6436   -3.0562   38.9873 O   0  0  0  0  0  0  0  0  0  0  0  0
    3.8768   -3.9449   39.5079 C   0  0  1  0  0  0  0  0  0  0  0  0
    3.7310   -5.0736   38.5008 C   0  0  2  0  0  0  0  0  0  0  0  0
    2.7620   -5.9055   39.1200 O   0  0  0  0  0  0  0  0  0  0  0  0
    5.0132   -5.8674   38.2188 C   0  0  0  0  0  0  0  0  0  0  0  0
    4.6923   -7.1171   37.6260 O   0  0  0  0  0  0  0  0  0  0  0  0
    8.6991   -1.7556   39.3169 C   0  0  1  0  0  0  0  0  0  0  0  0
    8.9116   -1.5036   37.9291 O   0  0  0  0  0  0  0  0  0  0  0  0
    7.6677   -0.7350   39.8740 C   0  0  2  0  0  0  0  0  0  0  0  0
    7.7422   -0.7463   41.2977 O   0  0  0  0  0  0  0  0  0  0  0  0
    6.1837   -0.9808   39.4460 C   0  0  1  0  0  0  0  0  0  0  0  0
    5.9194   -0.3627   38.1280 N   0  3  0  0  0  0  0  0  0  0  0  0
    5.8118   -2.4864   39.4884 C   0  0  1  0  0  0  0  0  0  0  0  0
    4.5238   -2.7931   38.9001 O   0  0  0  0  0  0  0  0  0  0  0  0
    8.1739   -3.1981   39.5267 C   0  0  1  0  0  0  0  0  0  0  0  0
    6.8754   -3.2936   38.8797 O   0  0  0  0  0  0  0  0  0  0  0  0
    9.1290   -4.2902   39.0095 C   0  0  0  0  0  0  0  0  0  0  0  0
    8.4685   -5.6019   38.8619 N   0  3  0  0  0  0  0  0  0  0  0  0
  1  2  1  1  0  0  0
  1  3  1  0  0  0  0
  1 10  1  0  0  0  0
  3  4  1  1  0  0  0
  3  5  1  0  0  0  0
  5  6  1  6  0  0  0
  5  7  1  0  0  0  0
  7  8  1  1  0  0  0
  7  9  1  0  0  0  0
  9 10  1  0  0  0  0
  9 11  1  6  0  0  0
 11 12  1  0  0  0  0
 13 14  1  6  0  0  0
 13 15  1  0  0  0  0
 13 22  1  0  0  0  0
 15 16  1  1  0  0  0
 15 17  1  0  0  0  0
 17 18  1  6  0  0  0
 17 19  1  0  0  0  0
 19  2  1  1  0  0  0
 19 20  1  0  0  0  0
 20 21  1  6  0  0  0
 20 22  1  0  0  0  0
 23 18  1  1  0  0  0
 23 24  1  0  0  0  0
 23 28  1  0  0  0  0
 24 25  1  6  0  0  0
 24 26  1  0  0  0  0
 26 27  1  0  0  0  0
 26 38  1  6  0  0  0
 27 28  1  0  0  0  0
 27 29  1  1  0  0  0
 29 30  1  0  0  0  0
 31 32  1  6  0  0  0
 31 33  1  0  0  0  0
 31 39  1  0  0  0  0
 33 34  1  1  0  0  0
 33 35  1  0  0  0  0
 35 36  1  6  0  0  0
 35 37  1  0  0  0  0
 37 38  1  6  0  0  0
 37 40  1  0  0  0  0
 39 40  1  0  0  0  0
 39 41  1  6  0  0  0
 41 42  1  0  0  0  0
M  CHG  5   4   1  14   1  21   1  36   1  42   1
M  END
>  <CHROM.1>
-131.69885463,100.24513805,166.14475764,-171.58633477,66.41363756,-67.10106043
-59.53373542,64.02416103,69.70450199,60.15880554,105.13566303,45.57073818
-172.24503371,128.52605279,161.48707446,-48.22486574,-103.22048315,-67.01438658
69.87294354,-149.90992693,-163.60878715,29.63341255,3.56541888,-3.43495981
41.32732851,-3.05248461,-0.53917527,-2.49637050

>  <Name>
1pbr

>  <RI>
0

>  <Rbt.Current_Directory>
/home/itssahil/PROJECTS/Mol_Feturizer/New_Systems/rnas/1pbr

>  <Rbt.Executable>
rbdock ($Id: //depot/dev/client3/rdock/2013.1/src/exe/rbdock.cxx#4 $)

>  <Rbt.Library>
libRbt.so (2013.1, Build901 2013/11/27)

>  <Rbt.Parameter_File>
/export/apps/rDock/src/rDock_2013.1_src/data/scripts/dock_solv.prm

>  <Rbt.Receptor>
prm/pocket_docking_5.prm

>  <SCORE>
-29.1559

>  <SCORE.INTER>
-32.9934

>  <SCORE.INTER.CONST>
1

>  <SCORE.INTER.POLAR>
-6.02824

>  <SCORE.INTER.ROT>
9

>  <SCORE.INTER.SOLV>
23.0638

>  <SCORE.INTER.VDW>
-19.1894

>  <SCORE.INTER.norm>
-0.785558

>  <SCORE.INTRA>
3.80205

>  <SCORE.INTRA.DIHEDRAL>
12.7098

>  <SCORE.INTRA.DIHEDRAL.0>
29.7866

>  <SCORE.INTRA.POLAR>
-0.558928

>  <SCORE.INTRA.POLAR.0>
-0.984091

>  <SCORE.INTRA.REPUL>
-0.274115

>  <SCORE.INTRA.REPUL.0>
0.274115

>  <SCORE.INTRA.SOLV>
1.60539

>  <SCORE.INTRA.SOLV.lig_0>
-152.978

>  <SCORE.INTRA.VDW>
-0.0846224

>  <SCORE.INTRA.VDW.0>
-6.10719

>  <SCORE.INTRA.norm>
0.0905251

>  <SCORE.RESTR>
0.0354955

>  <SCORE.RESTR.CAVITY>
0.0354955

>  <SCORE.RESTR.norm>
0.00084513

>  <SCORE.SYSTEM>
0

>  <SCORE.SYSTEM.CONST>
0

>  <SCORE.SYSTEM.DIHEDRAL>
0

>  <SCORE.SYSTEM.SOLV>
0

>  <SCORE.SYSTEM.norm>
0

>  <SCORE.heavy>
42

>  <SCORE.norm>
-0.694187

>  <RMSD>
5.062

$$$$
1pbr
 OpenBabel11021811403D
libRbt.so/2013.1/901 2013/11/27
 42 45  0  0  0  0  0  0  0  0999 V2000
    3.5159   -2.5034   45.0185 C   0  0  2  0  0  0  0  0  0  0  0  0
    2.6811   -1.8837   44.0074 O   0  0  0  0  0  0  0  0  0  0  0  0
    4.7637   -1.6003   45.3437 C   0  0  2  0  0  0  0  0  0  0  0  0
    4.4670   -0.1467   45.4289 N   0  3  0  0  0  0  0  0  0  0  0  0
    5.8674   -1.7534   44.2802 C   0  0  1  0  0  0  0  0  0  0  0  0
    7.0803   -1.1450   44.7183 O   0  0  0  0  0  0  0  0  0  0  0  0
    6.1249   -3.2339   43.9613 C   0  0  2  0  0  0  0  0  0  0  0  0
    7.1771   -3.3572   43.0096 O   0  0  0  0  0  0  0  0  0  0  0  0
    4.8247   -3.9285   43.4993 C   0  0  2  0  0  0  0  0  0  0  0  0
    3.8916   -3.8438   44.5973 O   0  0  0  0  0  0  0  0  0  0  0  0
    4.9950   -5.4037   43.1404 C   0  0  0  0  0  0  0  0  0  0  0  0
    5.3251   -6.1777   44.2861 O   0  0  0  0  0  0  0  0  0  0  0  0
   -0.4625   -4.7315   44.4720 C   0  0  1  0  0  0  0  0  0  0  0  0
   -1.7044   -5.5230   44.4000 N   0  3  0  0  0  0  0  0  0  0  0  0
    0.3748   -4.8260   43.1606 C   0  0  2  0  0  0  0  0  0  0  0  0
    0.7233   -6.1816   42.8894 O   0  0  0  0  0  0  0  0  0  0  0  0
    1.6858   -3.9932   43.2658 C   0  0  1  0  0  0  0  0  0  0  0  0
    2.3367   -3.9818   41.9607 O   0  0  0  0  0  0  0  0  0  0  0  0
    1.4133   -2.5230   43.7234 C   0  0  1  0  0  0  0  0  0  0  0  0
    0.5274   -2.4417   45.0077 C   0  0  1  0  0  0  0  0  0  0  0  0
    0.2043   -1.0410   45.3584 N   0  3  0  0  0  0  0  0  0  0  0  0
   -0.7835   -3.2484   44.8196 C   0  0  0  0  0  0  0  0  0  0  0  0
    1.5360   -4.1164   40.7431 C   0  0  1  0  0  0  0  0  0  0  0  0
    2.1910   -3.2810   39.6272 C   0  0  2  0  0  0  0  0  0  0  0  0
    1.2312   -2.8911   38.6490 O   0  0  0  0  0  0  0  0  0  0  0  0
    3.1775   -4.3285   39.0894 C   0  0  1  0  0  0  0  0  0  0  0  0
    2.3303   -5.5900   39.0642 C   0  0  2  0  0  0  0  0  0  0  0  0
    1.5798   -5.4718   40.2631 O   0  0  0  0  0  0  0  0  0  0  0  0
    3.1183   -6.9063   39.0558 C   0  0  0  0  0  0  0  0  0  0  0  0
    2.2333   -8.0030   38.8817 O   0  0  0  0  0  0  0  0  0  0  0  0
    6.5380   -0.7678   37.6926 C   0  0  1  0  0  0  0  0  0  0  0  0
    7.7001   -1.5832   37.8312 O   0  0  0  0  0  0  0  0  0  0  0  0
    5.8252   -1.1095   36.3544 C   0  0  2  0  0  0  0  0  0  0  0  0
    4.9077   -0.0620   36.0489 O   0  0  0  0  0  0  0  0  0  0  0  0
    5.0582   -2.4722   36.3328 C   0  0  1  0  0  0  0  0  0  0  0  0
    5.9825   -3.5775   35.9963 N   0  3  0  0  0  0  0  0  0  0  0  0
    4.2821   -2.7195   37.6531 C   0  0  1  0  0  0  0  0  0  0  0  0
    3.7317   -4.0543   37.7732 O   0  0  0  0  0  0  0  0  0  0  0  0
    5.5692   -1.0075   38.8778 C   0  0  1  0  0  0  0  0  0  0  0  0
    5.1222   -2.3893   38.8101 O   0  0  0  0  0  0  0  0  0  0  0  0
    6.1808   -0.6930   40.2559 C   0  0  0  0  0  0  0  0  0  0  0  0
    7.3669   -1.5191   40.5550 N   0  3  0  0  0  0  0  0  0  0  0  0
  1  2  1  6  0  0  0
  1  3  1  0  0  0  0
  1 10  1  0  0  0  0
  3  4  1  6  0  0  0
  3  5  1  0  0  0  0
  5  6  1  1  0  0  0
  5  7  1  0  0  0  0
  7  8  1  6  0  0  0
  7  9  1  0  0  0  0
  9 10  1  0  0  0  0
  9 11  1  1  0  0  0
 11 12  1  0  0  0  0
 13 14  1  6  0  0  0
 13 15  1  0  0  0  0
 13 22  1  0  0  0  0
 15 16  1  1  0  0  0
 15 17  1  0  0  0  0
 17 18  1  6  0  0  0
 17 19  1  0  0  0  0
 19  2  1  1  0  0  0
 19 20  1  0  0  0  0
 20 21  1  6  0  0  0
 20 22  1  0  0  0  0
 23 18  1  1  0  0  0
 23 24  1  0  0  0  0
 23 28  1  0  0  0  0
 24 25  1  6  0  0  0
 24 26  1  0  0  0  0
 26 27  1  0  0  0  0
 26 38  1  6  0  0  0
 27 28  1  0  0  0  0
 27 29  1  1  0  0  0
 29 30  1  0  0  0  0
 31 32  1  1  0  0  0
 31 33  1  0  0  0  0
 31 39  1  0  0  0  0
 33 34  1  1  0  0  0
 33 35  1  0  0  0  0
 35 36  1  1  0  0  0
 35 37  1  0  0  0  0
 37 38  1  1  0  0  0
 37 40  1  0  0  0  0
 39 40  1  0  0  0  0
 39 41  1  1  0  0  0
 41 42  1  0  0  0  0
M  CHG  5   4   1  14   1  21   1  36   1  42   1
M  END
>  <CHROM.1>
-172.77801593,-58.41372104,-16.99686832,-67.68382128,177.70154708,66.38406987
173.70913046,38.54587705,174.78741487,27.84031044,146.25437006,170.08429590
-59.58104465,50.62389060,-173.51818809,171.55742966,65.92247903,156.33062234
-66.50976841,171.66444434,-60.36982683,23.29786568,3.61694862,-3.25185633
41.41558929,-2.22355674,-0.60187767,-1.77684158

>  <Name>
1pbr

>  <RI>
0

>  <Rbt.Current_Directory>
/home/itssahil/PROJECTS/Mol_Feturizer/New_Systems/rnas/1pbr

>  <Rbt.Executable>
rbdock ($Id: //depot/dev/client3/rdock/2013.1/src/exe/rbdock.cxx#4 $)

>  <Rbt.Library>
libRbt.so (2013.1, Build901 2013/11/27)

>  <Rbt.Parameter_File>
/export/apps/rDock/src/rDock_2013.1_src/data/scripts/dock_solv.prm

>  <Rbt.Receptor>
prm/pocket_docking_5.prm

>  <SCORE>
-39.7971

>  <SCORE.INTER>
-32.3987

>  <SCORE.INTER.CONST>
1

>  <SCORE.INTER.POLAR>
-6.79944

>  <SCORE.INTER.ROT>
9

>  <SCORE.INTER.SOLV>
23.7906

>  <SCORE.INTER.VDW>
-16.4645

>  <SCORE.INTER.norm>
-0.771397

>  <SCORE.INTRA>
-7.47605

>  <SCORE.INTRA.DIHEDRAL>
-9.02265

>  <SCORE.INTRA.DIHEDRAL.0>
29.7866

>  <SCORE.INTRA.POLAR>
-2.2431

>  <SCORE.INTRA.POLAR.0>
-0.984091

>  <SCORE.INTRA.REPUL>
-0.26523

>  <SCORE.INTRA.REPUL.0>
0.274115

>  <SCORE.INTRA.SOLV>
2.70881

>  <SCORE.INTRA.SOLV.lig_0>
-152.978

>  <SCORE.INTRA.VDW>
4.63358

>  <SCORE.INTRA.VDW.0>
-6.10719

>  <SCORE.INTRA.norm>
-0.178001

>  <SCORE.RESTR>
0.0776809

>  <SCORE.RESTR.CAVITY>
0.0776809

>  <SCORE.RESTR.norm>
0.00184955

>  <SCORE.SYSTEM>
0

>  <SCORE.SYSTEM.CONST>
0

>  <SCORE.SYSTEM.DIHEDRAL>
0

>  <SCORE.SYSTEM.SOLV>
0

>  <SCORE.SYSTEM.norm>
0

>  <SCORE.heavy>
42

>  <SCORE.norm>
-0.947549

>  <RMSD>
5.068

$$$$
1pbr
 OpenBabel11021811403D
libRbt.so/2013.1/901 2013/11/27
 42 45  0  0  0  0  0  0  0  0999 V2000
    0.6880   -4.0231   41.9426 C   0  0  2  0  0  0  0  0  0  0  0  0
    1.5348   -4.0648   43.1192 O   0  0  0  0  0  0  0  0  0  0  0  0
   -0.8178   -4.2723   42.3281 C   0  0  2  0  0  0  0  0  0  0  0  0
   -1.2571   -3.5870   43.5713 N   0  3  0  0  0  0  0  0  0  0  0  0
   -1.1098   -5.7704   42.5354 C   0  0  1  0  0  0  0  0  0  0  0  0
   -2.5137   -6.0053   42.6207 O   0  0  0  0  0  0  0  0  0  0  0  0
   -0.5200   -6.6109   41.3929 C   0  0  2  0  0  0  0  0  0  0  0  0
   -0.8372   -7.9868   41.5787 O   0  0  0  0  0  0  0  0  0  0  0  0
    0.9997   -6.3664   41.2617 C   0  0  2  0  0  0  0  0  0  0  0  0
    1.1735   -4.9680   40.9492 O   0  0  0  0  0  0  0  0  0  0  0  0
    1.6732   -7.1813   40.1588 C   0  0  0  0  0  0  0  0  0  0  0  0
    1.0459   -6.9644   38.9019 O   0  0  0  0  0  0  0  0  0  0  0  0
    2.9016   -0.2088   44.3319 C   0  0  1  0  0  0  0  0  0  0  0  0
    3.6749    1.0066   44.6461 N   0  3  0  0  0  0  0  0  0  0  0  0
    2.7897   -0.4572   42.7972 C   0  0  2  0  0  0  0  0  0  0  0  0
    2.1604    0.6511   42.1582 O   0  0  0  0  0  0  0  0  0  0  0  0
    1.9589   -1.7376   42.4909 C   0  0  1  0  0  0  0  0  0  0  0  0
    2.0331   -2.0102   41.0601 O   0  0  0  0  0  0  0  0  0  0  0  0
    2.4798   -2.9803   43.2844 C   0  0  1  0  0  0  0  0  0  0  0  0
    2.6393   -2.7007   44.8132 C   0  0  1  0  0  0  0  0  0  0  0  0
    3.2267   -3.8602   45.5203 N   0  3  0  0  0  0  0  0  0  0  0  0
    3.5173   -1.4448   45.0506 C   0  0  0  0  0  0  0  0  0  0  0  0
    3.2474   -2.5943   40.4891 C   0  0  1  0  0  0  0  0  0  0  0  0
    3.2592   -2.3232   38.9730 C   0  0  2  0  0  0  0  0  0  0  0  0
    4.0369   -3.2987   38.2845 O   0  0  0  0  0  0  0  0  0  0  0  0
    3.9319   -0.9422   38.9803 C   0  0  1  0  0  0  0  0  0  0  0  0
    5.0448   -1.1281   39.9982 C   0  0  2  0  0  0  0  0  0  0  0  0
    4.4126   -1.9180   40.9937 O   0  0  0  0  0  0  0  0  0  0  0  0
    5.5914    0.1670   40.6128 C   0  0  0  0  0  0  0  0  0  0  0  0
    4.5248    0.9497   41.1285 O   0  0  0  0  0  0  0  0  0  0  0  0
    2.3442    2.7294   35.7674 C   0  0  1  0  0  0  0  0  0  0  0  0
    3.2589    3.7485   36.1666 O   0  0  0  0  0  0  0  0  0  0  0  0
    3.0727    1.7176   34.8394 C   0  0  2  0  0  0  0  0  0  0  0  0
    2.0915    0.9390   34.1585 O   0  0  0  0  0  0  0  0  0  0  0  0
    4.0730    0.7520   35.5554 C   0  0  1  0  0  0  0  0  0  0  0  0
    5.3950    1.3994   35.7051 N   0  3  0  0  0  0  0  0  0  0  0  0
    3.5062    0.2263   36.9005 C   0  0  1  0  0  0  0  0  0  0  0  0
    4.4701   -0.4971   37.7048 O   0  0  0  0  0  0  0  0  0  0  0  0
    1.7861    1.9917   37.0104 C   0  0  1  0  0  0  0  0  0  0  0  0
    2.8995    1.3230   37.6637 O   0  0  0  0  0  0  0  0  0  0  0  0
    1.0391    2.9094   37.9963 C   0  0  0  0  0  0  0  0  0  0  0  0
    0.3434    2.1579   39.0592 N   0  3  0  0  0  0  0  0  0  0  0  0
  1  2  1  1  0  0  0
  1  3  1  0  0  0  0
  1 10  1  0  0  0  0
  3  4  1  1  0  0  0
  3  5  1  0  0  0  0
  5  6  1  6  0  0  0
  5  7  1  0  0  0  0
  7  8  1  1  0  0  0
  7  9  1  0  0  0  0
  9 10  1  0  0  0  0
  9 11  1  6  0  0  0
 11 12  1  0  0  0  0
 13 14  1  6  0  0  0
 13 15  1  0  0  0  0
 13 22  1  0  0  0  0
 15 16  1  6  0  0  0
 15 17  1  0  0  0  0
 17 18  1  6  0  0  0
 17 19  1  0  0  0  0
 19  2  1  1  0  0  0
 19 20  1  0  0  0  0
 20 21  1  1  0  0  0
 20 22  1  0  0  0  0
 23 18  1  1  0  0  0
 23 24  1  0  0  0  0
 23 28  1  0  0  0  0
 24 25  1  6  0  0  0
 24 26  1  0  0  0  0
 26 27  1  0  0  0  0
 26 38  1  6  0  0  0
 27 28  1  0  0  0  0
 27 29  1  1  0  0  0
 29 30  1  0  0  0  0
 31 32  1  1  0  0  0
 31 33  1  0  0  0  0
 31 39  1  0  0  0  0
 33 34  1  1  0  0  0
 33 35  1  0  0  0  0
 35 36  1  1  0  0  0
 35 37  1  0  0  0  0
 37 38  1  1  0  0  0
 37 40  1  0  0  0  0
 39 40  1  0  0  0  0
 39 41  1  1  0  0  0
 41 42  1  0  0  0  0
M  CHG  5   4   1  14   1  21   1  36   1  42   1
M  END
>  <CHROM.1>
-131.66699559,23.72468218,55.45189693,-56.28061845,171.82155276,55.31200680
175.34250057,44.64568234,-56.29200284,76.07956155,-160.43382287,-155.15068398
73.12697596,88.93276552,52.23444612,-172.06110730,65.68967325,59.33262057
-75.75416178,178.05221670,171.21568974,79.39240291,2.26969367,-1.73544297
40.34222751,2.29863620,1.10484293,1.75818796

>  <Name>
1pbr

>  <RI>
0

>  <Rbt.Current_Directory>
/home/itssahil/PROJECTS/Mol_Feturizer/New_Systems/rnas/1pbr

>  <Rbt.Executable>
rbdock ($Id: //depot/dev/client3/rdock/2013.1/src/exe/rbdock.cxx#4 $)

>  <Rbt.Library>
libRbt.so (2013.1, Build901 2013/11/27)

>  <Rbt.Parameter_File>
/export/apps/rDock/src/rDock_2013.1_src/data/scripts/dock_solv.prm

>  <Rbt.Receptor>
prm/pocket_docking_3.prm

>  <SCORE>
-31.8736

>  <SCORE.INTER>
-34.937

>  <SCORE.INTER.CONST>
1

>  <SCORE.INTER.POLAR>
-6.0023

>  <SCORE.INTER.ROT>
9

>  <SCORE.INTER.SOLV>
29.531

>  <SCORE.INTER.VDW>
-22.7273

>  <SCORE.INTER.norm>
-0.831833

>  <SCORE.INTRA>
2.98902

>  <SCORE.INTRA.DIHEDRAL>
-5.38177

>  <SCORE.INTRA.DIHEDRAL.0>
29.7866

>  <SCORE.INTRA.POLAR>
0.881064

>  <SCORE.INTRA.POLAR.0>
-0.984091

>  <SCORE.INTRA.REPUL>
-0.274115

>  <SCORE.INTRA.REPUL.0>
0.274115

>  <SCORE.INTRA.SOLV>
-0.586343

>  <SCORE.INTRA.SOLV.lig_0>
-152.978

>  <SCORE.INTRA.VDW>
4.34804

>  <SCORE.INTRA.VDW.0>
-6.10719

>  <SCORE.INTRA.norm>
0.0711672

>  <SCORE.RESTR>
0.074391

>  <SCORE.RESTR.CAVITY>
0.074391

>  <SCORE.RESTR.norm>
0.00177121

>  <SCORE.SYSTEM>
0

>  <SCORE.SYSTEM.CONST>
0

>  <SCORE.SYSTEM.DIHEDRAL>
0

>  <SCORE.SYSTEM.SOLV>
0

>  <SCORE.SYSTEM.norm>
0

>  <SCORE.heavy>
42

>  <SCORE.norm>
-0.758895

>  <RMSD>
5.079

$$$$
1pbr
 OpenBabel11021811403D
libRbt.so/2013.1/901 2013/11/27
 42 45  0  0  0  0  0  0  0  0999 V2000
    3.5991   -2.4085   44.6738 C   0  0  2  0  0  0  0  0  0  0  0  0
    4.0107   -1.0381   44.4380 O   0  0  0  0  0  0  0  0  0  0  0  0
    4.7911   -3.4033   44.4135 C   0  0  2  0  0  0  0  0  0  0  0  0
    6.1065   -2.9355   44.9227 N   0  3  0  0  0  0  0  0  0  0  0  0
    4.9835   -3.6768   42.9098 C   0  0  1  0  0  0  0  0  0  0  0  0
    5.8782   -4.7679   42.7044 O   0  0  0  0  0  0  0  0  0  0  0  0
    3.6411   -3.9819   42.2283 C   0  0  2  0  0  0  0  0  0  0  0  0
    3.8439   -4.2747   40.8494 O   0  0  0  0  0  0  0  0  0  0  0  0
    2.6410   -2.8249   42.4467 C   0  0  2  0  0  0  0  0  0  0  0  0
    2.4273   -2.7191   43.8702 O   0  0  0  0  0  0  0  0  0  0  0  0
    1.2817   -3.0370   41.7823 C   0  0  0  0  0  0  0  0  0  0  0  0
    0.5632   -4.0937   42.4050 O   0  0  0  0  0  0  0  0  0  0  0  0
    0.7361    0.6159   46.6172 C   0  0  1  0  0  0  0  0  0  0  0  0
   -0.2556    1.4832   47.2791 N   0  3  0  0  0  0  0  0  0  0  0  0
    0.6544    0.7047   45.0631 C   0  0  2  0  0  0  0  0  0  0  0  0
   -0.6436    0.3264   44.6106 O   0  0  0  0  0  0  0  0  0  0  0  0
    1.7015   -0.2286   44.3878 C   0  0  1  0  0  0  0  0  0  0  0  0
    1.6930    0.0240   42.9514 O   0  0  0  0  0  0  0  0  0  0  0  0
    3.1431    0.0030   44.9476 C   0  0  1  0  0  0  0  0  0  0  0  0
    3.2010   -0.0342   46.5084 C   0  0  1  0  0  0  0  0  0  0  0  0
    4.5554    0.2862   47.0107 N   0  3  0  0  0  0  0  0  0  0  0  0
    2.1713    0.9525   47.1174 C   0  0  0  0  0  0  0  0  0  0  0  0
    2.2897    1.2506   42.4211 C   0  0  1  0  0  0  0  0  0  0  0  0
    3.7804    0.9902   42.1349 C   0  0  2  0  0  0  0  0  0  0  0  0
    4.5300    2.2010   42.1825 O   0  0  0  0  0  0  0  0  0  0  0  0
    3.6588    0.4369   40.7071 C   0  0  1  0  0  0  0  0  0  0  0  0
    2.6423    1.3766   40.0799 C   0  0  2  0  0  0  0  0  0  0  0  0
    1.7187    1.5710   41.1401 O   0  0  0  0  0  0  0  0  0  0  0  0
    1.9235    0.8286   38.8403 C   0  0  0  0  0  0  0  0  0  0  0  0
    0.9695    1.7711   38.3737 O   0  0  0  0  0  0  0  0  0  0  0  0
    5.5502   -0.6308   35.7913 C   0  0  1  0  0  0  0  0  0  0  0  0
    6.7956    0.0556   35.6785 O   0  0  0  0  0  0  0  0  0  0  0  0
    5.6861   -1.7775   36.8316 C   0  0  2  0  0  0  0  0  0  0  0  0
    4.5878   -2.6715   36.6672 O   0  0  0  0  0  0  0  0  0  0  0  0
    5.7445   -1.3222   38.3266 C   0  0  1  0  0  0  0  0  0  0  0  0
    7.1305   -0.9651   38.7018 N   0  3  0  0  0  0  0  0  0  0  0  0
    4.7303   -0.1868   38.6251 C   0  0  1  0  0  0  0  0  0  0  0  0
    4.8890    0.4181   39.9320 O   0  0  0  0  0  0  0  0  0  0  0  0
    4.4350    0.3491   36.2348 C   0  0  1  0  0  0  0  0  0  0  0  0
    4.7717    0.8279   37.5657 O   0  0  0  0  0  0  0  0  0  0  0  0
    4.2172    1.5254   35.2648 C   0  0  0  0  0  0  0  0  0  0  0  0
    3.4265    2.6188   35.8631 N   0  3  0  0  0  0  0  0  0  0  0  0
  1  2  1  6  0  0  0
  1  3  1  0  0  0  0
  1 10  1  0  0  0  0
  3  4  1  6  0  0  0
  3  5  1  0  0  0  0
  5  6  1  1  0  0  0
  5  7  1  0  0  0  0
  7  8  1  6  0  0  0
  7  9  1  0  0  0  0
  9 10  1  0  0  0  0
  9 11  1  6  0  0  0
 11 12  1  0  0  0  0
 13 14  1  1  0  0  0
 13 15  1  0  0  0  0
 13 22  1  0  0  0  0
 15 16  1  6  0  0  0
 15 17  1  0  0  0  0
 17 18  1  6  0  0  0
 17 19  1  0  0  0  0
 19  2  1  6  0  0  0
 19 20  1  0  0  0  0
 20 21  1  6  0  0  0
 20 22  1  0  0  0  0
 23 18  1  6  0  0  0
 23 24  1  0  0  0  0
 23 28  1  0  0  0  0
 24 25  1  6  0  0  0
 24 26  1  0  0  0  0
 26 27  1  0  0  0  0
 26 38  1  6  0  0  0
 27 28  1  0  0  0  0
 27 29  1  6  0  0  0
 29 30  1  0  0  0  0
 31 32  1  1  0  0  0
 31 33  1  0  0  0  0
 31 39  1  0  0  0  0
 33 34  1  1  0  0  0
 33 35  1  0  0  0  0
 35 36  1  6  0  0  0
 35 37  1  0  0  0  0
 37 38  1  1  0  0  0
 37 40  1  0  0  0  0
 39 40  1  0  0  0  0
 39 41  1  6  0  0  0
 41 42  1  0  0  0  0
M  CHG  5   4   1  14   1  21   1  36   1  42   1
M  END
>  <CHROM.1>
-165.08764579,-54.72522646,178.72725962,60.54706487,-178.92861122,68.14799240
-62.23308007,168.82951517,-56.64368789,73.67772116,89.16494761,-51.07727465
-52.70397077,176.51351302,177.93736925,63.33394951,162.15465694,68.91256224
-149.79418220,-126.95576581,-164.75052667,171.55658406,3.44132479,-0.62541300
41.53698210,-2.09084443,0.93925489,-1.06873283

>  <Name>
1pbr

>  <RI>
0

>  <Rbt.Current_Directory>
/home/itssahil/PROJECTS/Mol_Feturizer/New_Systems/rnas/1pbr

>  <Rbt.Executable>
rbdock ($Id: //depot/dev/client3/rdock/2013.1/src/exe/rbdock.cxx#4 $)

>  <Rbt.Library>
libRbt.so (2013.1, Build901 2013/11/27)

>  <Rbt.Parameter_File>
/export/apps/rDock/src/rDock_2013.1_src/data/scripts/dock_solv.prm

>  <Rbt.Receptor>
prm/pocket_docking_6.prm

>  <SCORE>
-42.5213

>  <SCORE.INTER>
-40.4637

>  <SCORE.INTER.CONST>
1

>  <SCORE.INTER.POLAR>
-5.13767

>  <SCORE.INTER.ROT>
9

>  <SCORE.INTER.SOLV>
27.1528

>  <SCORE.INTER.VDW>
-28.5012

>  <SCORE.INTER.norm>
-0.963422

>  <SCORE.INTRA>
-2.05756

>  <SCORE.INTRA.DIHEDRAL>
-10.8728

>  <SCORE.INTRA.DIHEDRAL.0>
29.7866

>  <SCORE.INTRA.POLAR>
0.967488

>  <SCORE.INTRA.POLAR.0>
-0.984091

>  <SCORE.INTRA.REPUL>
-0.274115

>  <SCORE.INTRA.REPUL.0>
0.274115

>  <SCORE.INTRA.SOLV>
-0.92066

>  <SCORE.INTRA.SOLV.lig_0>
-152.978

>  <SCORE.INTRA.VDW>
1.9203

>  <SCORE.INTRA.VDW.0>
-6.10719

>  <SCORE.INTRA.norm>
-0.0489895

>  <SCORE.RESTR>
0

>  <SCORE.RESTR.CAVITY>
0

>  <SCORE.RESTR.norm>
0

>  <SCORE.SYSTEM>
0

>  <SCORE.SYSTEM.CONST>
0

>  <SCORE.SYSTEM.DIHEDRAL>
0

>  <SCORE.SYSTEM.SOLV>
0

>  <SCORE.SYSTEM.norm>
0

>  <SCORE.heavy>
42

>  <SCORE.norm>
-1.01241

>  <RMSD>
5.084

$$$$
1pbr
 OpenBabel11021811403D
libRbt.so/2013.1/901 2013/11/27
 42 45  0  0  0  0  0  0  0  0999 V2000
    1.9737   -4.2864   42.6750 C   0  0  2  0  0  0  0  0  0  0  0  0
    0.6725   -3.8906   43.1783 O   0  0  0  0  0  0  0  0  0  0  0  0
    1.8427   -5.4956   41.6755 C   0  0  2  0  0  0  0  0  0  0  0  0
    0.6933   -5.3987   40.7385 N   0  3  0  0  0  0  0  0  0  0  0  0
    1.6790   -6.8331   42.4217 C   0  0  1  0  0  0  0  0  0  0  0  0
    1.8270   -7.9333   41.5267 O   0  0  0  0  0  0  0  0  0  0  0  0
    2.7032   -6.9591   43.5596 C   0  0  2  0  0  0  0  0  0  0  0  0
    2.5655   -8.2190   44.2092 O   0  0  0  0  0  0  0  0  0  0  0  0
    2.5811   -5.7714   44.5398 C   0  0  2  0  0  0  0  0  0  0  0  0
    2.8677   -4.5746   43.7855 O   0  0  0  0  0  0  0  0  0  0  0  0
    3.5524   -5.8279   45.7177 C   0  0  0  0  0  0  0  0  0  0  0  0
    3.3750   -4.7160   46.5854 O   0  0  0  0  0  0  0  0  0  0  0  0
   -0.6206   -0.4800   45.3926 C   0  0  1  0  0  0  0  0  0  0  0  0
   -0.8536    0.5782   46.3926 N   0  3  0  0  0  0  0  0  0  0  0  0
    0.8140   -0.4140   44.7865 C   0  0  2  0  0  0  0  0  0  0  0  0
    1.0324    0.8485   44.1611 O   0  0  0  0  0  0  0  0  0  0  0  0
    1.0312   -1.5321   43.7253 C   0  0  1  0  0  0  0  0  0  0  0  0
    2.4329   -1.5263   43.3225 O   0  0  0  0  0  0  0  0  0  0  0  0
    0.6546   -2.9464   44.2759 C   0  0  1  0  0  0  0  0  0  0  0  0
   -0.7638   -2.9850   44.9296 C   0  0  1  0  0  0  0  0  0  0  0  0
   -1.0514   -4.3070   45.5287 N   0  3  0  0  0  0  0  0  0  0  0  0
   -0.8977   -1.8816   46.0108 C   0  0  0  0  0  0  0  0  0  0  0  0
    3.0935   -0.2629   42.9918 C   0  0  1  0  0  0  0  0  0  0  0  0
    4.5269   -0.5655   42.5167 C   0  0  2  0  0  0  0  0  0  0  0  0
    5.3842    0.5521   42.7317 O   0  0  0  0  0  0  0  0  0  0  0  0
    4.2418   -0.8018   41.0258 C   0  0  1  0  0  0  0  0  0  0  0  0
    3.2674    0.3180   40.6998 C   0  0  2  0  0  0  0  0  0  0  0  0
    2.4530    0.3553   41.8618 O   0  0  0  0  0  0  0  0  0  0  0  0
    2.4050    0.0909   39.4514 C   0  0  0  0  0  0  0  0  0  0  0  0
    1.3599   -0.8256   39.7411 O   0  0  0  0  0  0  0  0  0  0  0  0
    5.5250   -0.3096   35.8490 C   0  0  1  0  0  0  0  0  0  0  0  0
    6.7961    0.3370   35.8196 O   0  0  0  0  0  0  0  0  0  0  0  0
    5.6923   -1.7500   36.4082 C   0  0  2  0  0  0  0  0  0  0  0  0
    4.5217   -2.4990   36.0897 O   0  0  0  0  0  0  0  0  0  0  0  0
    5.9470   -1.8454   37.9482 C   0  0  1  0  0  0  0  0  0  0  0  0
    7.3876   -1.6813   38.2425 N   0  3  0  0  0  0  0  0  0  0  0  0
    5.0552   -0.8562   38.7439 C   0  0  1  0  0  0  0  0  0  0  0  0
    5.3993   -0.7489   40.1472 O   0  0  0  0  0  0  0  0  0  0  0  0
    4.5380    0.4864   36.7395 C   0  0  1  0  0  0  0  0  0  0  0  0
    5.0521    0.4620   38.0992 O   0  0  0  0  0  0  0  0  0  0  0  0
    4.2992    1.9325   36.2664 C   0  0  0  0  0  0  0  0  0  0  0  0
    3.7074    2.0001   34.9159 N   0  3  0  0  0  0  0  0  0  0  0  0
  1  2  1  1  0  0  0
  1  3  1  0  0  0  0
  1 10  1  0  0  0  0
  3  4  1  6  0  0  0
  3  5  1  0  0  0  0
  5  6  1  6  0  0  0
  5  7  1  0  0  0  0
  7  8  1  1  0  0  0
  7  9  1  0  0  0  0
  9 10  1  0  0  0  0
  9 11  1  1  0  0  0
 11 12  1  0  0  0  0
 13 14  1  1  0  0  0
 13 15  1  0  0  0  0
 13 22  1  0  0  0  0
 15 16  1  6  0  0  0
 15 17  1  0  0  0  0
 17 18  1  1  0  0  0
 17 19  1  0  0  0  0
 19  2  1  6  0  0  0
 19 20  1  0  0  0  0
 20 21  1  1  0  0  0
 20 22  1  0  0  0  0
 23 18  1  6  0  0  0
 23 24  1  0  0  0  0
 23 28  1  0  0  0  0
 24 25  1  6  0  0  0
 24 26  1  0  0  0  0
 26 27  1  0  0  0  0
 26 38  1  6  0  0  0
 27 28  1  0  0  0  0
 27 29  1  6  0  0  0
 29 30  1  0  0  0  0
 31 32  1  1  0  0  0
 31 33  1  0  0  0  0
 31 39  1  0  0  0  0
 33 34  1  1  0  0  0
 33 35  1  0  0  0  0
 35 36  1  6  0  0  0
 35 37  1  0  0  0  0
 37 38  1  1  0  0  0
 37 40  1  0  0  0  0
 39 40  1  0  0  0  0
 39 41  1  6  0  0  0
 41 42  1  0  0  0  0
M  CHG  5   4   1  14   1  21   1  36   1  42   1
M  END
>  <CHROM.1>
169.76436851,73.77856347,61.15311075,-162.14340814,61.06358874,-179.30485493
-179.89039479,62.37146102,74.48318445,-46.72097317,-176.33226391,-149.79256540
72.14516776,-174.66738601,76.82827137,80.23006621,61.97554304,-62.18333817
72.16290218,-134.06402685,61.45214576,-57.57830687,2.83221412,-2.15011660
41.54541255,-2.51802898,1.02157011,-0.20115628

>  <Name>
1pbr

>  <RI>
0

>  <Rbt.Current_Directory>
/home/itssahil/PROJECTS/Mol_Feturizer/New_Systems/rnas/1pbr

>  <Rbt.Executable>
rbdock ($Id: //depot/dev/client3/rdock/2013.1/src/exe/rbdock.cxx#4 $)

>  <Rbt.Library>
libRbt.so (2013.1, Build901 2013/11/27)

>  <Rbt.Parameter_File>
/export/apps/rDock/src/rDock_2013.1_src/data/scripts/dock_solv.prm

>  <Rbt.Receptor>
prm/pocket_docking_5.prm

>  <SCORE>
-38.5569

>  <SCORE.INTER>
-35.9008

>  <SCORE.INTER.CONST>
1

>  <SCORE.INTER.POLAR>
-6.00935

>  <SCORE.INTER.ROT>
9

>  <SCORE.INTER.SOLV>
25.1914

>  <SCORE.INTER.VDW>
-21.8999

>  <SCORE.INTER.norm>
-0.854782

>  <SCORE.INTRA>
-2.65609

>  <SCORE.INTRA.DIHEDRAL>
-12.2308

>  <SCORE.INTRA.DIHEDRAL.0>
29.7866

>  <SCORE.INTRA.POLAR>
0.981074

>  <SCORE.INTRA.POLAR.0>
-0.984091

>  <SCORE.INTRA.REPUL>
-0.202344

>  <SCORE.INTRA.REPUL.0>
0.274115

>  <SCORE.INTRA.SOLV>
-3.91856

>  <SCORE.INTRA.SOLV.lig_0>
-152.978

>  <SCORE.INTRA.VDW>
3.09465

>  <SCORE.INTRA.VDW.0>
-6.10719

>  <SCORE.INTRA.norm>
-0.0632402

>  <SCORE.RESTR>
0

>  <SCORE.RESTR.CAVITY>
0

>  <SCORE.RESTR.norm>
0

>  <SCORE.SYSTEM>
0

>  <SCORE.SYSTEM.CONST>
0

>  <SCORE.SYSTEM.DIHEDRAL>
0

>  <SCORE.SYSTEM.SOLV>
0

>  <SCORE.SYSTEM.norm>
0

>  <SCORE.heavy>
42

>  <SCORE.norm>
-0.918022

>  <RMSD>
5.095

$$$$
1pbr
 OpenBabel11021811403D
libRbt.so/2013.1/901 2013/11/27
 42 45  0  0  0  0  0  0  0  0999 V2000
    3.8323   -6.2868   42.1294 C   0  0  2  0  0  0  0  0  0  0  0  0
    3.6852   -5.0578   42.8851 O   0  0  0  0  0  0  0  0  0  0  0  0
    5.3158   -6.4639   41.6330 C   0  0  2  0  0  0  0  0  0  0  0  0
    6.3491   -6.0911   42.6338 N   0  3  0  0  0  0  0  0  0  0  0  0
    5.6006   -5.6122   40.3816 C   0  0  1  0  0  0  0  0  0  0  0  0
    6.8466   -5.9786   39.7929 O   0  0  0  0  0  0  0  0  0  0  0  0
    4.4799   -5.7664   39.3423 C   0  0  2  0  0  0  0  0  0  0  0  0
    4.7816   -5.0070   38.1759 O   0  0  0  0  0  0  0  0  0  0  0  0
    3.1113   -5.3931   39.9538 C   0  0  2  0  0  0  0  0  0  0  0  0
    2.8714   -6.3153   41.0380 O   0  0  0  0  0  0  0  0  0  0  0  0
    1.9392   -5.4986   38.9796 C   0  0  0  0  0  0  0  0  0  0  0  0
    0.8607   -4.6633   39.3790 O   0  0  0  0  0  0  0  0  0  0  0  0
   -0.4694   -5.3505   43.8132 C   0  0  1  0  0  0  0  0  0  0  0  0
   -1.8033   -5.3494   44.4415 N   0  3  0  0  0  0  0  0  0  0  0  0
    0.1087   -3.9119   43.6527 C   0  0  2  0  0  0  0  0  0  0  0  0
   -0.7609   -3.1122   42.8548 O   0  0  0  0  0  0  0  0  0  0  0  0
    1.5106   -3.9383   42.9762 C   0  0  1  0  0  0  0  0  0  0  0  0
    2.0691   -2.5915   43.0086 O   0  0  0  0  0  0  0  0  0  0  0  0
    2.4904   -4.9246   43.6921 C   0  0  1  0  0  0  0  0  0  0  0  0
    1.8778   -6.3473   43.8955 C   0  0  1  0  0  0  0  0  0  0  0  0
    2.7875   -7.2272   44.6621 N   0  3  0  0  0  0  0  0  0  0  0  0
    0.5090   -6.2550   44.6182 C   0  0  0  0  0  0  0  0  0  0  0  0
    3.4953   -2.3974   43.2736 C   0  0  1  0  0  0  0  0  0  0  0  0
    4.2767   -2.6389   41.9685 C   0  0  2  0  0  0  0  0  0  0  0  0
    5.6176   -3.0367   42.2407 O   0  0  0  0  0  0  0  0  0  0  0  0
    4.1986   -1.2239   41.3755 C   0  0  1  0  0  0  0  0  0  0  0  0
    4.4705   -0.3482   42.5874 C   0  0  2  0  0  0  0  0  0  0  0  0
    3.7586   -1.0243   43.6125 O   0  0  0  0  0  0  0  0  0  0  0  0
    3.9842    1.1020   42.4680 C   0  0  0  0  0  0  0  0  0  0  0  0
    2.5734    1.1315   42.3103 O   0  0  0  0  0  0  0  0  0  0  0  0
    4.1154   -0.3391   36.1534 C   0  0  1  0  0  0  0  0  0  0  0  0
    4.9041    0.8382   35.9898 O   0  0  0  0  0  0  0  0  0  0  0  0
    5.0455   -1.5417   36.4764 C   0  0  2  0  0  0  0  0  0  0  0  0
    4.3150   -2.7484   36.2694 O   0  0  0  0  0  0  0  0  0  0  0  0
    5.6433   -1.5571   37.9215 C   0  0  1  0  0  0  0  0  0  0  0  0
    6.8707   -0.7330   37.9792 N   0  3  0  0  0  0  0  0  0  0  0  0
    4.5927   -1.1448   38.9859 C   0  0  1  0  0  0  0  0  0  0  0  0
    5.1441   -0.9349   40.3092 O   0  0  0  0  0  0  0  0  0  0  0  0
    3.0927   -0.1453   37.3011 C   0  0  1  0  0  0  0  0  0  0  0  0
    3.8417    0.0323   38.5345 O   0  0  0  0  0  0  0  0  0  0  0  0
    2.1172    1.0250   37.0753 C   0  0  0  0  0  0  0  0  0  0  0  0
    2.7869    2.3399   37.1090 N   0  3  0  0  0  0  0  0  0  0  0  0
  1  2  1  6  0  0  0
  1  3  1  0  0  0  0
  1 10  1  0  0  0  0
  3  4  1  1  0  0  0
  3  5  1  0  0  0  0
  5  6  1  6  0  0  0
  5  7  1  0  0  0  0
  7  8  1  6  0  0  0
  7  9  1  0  0  0  0
  9 10  1  0  0  0  0
  9 11  1  6  0  0  0
 11 12  1  0  0  0  0
 13 14  1  1  0  0  0
 13 15  1  0  0  0  0
 13 22  1  0  0  0  0
 15 16  1  6  0  0  0
 15 17  1  0  0  0  0
 17 18  1  1  0  0  0
 17 19  1  0  0  0  0
 19  2  1  6  0  0  0
 19 20  1  0  0  0  0
 20 21  1  1  0  0  0
 20 22  1  0  0  0  0
 23 18  1  6  0  0  0
 23 24  1  0  0  0  0
 23 28  1  0  0  0  0
 24 25  1  1  0  0  0
 24 26  1  0  0  0  0
 26 27  1  0  0  0  0
 26 38  1  6  0  0  0
 27 28  1  0  0  0  0
 27 29  1  6  0  0  0
 29 30  1  0  0  0  0
 31 32  1  1  0  0  0
 31 33  1  0  0  0  0
 31 39  1  0  0  0  0
 33 34  1  1  0  0  0
 33 35  1  0  0  0  0
 35 36  1  6  0  0  0
 35 37  1  0  0  0  0
 37 38  1  1  0  0  0
 37 40  1  0  0  0  0
 39 40  1  0  0  0  0
 39 41  1  6  0  0  0
 41 42  1  0  0  0  0
M  CHG  5   4   1  14   1  21   1  36   1  42   1
M  END
>  <CHROM.1>
-164.38988049,-104.73145931,-67.67531230,179.19119824,-64.24229195,-156.04659016
163.16453559,173.11484241,60.19072100,140.89489984,80.93521472,-165.20431308
179.97746061,94.70990257,61.87821687,159.57071504,67.40299477,57.78841883
-39.15326779,-150.44303943,-67.16355849,-77.61418585,3.41101123,-3.07863546
40.78364483,-2.05167609,0.81469224,-0.46309328

>  <Name>
1pbr

>  <RI>
0

>  <Rbt.Current_Directory>
/home/itssahil/PROJECTS/Mol_Feturizer/New_Systems/rnas/1pbr

>  <Rbt.Executable>
rbdock ($Id: //depot/dev/client3/rdock/2013.1/src/exe/rbdock.cxx#4 $)

>  <Rbt.Library>
libRbt.so (2013.1, Build901 2013/11/27)

>  <Rbt.Parameter_File>
/export/apps/rDock/src/rDock_2013.1_src/data/scripts/dock_solv.prm

>  <Rbt.Receptor>
prm/pocket_docking_5.prm

>  <SCORE>
-22.5437

>  <SCORE.INTER>
-25.1804

>  <SCORE.INTER.CONST>
1

>  <SCORE.INTER.POLAR>
-4.92009

>  <SCORE.INTER.ROT>
9

>  <SCORE.INTER.SOLV>
11.2449

>  <SCORE.INTER.VDW>
-13.7349

>  <SCORE.INTER.norm>
-0.599533

>  <SCORE.INTRA>
2.63671

>  <SCORE.INTRA.DIHEDRAL>
1.30034

>  <SCORE.INTRA.DIHEDRAL.0>
29.7866

>  <SCORE.INTRA.POLAR>
-0.699922

>  <SCORE.INTRA.POLAR.0>
-0.984091

>  <SCORE.INTRA.REPUL>
-0.148101

>  <SCORE.INTRA.REPUL.0>
0.274115

>  <SCORE.INTRA.SOLV>
3.68521

>  <SCORE.INTRA.SOLV.lig_0>
-152.978

>  <SCORE.INTRA.VDW>
3.26418

>  <SCORE.INTRA.VDW.0>
-6.10719

>  <SCORE.INTRA.norm>
0.0627788

>  <SCORE.RESTR>
0

>  <SCORE.RESTR.CAVITY>
0

>  <SCORE.RESTR.norm>
0

>  <SCORE.SYSTEM>
0

>  <SCORE.SYSTEM.CONST>
0

>  <SCORE.SYSTEM.DIHEDRAL>
0

>  <SCORE.SYSTEM.SOLV>
0

>  <SCORE.SYSTEM.norm>
0

>  <SCORE.heavy>
42

>  <SCORE.norm>
-0.536754

>  <RMSD>
5.096

$$$$
1pbr
 OpenBabel11021811403D
libRbt.so/2013.1/901 2013/11/27
 42 45  0  0  0  0  0  0  0  0999 V2000
    3.1669   -4.7341   43.9490 C   0  0  2  0  0  0  0  0  0  0  0  0
    4.5294   -4.2510   44.0654 O   0  0  0  0  0  0  0  0  0  0  0  0
    3.0776   -5.9098   42.9059 C   0  0  2  0  0  0  0  0  0  0  0  0
    4.1968   -6.8848   42.9790 N   0  3  0  0  0  0  0  0  0  0  0  0
    3.0581   -5.3837   41.4584 C   0  0  1  0  0  0  0  0  0  0  0  0
    2.7133   -6.4241   40.5463 O   0  0  0  0  0  0  0  0  0  0  0  0
    2.0647   -4.2218   41.3069 C   0  0  2  0  0  0  0  0  0  0  0  0
    2.0283   -3.7778   39.9542 O   0  0  0  0  0  0  0  0  0  0  0  0
    2.4000   -3.0826   42.2949 C   0  0  2  0  0  0  0  0  0  0  0  0
    2.2763   -3.6311   43.6243 O   0  0  0  0  0  0  0  0  0  0  0  0
    1.4709   -1.8738   42.1972 C   0  0  0  0  0  0  0  0  0  0  0  0
    0.1768   -2.1768   42.7014 O   0  0  0  0  0  0  0  0  0  0  0  0
    3.5694   -0.9235   46.5581 C   0  0  1  0  0  0  0  0  0  0  0  0
    3.5547    0.1824   47.5332 N   0  3  0  0  0  0  0  0  0  0  0  0
    4.5305   -0.6442   45.3631 C   0  0  2  0  0  0  0  0  0  0  0  0
    4.1447    0.5475   44.6822 O   0  0  0  0  0  0  0  0  0  0  0  0
    4.5190   -1.8192   44.3419 C   0  0  1  0  0  0  0  0  0  0  0  0
    5.5551   -1.5795   43.3440 O   0  0  0  0  0  0  0  0  0  0  0  0
    4.7710   -3.1999   45.0315 C   0  0  1  0  0  0  0  0  0  0  0  0
    3.8383   -3.4433   46.2609 C   0  0  1  0  0  0  0  0  0  0  0  0
    4.1668   -4.7102   46.9512 N   0  3  0  0  0  0  0  0  0  0  0  0
    3.9343   -2.2631   47.2621 C   0  0  0  0  0  0  0  0  0  0  0  0
    5.8704   -2.6111   42.3549 C   0  0  1  0  0  0  0  0  0  0  0  0
    5.0455   -2.3426   41.0822 C   0  0  2  0  0  0  0  0  0  0  0  0
    4.8431   -3.5423   40.3407 O   0  0  0  0  0  0  0  0  0  0  0  0
    6.0049   -1.3750   40.3729 C   0  0  1  0  0  0  0  0  0  0  0  0
    7.3563   -2.0321   40.6004 C   0  0  2  0  0  0  0  0  0  0  0  0
    7.2420   -2.4993   41.9358 O   0  0  0  0  0  0  0  0  0  0  0  0
    8.5673   -1.1003   40.4633 C   0  0  0  0  0  0  0  0  0  0  0  0
    8.5946   -0.5245   39.1656 O   0  0  0  0  0  0  0  0  0  0  0  0
    2.4398    0.6030   36.8360 C   0  0  1  0  0  0  0  0  0  0  0  0
    2.8421    0.1415   35.5476 O   0  0  0  0  0  0  0  0  0  0  0  0
    2.1165   -0.6172   37.7427 C   0  0  2  0  0  0  0  0  0  0  0  0
    1.3739   -0.1600   38.8706 O   0  0  0  0  0  0  0  0  0  0  0  0
    3.3575   -1.4222   38.2503 C   0  0  1  0  0  0  0  0  0  0  0  0
    3.7710   -2.4211   37.2402 N   0  3  0  0  0  0  0  0  0  0  0  0
    4.5179   -0.4859   38.6788 C   0  0  1  0  0  0  0  0  0  0  0  0
    5.7622   -1.1754   38.9530 O   0  0  0  0  0  0  0  0  0  0  0  0
    3.5669    1.4493   37.4795 C   0  0  1  0  0  0  0  0  0  0  0  0
    4.7114    0.5767   37.6854 O   0  0  0  0  0  0  0  0  0  0  0  0
    3.9610    2.6904   36.6570 C   0  0  0  0  0  0  0  0  0  0  0  0
    5.1646    3.3639   37.1826 N   0  3  0  0  0  0  0  0  0  0  0  0
  1  2  1  6  0  0  0
  1  3  1  0  0  0  0
  1 10  1  0  0  0  0
  3  4  1  6  0  0  0
  3  5  1  0  0  0  0
  5  6  1  6  0  0  0
  5  7  1  0  0  0  0
  7  8  1  6  0  0  0
  7  9  1  0  0  0  0
  9 10  1  0  0  0  0
  9 11  1  1  0  0  0
 11 12  1  0  0  0  0
 13 14  1  1  0  0  0
 13 15  1  0  0  0  0
 13 22  1  0  0  0  0
 15 16  1  6  0  0  0
 15 17  1  0  0  0  0
 17 18  1  6  0  0  0
 17 19  1  0  0  0  0
 19  2  1  6  0  0  0
 19 20  1  0  0  0  0
 20 21  1  1  0  0  0
 20 22  1  0  0  0  0
 23 18  1  1  0  0  0
 23 24  1  0  0  0  0
 23 28  1  0  0  0  0
 24 25  1  6  0  0  0
 24 26  1  0  0  0  0
 26 27  1  0  0  0  0
 26 38  1  6  0  0  0
 27 28  1  0  0  0  0
 27 29  1  1  0  0  0
 29 30  1  0  0  0  0
 31 32  1  6  0  0  0
 31 33  1  0  0  0  0
 31 39  1  0  0  0  0
 33 34  1  1  0  0  0
 33 35  1  0  0  0  0
 35 36  1  6  0  0  0
 35 37  1  0  0  0  0
 37 38  1  6  0  0  0
 37 40  1  0  0  0  0
 39 40  1  0  0  0  0
 39 41  1  6  0  0  0
 41 42  1  0  0  0  0
M  CHG  5   4   1  14   1  21   1  36   1  42   1
M  END
>  <CHROM.1>
-177.67777198,-87.46640154,-59.81823618,60.92380648,173.91211356,70.99765751
178.08971120,-70.37930891,144.94638153,172.65426187,93.74405158,66.44112162
162.43627901,67.31208574,-58.71923992,62.80277223,61.16585704,-60.93680609
172.66336063,-100.38445111,-171.40898948,35.25086982,4.06203931,-1.98751096
41.46182274,1.66024695,1.02476231,1.94386904

>  <Name>
1pbr

>  <RI>
0

>  <Rbt.Current_Directory>
/home/itssahil/PROJECTS/Mol_Feturizer/New_Systems/rnas/1pbr

>  <Rbt.Executable>
rbdock ($Id: //depot/dev/client3/rdock/2013.1/src/exe/rbdock.cxx#4 $)

>  <Rbt.Library>
libRbt.so (2013.1, Build901 2013/11/27)

>  <Rbt.Parameter_File>
/export/apps/rDock/src/rDock_2013.1_src/data/scripts/dock_solv.prm

>  <Rbt.Receptor>
prm/pocket_docking_8.prm

>  <SCORE>
-29.6014

>  <SCORE.INTER>
-25.6903

>  <SCORE.INTER.CONST>
1

>  <SCORE.INTER.POLAR>
-4.75359

>  <SCORE.INTER.ROT>
9

>  <SCORE.INTER.SOLV>
25.9367

>  <SCORE.INTER.VDW>
-19.5271

>  <SCORE.INTER.norm>
-0.611673

>  <SCORE.INTRA>
-3.91114

>  <SCORE.INTRA.DIHEDRAL>
-6.97422

>  <SCORE.INTRA.DIHEDRAL.0>
29.7866

>  <SCORE.INTRA.POLAR>
0.173341

>  <SCORE.INTRA.POLAR.0>
-0.984091

>  <SCORE.INTRA.REPUL>
-0.274115

>  <SCORE.INTRA.REPUL.0>
0.274115

>  <SCORE.INTRA.SOLV>
1.41593

>  <SCORE.INTRA.SOLV.lig_0>
-152.978

>  <SCORE.INTRA.VDW>
-0.35078

>  <SCORE.INTRA.VDW.0>
-6.10719

>  <SCORE.INTRA.norm>
-0.0931223

>  <SCORE.RESTR>
0

>  <SCORE.RESTR.CAVITY>
0

>  <SCORE.RESTR.norm>
0

>  <SCORE.SYSTEM>
0

>  <SCORE.SYSTEM.CONST>
0

>  <SCORE.SYSTEM.DIHEDRAL>
0

>  <SCORE.SYSTEM.SOLV>
0

>  <SCORE.SYSTEM.norm>
0

>  <SCORE.heavy>
42

>  <SCORE.norm>
-0.704795

>  <RMSD>
5.134

$$$$
1pbr
 OpenBabel11021811403D
libRbt.so/2013.1/901 2013/11/27
 42 45  0  0  0  0  0  0  0  0999 V2000
    1.2848   -3.2681   41.9642 C   0  0  2  0  0  0  0  0  0  0  0  0
    2.0045   -3.6666   43.1585 O   0  0  0  0  0  0  0  0  0  0  0  0
   -0.2626   -3.4969   42.1412 C   0  0  2  0  0  0  0  0  0  0  0  0
   -0.7928   -3.1177   43.4767 N   0  3  0  0  0  0  0  0  0  0  0  0
   -0.6457   -4.9736   41.9287 C   0  0  1  0  0  0  0  0  0  0  0  0
   -2.0606   -5.1202   41.8293 O   0  0  0  0  0  0  0  0  0  0  0  0
    0.0163   -5.5388   40.6630 C   0  0  2  0  0  0  0  0  0  0  0  0
   -0.3836   -6.8903   40.4592 O   0  0  0  0  0  0  0  0  0  0  0  0
    1.5515   -5.3797   40.7307 C   0  0  2  0  0  0  0  0  0  0  0  0
    1.8230   -3.9641   40.8060 O   0  0  0  0  0  0  0  0  0  0  0  0
    2.2939   -5.9363   39.5170 C   0  0  0  0  0  0  0  0  0  0  0  0
    2.1181   -5.1030   38.3789 O   0  0  0  0  0  0  0  0  0  0  0  0
    5.5697   -1.7386   44.4926 C   0  0  1  0  0  0  0  0  0  0  0  0
    6.9526   -1.2939   44.7450 N   0  3  0  0  0  0  0  0  0  0  0  0
    5.0968   -1.4043   43.0454 C   0  0  2  0  0  0  0  0  0  0  0  0
    5.1647    0.0004   42.8117 O   0  0  0  0  0  0  0  0  0  0  0  0
    3.6310   -1.8718   42.8076 C   0  0  1  0  0  0  0  0  0  0  0  0
    3.3063   -1.6881   41.3977 O   0  0  0  0  0  0  0  0  0  0  0  0
    3.4215   -3.3714   43.1981 C   0  0  1  0  0  0  0  0  0  0  0  0
    3.9495   -3.7049   44.6301 C   0  0  1  0  0  0  0  0  0  0  0  0
    3.8286   -5.1483   44.9325 N   0  3  0  0  0  0  0  0  0  0  0  0
    5.4272   -3.2610   44.7851 C   0  0  0  0  0  0  0  0  0  0  0  0
    4.0373   -2.4379   40.3752 C   0  0  1  0  0  0  0  0  0  0  0  0
    3.7301   -1.8215   38.9976 C   0  0  2  0  0  0  0  0  0  0  0  0
    3.9012   -2.7806   37.9579 O   0  0  0  0  0  0  0  0  0  0  0  0
    4.8162   -0.7354   38.9719 C   0  0  1  0  0  0  0  0  0  0  0  0
    6.0268   -1.4733   39.5191 C   0  0  2  0  0  0  0  0  0  0  0  0
    5.4552   -2.2668   40.5479 O   0  0  0  0  0  0  0  0  0  0  0  0
    7.1349   -0.5785   40.0892 C   0  0  0  0  0  0  0  0  0  0  0  0
    8.3054   -0.6849   39.2925 O   0  0  0  0  0  0  0  0  0  0  0  0
    2.0019    2.1521   35.7515 C   0  0  1  0  0  0  0  0  0  0  0  0
    2.6157    3.4173   35.9904 O   0  0  0  0  0  0  0  0  0  0  0  0
    2.9136    1.3045   34.8209 C   0  0  2  0  0  0  0  0  0  0  0  0
    2.1454    0.2254   34.2937 O   0  0  0  0  0  0  0  0  0  0  0  0
    4.2014    0.7243   35.4923 C   0  0  1  0  0  0  0  0  0  0  0  0
    5.2907    1.7252   35.4660 N   0  3  0  0  0  0  0  0  0  0  0  0
    3.9165    0.1843   36.9185 C   0  0  1  0  0  0  0  0  0  0  0  0
    5.1072   -0.1666   37.6656 O   0  0  0  0  0  0  0  0  0  0  0  0
    1.7778    1.4026   37.0890 C   0  0  1  0  0  0  0  0  0  0  0  0
    3.0838    1.1323   37.6677 O   0  0  0  0  0  0  0  0  0  0  0  0
    0.8799    2.1603   38.0848 C   0  0  0  0  0  0  0  0  0  0  0  0
    0.6662    1.4151   39.3408 N   0  3  0  0  0  0  0  0  0  0  0  0
  1  2  1  1  0  0  0
  1  3  1  0  0  0  0
  1 10  1  0  0  0  0
  3  4  1  1  0  0  0
  3  5  1  0  0  0  0
  5  6  1  6  0  0  0
  5  7  1  0  0  0  0
  7  8  1  1  0  0  0
  7  9  1  0  0  0  0
  9 10  1  0  0  0  0
  9 11  1  6  0  0  0
 11 12  1  0  0  0  0
 13 14  1  6  0  0  0
 13 15  1  0  0  0  0
 13 22  1  0  0  0  0
 15 16  1  1  0  0  0
 15 17  1  0  0  0  0
 17 18  1  6  0  0  0
 17 19  1  0  0  0  0
 19  2  1  1  0  0  0
 19 20  1  0  0  0  0
 20 21  1  6  0  0  0
 20 22  1  0  0  0  0
 23 18  1  1  0  0  0
 23 24  1  0  0  0  0
 23 28  1  0  0  0  0
 24 25  1  6  0  0  0
 24 26  1  0  0  0  0
 26 27  1  0  0  0  0
 26 38  1  6  0  0  0
 27 28  1  0  0  0  0
 27 29  1  1  0  0  0
 29 30  1  0  0  0  0
 31 32  1  1  0  0  0
 31 33  1  0  0  0  0
 31 39  1  0  0  0  0
 33 34  1  1  0  0  0
 33 35  1  0  0  0  0
 35 36  1  1  0  0  0
 35 37  1  0  0  0  0
 37 38  1  1  0  0  0
 37 40  1  0  0  0  0
 39 40  1  0  0  0  0
 39 41  1  1  0  0  0
 41 42  1  0  0  0  0
M  CHG  5   4   1  14   1  21   1  36   1  42   1
M  END
>  <CHROM.1>
-173.18318023,49.63418685,-60.15371439,-61.48718551,-64.40764130,73.14938575
-65.32690348,-50.41077185,50.85386546,63.25304522,-166.97571541,174.77644656
61.59758472,46.38749690,-113.94301921,173.60419435,174.74691376,165.96874472
168.35951000,-176.97809867,179.10793359,172.87723751,3.12411088,-1.82966107
40.14100677,1.77226400,0.49069234,2.17734535

>  <Name>
1pbr

>  <RI>
0

>  <Rbt.Current_Directory>
/home/itssahil/PROJECTS/Mol_Feturizer/New_Systems/rnas/1pbr

>  <Rbt.Executable>
rbdock ($Id: //depot/dev/client3/rdock/2013.1/src/exe/rbdock.cxx#4 $)

>  <Rbt.Library>
libRbt.so (2013.1, Build901 2013/11/27)

>  <Rbt.Parameter_File>
/export/apps/rDock/src/rDock_2013.1_src/data/scripts/dock_solv.prm

>  <Rbt.Receptor>
prm/pocket_docking_4.prm

>  <SCORE>
-43.0142

>  <SCORE.INTER>
-33.6816

>  <SCORE.INTER.CONST>
1

>  <SCORE.INTER.POLAR>
-5.93208

>  <SCORE.INTER.ROT>
9

>  <SCORE.INTER.SOLV>
24.5649

>  <SCORE.INTER.VDW>
-20.4691

>  <SCORE.INTER.norm>
-0.801943

>  <SCORE.INTRA>
-9.36088

>  <SCORE.INTRA.DIHEDRAL>
-17.8538

>  <SCORE.INTRA.DIHEDRAL.0>
29.7866

>  <SCORE.INTRA.POLAR>
-0.137571

>  <SCORE.INTRA.POLAR.0>
-0.984091

>  <SCORE.INTRA.REPUL>
-0.274115

>  <SCORE.INTRA.REPUL.0>
0.274115

>  <SCORE.INTRA.SOLV>
-2.95723

>  <SCORE.INTRA.SOLV.lig_0>
-152.978

>  <SCORE.INTRA.VDW>
2.88292

>  <SCORE.INTRA.VDW.0>
-6.10719

>  <SCORE.INTRA.norm>
-0.222878

>  <SCORE.RESTR>
0.0282489

>  <SCORE.RESTR.CAVITY>
0.0282489

>  <SCORE.RESTR.norm>
0.000672592

>  <SCORE.SYSTEM>
0

>  <SCORE.SYSTEM.CONST>
0

>  <SCORE.SYSTEM.DIHEDRAL>
0

>  <SCORE.SYSTEM.SOLV>
0

>  <SCORE.SYSTEM.norm>
0

>  <SCORE.heavy>
42

>  <SCORE.norm>
-1.02415

>  <RMSD>
5.148

$$$$
1pbr
 OpenBabel11021811403D
libRbt.so/2013.1/901 2013/11/27
 42 45  0  0  0  0  0  0  0  0999 V2000
    0.7773   -3.7796   42.0700 C   0  0  2  0  0  0  0  0  0  0  0  0
    1.6917   -4.0474   43.1633 O   0  0  0  0  0  0  0  0  0  0  0  0
   -0.6947   -4.1767   42.4620 C   0  0  2  0  0  0  0  0  0  0  0  0
   -1.0834   -3.8098   43.8486 N   0  3  0  0  0  0  0  0  0  0  0  0
   -0.9251   -5.6946   42.3370 C   0  0  1  0  0  0  0  0  0  0  0  0
   -2.3133   -6.0055   42.4354 O   0  0  0  0  0  0  0  0  0  0  0  0
   -0.3753   -6.2284   41.0057 C   0  0  2  0  0  0  0  0  0  0  0  0
   -0.6361   -7.6236   40.8889 O   0  0  0  0  0  0  0  0  0  0  0  0
    1.1254   -5.8925   40.8593 C   0  0  2  0  0  0  0  0  0  0  0  0
    1.2351   -4.4534   40.8651 O   0  0  0  0  0  0  0  0  0  0  0  0
    1.7602   -6.4067   39.5683 C   0  0  0  0  0  0  0  0  0  0  0  0
    1.8756   -5.3700   38.6026 O   0  0  0  0  0  0  0  0  0  0  0  0
    2.9388   -0.4830   45.1502 C   0  0  1  0  0  0  0  0  0  0  0  0
    3.6716    0.6716   45.7015 N   0  3  0  0  0  0  0  0  0  0  0  0
    2.7845   -0.3995   43.6014 C   0  0  2  0  0  0  0  0  0  0  0  0
    2.0882    0.7891   43.2340 O   0  0  0  0  0  0  0  0  0  0  0  0
    1.9972   -1.6219   43.0450 C   0  0  1  0  0  0  0  0  0  0  0  0
    2.0333   -1.5754   41.5878 O   0  0  0  0  0  0  0  0  0  0  0  0
    2.5962   -2.9801   43.5367 C   0  0  1  0  0  0  0  0  0  0  0  0
    2.7966   -3.0297   45.0852 C   0  0  1  0  0  0  0  0  0  0  0  0
    3.4556   -4.2849   45.5090 N   0  3  0  0  0  0  0  0  0  0  0  0
    3.6296   -1.8141   45.5679 C   0  0  0  0  0  0  0  0  0  0  0  0
    3.2452   -1.9785   40.8731 C   0  0  1  0  0  0  0  0  0  0  0  0
    3.2075   -1.3727   39.4576 C   0  0  2  0  0  0  0  0  0  0  0  0
    3.9894   -2.1437   38.5497 O   0  0  0  0  0  0  0  0  0  0  0  0
    3.8455   -0.0088   39.7620 C   0  0  1  0  0  0  0  0  0  0  0  0
    4.9910   -0.3852   40.6871 C   0  0  2  0  0  0  0  0  0  0  0  0
    4.4069   -1.3980   41.4919 O   0  0  0  0  0  0  0  0  0  0  0  0
    5.5223    0.7543   41.5662 C   0  0  0  0  0  0  0  0  0  0  0  0
    6.4943    0.2569   42.4740 O   0  0  0  0  0  0  0  0  0  0  0  0
    2.4203    1.8580   34.9024 C   0  0  1  0  0  0  0  0  0  0  0  0
    3.5627    2.5169   34.3588 O   0  0  0  0  0  0  0  0  0  0  0  0
    2.7376    0.3483   35.0918 C   0  0  2  0  0  0  0  0  0  0  0  0
    1.5100   -0.3540   35.2715 O   0  0  0  0  0  0  0  0  0  0  0  0
    3.6907    0.0086   36.2842 C   0  0  1  0  0  0  0  0  0  0  0  0
    5.1040    0.1412   35.8670 N   0  3  0  0  0  0  0  0  0  0  0  0
    3.3567    0.8449   37.5475 C   0  0  1  0  0  0  0  0  0  0  0  0
    4.3363    0.7283   38.6086 O   0  0  0  0  0  0  0  0  0  0  0  0
    2.0353    2.4870   36.2650 C   0  0  1  0  0  0  0  0  0  0  0  0
    3.1341    2.2498   37.1870 O   0  0  0  0  0  0  0  0  0  0  0  0
    1.6970    3.9875   36.1852 C   0  0  0  0  0  0  0  0  0  0  0  0
    2.1783    4.7435   37.3579 N   0  3  0  0  0  0  0  0  0  0  0  0
  1  2  1  1  0  0  0
  1  3  1  0  0  0  0
  1 10  1  0  0  0  0
  3  4  1  1  0  0  0
  3  5  1  0  0  0  0
  5  6  1  6  0  0  0
  5  7  1  0  0  0  0
  7  8  1  1  0  0  0
  7  9  1  0  0  0  0
  9 10  1  0  0  0  0
  9 11  1  6  0  0  0
 11 12  1  0  0  0  0
 13 14  1  6  0  0  0
 13 15  1  0  0  0  0
 13 22  1  0  0  0  0
 15 16  1  1  0  0  0
 15 17  1  0  0  0  0
 17 18  1  6  0  0  0
 17 19  1  0  0  0  0
 19  2  1  1  0  0  0
 19 20  1  0  0  0  0
 20 21  1  6  0  0  0
 20 22  1  0  0  0  0
 23 18  1  1  0  0  0
 23 24  1  0  0  0  0
 23 28  1  0  0  0  0
 24 25  1  6  0  0  0
 24 26  1  0  0  0  0
 26 27  1  0  0  0  0
 26 38  1  6  0  0  0
 27 28  1  0  0  0  0
 27 29  1  1  0  0  0
 29 30  1  0  0  0  0
 31 32  1  1  0  0  0
 31 33  1  0  0  0  0
 31 39  1  0  0  0  0
 33 34  1  1  0  0  0
 33 35  1  0  0  0  0
 35 36  1  6  0  0  0
 35 37  1  0  0  0  0
 37 38  1  1  0  0  0
 37 40  1  0  0  0  0
 39 40  1  0  0  0  0
 39 41  1  6  0  0  0
 41 42  1  0  0  0  0
M  CHG  5   4   1  14   1  21   1  36   1  42   1
M  END
>  <CHROM.1>
-130.83654584,21.99953691,-70.86086045,44.82158146,175.53152716,100.37418602
-67.18381532,-54.11216815,179.70499500,76.78596682,-159.82319745,-68.10867268
65.73583787,50.69006058,174.35248516,66.22497589,49.78944942,61.73955704
-31.13472560,-109.83740554,-142.51913173,29.78339109,2.43281791,-1.53992498
40.45883156,2.05257239,1.02175183,1.90483681

>  <Name>
1pbr

>  <RI>
0

>  <Rbt.Current_Directory>
/home/itssahil/PROJECTS/Mol_Feturizer/New_Systems/rnas/1pbr

>  <Rbt.Executable>
rbdock ($Id: //depot/dev/client3/rdock/2013.1/src/exe/rbdock.cxx#4 $)

>  <Rbt.Library>
libRbt.so (2013.1, Build901 2013/11/27)

>  <Rbt.Parameter_File>
/export/apps/rDock/src/rDock_2013.1_src/data/scripts/dock_solv.prm

>  <Rbt.Receptor>
prm/pocket_docking_2.prm

>  <SCORE>
-26.2208

>  <SCORE.INTER>
-37.622

>  <SCORE.INTER.CONST>
1

>  <SCORE.INTER.POLAR>
-5.77904

>  <SCORE.INTER.ROT>
9

>  <SCORE.INTER.SOLV>
27.7939

>  <SCORE.INTER.VDW>
-24.6825

>  <SCORE.INTER.norm>
-0.895761

>  <SCORE.INTRA>
7.826

>  <SCORE.INTRA.DIHEDRAL>
6.72946

>  <SCORE.INTRA.DIHEDRAL.0>
29.7866

>  <SCORE.INTRA.POLAR>
0.714546

>  <SCORE.INTRA.POLAR.0>
-0.984091

>  <SCORE.INTRA.REPUL>
-0.274115

>  <SCORE.INTRA.REPUL.0>
0.274115

>  <SCORE.INTRA.SOLV>
-2.17228

>  <SCORE.INTRA.SOLV.lig_0>
-152.978

>  <SCORE.INTRA.VDW>
4.48853

>  <SCORE.INTRA.VDW.0>
-6.10719

>  <SCORE.INTRA.norm>
0.186333

>  <SCORE.RESTR>
3.57518

>  <SCORE.RESTR.CAVITY>
3.57518

>  <SCORE.RESTR.norm>
0.0851234

>  <SCORE.SYSTEM>
0

>  <SCORE.SYSTEM.CONST>
0

>  <SCORE.SYSTEM.DIHEDRAL>
0

>  <SCORE.SYSTEM.SOLV>
0

>  <SCORE.SYSTEM.norm>
0

>  <SCORE.heavy>
42

>  <SCORE.norm>
-0.624304

>  <RMSD>
5.149

$$$$
1pbr
 OpenBabel11021811403D
libRbt.so/2013.1/901 2013/11/27
 42 45  0  0  0  0  0  0  0  0999 V2000
    4.3864   -1.4748   44.4885 C   0  0  2  0  0  0  0  0  0  0  0  0
    4.0408   -0.1397   44.0398 O   0  0  0  0  0  0  0  0  0  0  0  0
    5.5361   -2.0828   43.6015 C   0  0  2  0  0  0  0  0  0  0  0  0
    6.6170   -1.1248   43.2521 N   0  3  0  0  0  0  0  0  0  0  0  0
    4.9945   -2.6275   42.2663 C   0  0  1  0  0  0  0  0  0  0  0  0
    5.9859   -3.4037   41.5971 O   0  0  0  0  0  0  0  0  0  0  0  0
    3.7391   -3.4844   42.4885 C   0  0  2  0  0  0  0  0  0  0  0  0
    3.2787   -4.0145   41.2494 O   0  0  0  0  0  0  0  0  0  0  0  0
    2.6494   -2.6773   43.2283 C   0  0  2  0  0  0  0  0  0  0  0  0
    3.1977   -2.3125   44.5126 O   0  0  0  0  0  0  0  0  0  0  0  0
    1.3541   -3.4497   43.4729 C   0  0  0  0  0  0  0  0  0  0  0  0
    0.6898   -3.7415   42.2506 O   0  0  0  0  0  0  0  0  0  0  0  0
    0.7810    0.3175   46.7550 C   0  0  1  0  0  0  0  0  0  0  0  0
   -0.2847    0.8066   47.6488 N   0  3  0  0  0  0  0  0  0  0  0  0
    0.4916    0.6425   45.2582 C   0  0  2  0  0  0  0  0  0  0  0  0
   -0.7405    0.0527   44.8501 O   0  0  0  0  0  0  0  0  0  0  0  0
    1.6235    0.1054   44.3341 C   0  0  1  0  0  0  0  0  0  0  0  0
    1.3844    0.5848   42.9776 O   0  0  0  0  0  0  0  0  0  0  0  0
    3.0394    0.5703   44.8076 C   0  0  1  0  0  0  0  0  0  0  0  0
    3.2954    0.2880   46.3227 C   0  0  1  0  0  0  0  0  0  0  0  0
    4.6007    0.8273   46.7640 N   0  3  0  0  0  0  0  0  0  0  0  0
    2.1609    0.8914   47.1906 C   0  0  0  0  0  0  0  0  0  0  0  0
    0.6856   -0.2664   42.0138 C   0  0  1  0  0  0  0  0  0  0  0  0
   -0.0545    0.6337   41.0067 C   0  0  2  0  0  0  0  0  0  0  0  0
   -1.1696   -0.0455   40.4362 O   0  0  0  0  0  0  0  0  0  0  0  0
    1.0799    0.8440   39.9924 C   0  0  1  0  0  0  0  0  0  0  0  0
    1.6764   -0.5492   39.8784 C   0  0  2  0  0  0  0  0  0  0  0  0
    1.6318   -1.0058   41.2216 O   0  0  0  0  0  0  0  0  0  0  0  0
    3.1135   -0.6030   39.3443 C   0  0  0  0  0  0  0  0  0  0  0  0
    3.4847   -1.9476   39.0786 O   0  0  0  0  0  0  0  0  0  0  0  0
    2.8349    4.1164   36.1780 C   0  0  1  0  0  0  0  0  0  0  0  0
    2.5432    3.4437   34.9544 O   0  0  0  0  0  0  0  0  0  0  0  0
    1.5122    4.6316   36.8109 C   0  0  2  0  0  0  0  0  0  0  0  0
    1.8329    5.6014   37.8054 O   0  0  0  0  0  0  0  0  0  0  0  0
    0.6047    3.5324   37.4543 C   0  0  1  0  0  0  0  0  0  0  0  0
   -0.2577    2.9103   36.4256 N   0  3  0  0  0  0  0  0  0  0  0  0
    1.4345    2.4917   38.2514 C   0  0  1  0  0  0  0  0  0  0  0  0
    0.6735    1.3382   38.6866 O   0  0  0  0  0  0  0  0  0  0  0  0
    3.5469    3.1552   37.1628 C   0  0  1  0  0  0  0  0  0  0  0  0
    2.6174    2.0845   37.4844 O   0  0  0  0  0  0  0  0  0  0  0  0
    4.8763    2.5892   36.6296 C   0  0  0  0  0  0  0  0  0  0  0  0
    5.2443    1.3071   37.2614 N   0  3  0  0  0  0  0  0  0  0  0  0
  1  2  1  6  0  0  0
  1  3  1  0  0  0  0
  1 10  1  0  0  0  0
  3  4  1  6  0  0  0
  3  5  1  0  0  0  0
  5  6  1  1  0  0  0
  5  7  1  0  0  0  0
  7  8  1  6  0  0  0
  7  9  1  0  0  0  0
  9 10  1  0  0  0  0
  9 11  1  1  0  0  0
 11 12  1  0  0  0  0
 13 14  1  1  0  0  0
 13 15  1  0  0  0  0
 13 22  1  0  0  0  0
 15 16  1  6  0  0  0
 15 17  1  0  0  0  0
 17 18  1  6  0  0  0
 17 19  1  0  0  0  0
 19  2  1  6  0  0  0
 19 20  1  0  0  0  0
 20 21  1  1  0  0  0
 20 22  1  0  0  0  0
 23 18  1  1  0  0  0
 23 24  1  0  0  0  0
 23 28  1  0  0  0  0
 24 25  1  6  0  0  0
 24 26  1  0  0  0  0
 26 27  1  0  0  0  0
 26 38  1  6  0  0  0
 27 28  1  0  0  0  0
 27 29  1  1  0  0  0
 29 30  1  0  0  0  0
 31 32  1  6  0  0  0
 31 33  1  0  0  0  0
 31 39  1  0  0  0  0
 33 34  1  1  0  0  0
 33 35  1  0  0  0  0
 35 36  1  6  0  0  0
 35 37  1  0  0  0  0
 37 38  1  6  0  0  0
 37 40  1  0  0  0  0
 39 40  1  0  0  0  0
 39 41  1  6  0  0  0
 41 42  1  0  0  0  0
M  CHG  5   4   1  14   1  21   1  36   1  42   1
M  END
>  <CHROM.1>
-177.04772796,-82.59718996,157.85409311,65.88132657,72.56700848,-66.55543605
56.47113635,64.00014612,60.38858552,-95.93066532,151.19004119,-167.71934972
-153.58128146,129.29304999,-170.63585000,-54.33806825,153.95154729,59.16288325
61.94931624,-143.91896632,-155.77612259,-89.53511695,2.40542325,0.18980009
41.42931462,-1.49415817,0.76126511,-1.15777313

>  <Name>
1pbr

>  <RI>
0

>  <Rbt.Current_Directory>
/home/itssahil/PROJECTS/Mol_Feturizer/New_Systems/rnas/1pbr

>  <Rbt.Executable>
rbdock ($Id: //depot/dev/client3/rdock/2013.1/src/exe/rbdock.cxx#4 $)

>  <Rbt.Library>
libRbt.so (2013.1, Build901 2013/11/27)

>  <Rbt.Parameter_File>
/export/apps/rDock/src/rDock_2013.1_src/data/scripts/dock_solv.prm

>  <Rbt.Receptor>
prm/pocket_docking_4.prm

>  <SCORE>
-49.0671

>  <SCORE.INTER>
-45.8137

>  <SCORE.INTER.CONST>
1

>  <SCORE.INTER.POLAR>
-6.42326

>  <SCORE.INTER.ROT>
9

>  <SCORE.INTER.SOLV>
34.2171

>  <SCORE.INTER.VDW>
-30.1373

>  <SCORE.INTER.norm>
-1.0908

>  <SCORE.INTRA>
-3.25335

>  <SCORE.INTRA.DIHEDRAL>
4.91855

>  <SCORE.INTRA.DIHEDRAL.0>
29.7866

>  <SCORE.INTRA.POLAR>
-0.991027

>  <SCORE.INTRA.POLAR.0>
-0.984091

>  <SCORE.INTRA.REPUL>
-0.274115

>  <SCORE.INTRA.REPUL.0>
0.274115

>  <SCORE.INTRA.SOLV>
0.52533

>  <SCORE.INTRA.SOLV.lig_0>
-152.978

>  <SCORE.INTRA.VDW>
-1.23523

>  <SCORE.INTRA.VDW.0>
-6.10719

>  <SCORE.INTRA.norm>
-0.0774608

>  <SCORE.RESTR>
0

>  <SCORE.RESTR.CAVITY>
0

>  <SCORE.RESTR.norm>
0

>  <SCORE.SYSTEM>
0

>  <SCORE.SYSTEM.CONST>
0

>  <SCORE.SYSTEM.DIHEDRAL>
0

>  <SCORE.SYSTEM.SOLV>
0

>  <SCORE.SYSTEM.norm>
0

>  <SCORE.heavy>
42

>  <SCORE.norm>
-1.16826

>  <RMSD>
5.152

$$$$
1pbr
 OpenBabel11021811403D
libRbt.so/2013.1/901 2013/11/27
 42 45  0  0  0  0  0  0  0  0999 V2000
    4.0341   -5.6573   42.2774 C   0  0  2  0  0  0  0  0  0  0  0  0
    3.7360   -4.2746   42.5977 O   0  0  0  0  0  0  0  0  0  0  0  0
    5.3678   -5.7642   41.4479 C   0  0  2  0  0  0  0  0  0  0  0  0
    6.4579   -4.8693   41.9159 N   0  3  0  0  0  0  0  0  0  0  0  0
    5.1405   -5.4263   39.9624 C   0  0  1  0  0  0  0  0  0  0  0  0
    6.2809   -5.7799   39.1828 O   0  0  0  0  0  0  0  0  0  0  0  0
    3.9024   -6.1520   39.4145 C   0  0  2  0  0  0  0  0  0  0  0  0
    3.7337   -5.8624   38.0304 O   0  0  0  0  0  0  0  0  0  0  0  0
    2.6499   -5.8037   40.2490 C   0  0  2  0  0  0  0  0  0  0  0  0
    2.9018   -6.2626   41.5941 O   0  0  0  0  0  0  0  0  0  0  0  0
    1.3648   -6.4687   39.7589 C   0  0  0  0  0  0  0  0  0  0  0  0
    0.3463   -5.5067   39.5188 O   0  0  0  0  0  0  0  0  0  0  0  0
   -0.1230   -5.0939   44.2239 C   0  0  1  0  0  0  0  0  0  0  0  0
   -1.4015   -5.0897   44.9583 N   0  3  0  0  0  0  0  0  0  0  0  0
   -0.0378   -3.9394   43.1801 C   0  0  2  0  0  0  0  0  0  0  0  0
   -1.0981   -4.0455   42.2330 O   0  0  0  0  0  0  0  0  0  0  0  0
    1.3145   -3.9727   42.4096 C   0  0  1  0  0  0  0  0  0  0  0  0
    1.4058   -2.7789   41.5767 O   0  0  0  0  0  0  0  0  0  0  0  0
    2.5415   -4.0261   43.3774 C   0  0  1  0  0  0  0  0  0  0  0  0
    2.4175   -5.1527   44.4526 C   0  0  1  0  0  0  0  0  0  0  0  0
    3.5425   -5.1149   45.4131 N   0  3  0  0  0  0  0  0  0  0  0  0
    1.0739   -5.0331   45.2174 C   0  0  0  0  0  0  0  0  0  0  0  0
    1.5024   -1.4582   42.1997 C   0  0  1  0  0  0  0  0  0  0  0  0
    2.7604   -0.7504   41.6626 C   0  0  2  0  0  0  0  0  0  0  0  0
    3.2361    0.2216   42.5895 O   0  0  0  0  0  0  0  0  0  0  0  0
    2.1570   -0.1082   40.4043 C   0  0  1  0  0  0  0  0  0  0  0  0
    0.8239    0.4145   40.9137 C   0  0  2  0  0  0  0  0  0  0  0  0
    0.4050   -0.6270   41.7823 O   0  0  0  0  0  0  0  0  0  0  0  0
   -0.2354    0.6659   39.8329 C   0  0  0  0  0  0  0  0  0  0  0  0
   -1.5191    0.2945   40.3129 O   0  0  0  0  0  0  0  0  0  0  0  0
    3.5769    1.9892   35.6588 C   0  0  1  0  0  0  0  0  0  0  0  0
    4.8768    2.5418   35.8582 O   0  0  0  0  0  0  0  0  0  0  0  0
    3.5997    0.4767   36.0156 C   0  0  2  0  0  0  0  0  0  0  0  0
    2.4336   -0.1356   35.4697 O   0  0  0  0  0  0  0  0  0  0  0  0
    3.6711    0.1497   37.5433 C   0  0  1  0  0  0  0  0  0  0  0  0
    5.0756    0.1686   38.0082 N   0  3  0  0  0  0  0  0  0  0  0  0
    2.7502    1.0791   38.3769 C   0  0  1  0  0  0  0  0  0  0  0  0
    2.9371    0.9650   39.8091 O   0  0  0  0  0  0  0  0  0  0  0  0
    2.5400    2.7212   36.5475 C   0  0  1  0  0  0  0  0  0  0  0  0
    2.8934    2.4712   37.9354 O   0  0  0  0  0  0  0  0  0  0  0  0
    2.4369    4.2324   36.2687 C   0  0  0  0  0  0  0  0  0  0  0  0
    1.3893    4.5598   35.2818 N   0  3  0  0  0  0  0  0  0  0  0  0
  1  2  1  6  0  0  0
  1  3  1  0  0  0  0
  1 10  1  0  0  0  0
  3  4  1  1  0  0  0
  3  5  1  0  0  0  0
  5  6  1  6  0  0  0
  5  7  1  0  0  0  0
  7  8  1  6  0  0  0
  7  9  1  0  0  0  0
  9 10  1  0  0  0  0
  9 11  1  6  0  0  0
 11 12  1  0  0  0  0
 13 14  1  1  0  0  0
 13 15  1  0  0  0  0
 13 22  1  0  0  0  0
 15 16  1  6  0  0  0
 15 17  1  0  0  0  0
 17 18  1  1  0  0  0
 17 19  1  0  0  0  0
 19  2  1  6  0  0  0
 19 20  1  0  0  0  0
 20 21  1  1  0  0  0
 20 22  1  0  0  0  0
 23 18  1  6  0  0  0
 23 24  1  0  0  0  0
 23 28  1  0  0  0  0
 24 25  1  1  0  0  0
 24 26  1  0  0  0  0
 26 27  1  0  0  0  0
 26 38  1  1  0  0  0
 27 28  1  0  0  0  0
 27 29  1  6  0  0  0
 29 30  1  0  0  0  0
 31 32  1  1  0  0  0
 31 33  1  0  0  0  0
 31 39  1  0  0  0  0
 33 34  1  1  0  0  0
 33 35  1  0  0  0  0
 35 36  1  1  0  0  0
 35 37  1  0  0  0  0
 37 38  1  1  0  0  0
 37 40  1  0  0  0  0
 39 40  1  0  0  0  0
 39 41  1  1  0  0  0
 41 42  1  0  0  0  0
M  CHG  5   4   1  14   1  21   1  36   1  42   1
M  END
>  <CHROM.1>
-179.18273024,-84.05688230,63.82958201,64.86170555,175.50372988,-125.50115046
80.86077625,28.25467717,174.25444696,66.11943055,124.63780173,64.45310936
-54.54386574,150.72920312,142.05358131,-58.62947789,-68.10063401,-61.26926966
-40.07993046,-85.62520211,92.72071168,-46.72249662,2.44735681,-2.17839467
40.34597382,-1.64195161,0.69388378,-0.62307286

>  <Name>
1pbr

>  <RI>
0

>  <Rbt.Current_Directory>
/home/itssahil/PROJECTS/Mol_Feturizer/New_Systems/rnas/1pbr

>  <Rbt.Executable>
rbdock ($Id: //depot/dev/client3/rdock/2013.1/src/exe/rbdock.cxx#4 $)

>  <Rbt.Library>
libRbt.so (2013.1, Build901 2013/11/27)

>  <Rbt.Parameter_File>
/export/apps/rDock/src/rDock_2013.1_src/data/scripts/dock_solv.prm

>  <Rbt.Receptor>
prm/pocket_docking_7.prm

>  <SCORE>
-29.2149

>  <SCORE.INTER>
-34.1941

>  <SCORE.INTER.CONST>
1

>  <SCORE.INTER.POLAR>
-5.86116

>  <SCORE.INTER.ROT>
9

>  <SCORE.INTER.SOLV>
19.4627

>  <SCORE.INTER.VDW>
-19.3464

>  <SCORE.INTER.norm>
-0.814146

>  <SCORE.INTRA>
4.97921

>  <SCORE.INTRA.DIHEDRAL>
5.00592

>  <SCORE.INTRA.DIHEDRAL.0>
29.7866

>  <SCORE.INTRA.POLAR>
0.950141

>  <SCORE.INTRA.POLAR.0>
-0.984091

>  <SCORE.INTRA.REPUL>
-0.267988

>  <SCORE.INTRA.REPUL.0>
0.274115

>  <SCORE.INTRA.SOLV>
-4.25173

>  <SCORE.INTRA.SOLV.lig_0>
-152.978

>  <SCORE.INTRA.VDW>
2.71157

>  <SCORE.INTRA.VDW.0>
-6.10719

>  <SCORE.INTRA.norm>
0.118553

>  <SCORE.RESTR>
0

>  <SCORE.RESTR.CAVITY>
0

>  <SCORE.RESTR.norm>
0

>  <SCORE.SYSTEM>
0

>  <SCORE.SYSTEM.CONST>
0

>  <SCORE.SYSTEM.DIHEDRAL>
0

>  <SCORE.SYSTEM.SOLV>
0

>  <SCORE.SYSTEM.norm>
0

>  <SCORE.heavy>
42

>  <SCORE.norm>
-0.695593

>  <RMSD>
5.171

$$$$
1pbr
 OpenBabel11021811403D
libRbt.so/2013.1/901 2013/11/27
 42 45  0  0  0  0  0  0  0  0999 V2000
    1.8132   -0.7896   44.5414 C   0  0  2  0  0  0  0  0  0  0  0  0
    2.2584    0.2458   43.6287 O   0  0  0  0  0  0  0  0  0  0  0  0
    0.2882   -1.1118   44.3206 C   0  0  2  0  0  0  0  0  0  0  0  0
   -0.1312   -1.1614   42.8958 N   0  3  0  0  0  0  0  0  0  0  0  0
   -0.6166   -0.0667   45.0001 C   0  0  1  0  0  0  0  0  0  0  0  0
   -1.9725   -0.5076   45.0202 O   0  0  0  0  0  0  0  0  0  0  0  0
   -0.1504    0.2165   46.4362 C   0  0  2  0  0  0  0  0  0  0  0  0
   -1.0235    1.1512   47.0624 O   0  0  0  0  0  0  0  0  0  0  0  0
    1.3230    0.6806   46.4518 C   0  0  2  0  0  0  0  0  0  0  0  0
    2.1092   -0.4027   45.9118 O   0  0  0  0  0  0  0  0  0  0  0  0
    1.8637    1.0051   47.8434 C   0  0  0  0  0  0  0  0  0  0  0  0
    1.9596   -0.1652   48.6445 O   0  0  0  0  0  0  0  0  0  0  0  0
    6.3091    0.5539   42.3231 C   0  0  1  0  0  0  0  0  0  0  0  0
    7.6220    0.4019   41.6694 N   0  3  0  0  0  0  0  0  0  0  0  0
    5.2191    1.0830   41.3425 C   0  0  2  0  0  0  0  0  0  0  0  0
    5.6020    2.3481   40.8083 O   0  0  0  0  0  0  0  0  0  0  0  0
    3.8464    1.2470   42.0584 C   0  0  1  0  0  0  0  0  0  0  0  0
    2.8365    1.5780   41.0596 O   0  0  0  0  0  0  0  0  0  0  0  0
    3.4204   -0.0519   42.8176 C   0  0  1  0  0  0  0  0  0  0  0  0
    4.5422   -0.6020   43.7555 C   0  0  1  0  0  0  0  0  0  0  0  0
    4.1479   -1.8829   44.3826 N   0  3  0  0  0  0  0  0  0  0  0  0
    5.8666   -0.7905   42.9714 C   0  0  0  0  0  0  0  0  0  0  0  0
    2.4991    0.6122   40.0130 C   0  0  1  0  0  0  0  0  0  0  0  0
    1.4966    1.2657   39.0435 C   0  0  2  0  0  0  0  0  0  0  0  0
    0.7047    0.2810   38.3852 O   0  0  0  0  0  0  0  0  0  0  0  0
    2.4912    1.9452   38.0901 C   0  0  1  0  0  0  0  0  0  0  0  0
    3.5481    0.8694   37.9024 C   0  0  2  0  0  0  0  0  0  0  0  0
    3.6557    0.3229   39.2080 O   0  0  0  0  0  0  0  0  0  0  0  0
    4.9148    1.3730   37.4209 C   0  0  0  0  0  0  0  0  0  0  0  0
    4.7973    1.9345   36.1219 O   0  0  0  0  0  0  0  0  0  0  0  0
   -0.6940    5.6473   35.8515 C   0  0  1  0  0  0  0  0  0  0  0  0
   -1.3685    4.9700   34.7928 O   0  0  0  0  0  0  0  0  0  0  0  0
   -0.9603    4.9046   37.1906 C   0  0  2  0  0  0  0  0  0  0  0  0
   -0.6104    5.7712   38.2672 O   0  0  0  0  0  0  0  0  0  0  0  0
   -0.1996    3.5497   37.3679 C   0  0  1  0  0  0  0  0  0  0  0  0
   -0.9562    2.4481   36.7329 N   0  3  0  0  0  0  0  0  0  0  0  0
    1.2655    3.6394   36.8657 C   0  0  1  0  0  0  0  0  0  0  0  0
    1.9487    2.3631   36.8073 O   0  0  0  0  0  0  0  0  0  0  0  0
    0.8295    5.6956   35.5737 C   0  0  1  0  0  0  0  0  0  0  0  0
    1.3213    4.3274   35.5708 O   0  0  0  0  0  0  0  0  0  0  0  0
    1.2016    6.4177   34.2651 C   0  0  0  0  0  0  0  0  0  0  0  0
    2.6119    6.8521   34.2349 N   0  3  0  0  0  0  0  0  0  0  0  0
  1  2  1  6  0  0  0
  1  3  1  0  0  0  0
  1 10  1  0  0  0  0
  3  4  1  6  0  0  0
  3  5  1  0  0  0  0
  5  6  1  1  0  0  0
  5  7  1  0  0  0  0
  7  8  1  6  0  0  0
  7  9  1  0  0  0  0
  9 10  1  0  0  0  0
  9 11  1  1  0  0  0
 11 12  1  0  0  0  0
 13 14  1  6  0  0  0
 13 15  1  0  0  0  0
 13 22  1  0  0  0  0
 15 16  1  1  0  0  0
 15 17  1  0  0  0  0
 17 18  1  6  0  0  0
 17 19  1  0  0  0  0
 19  2  1  1  0  0  0
 19 20  1  0  0  0  0
 20 21  1  6  0  0  0
 20 22  1  0  0  0  0
 23 18  1  1  0  0  0
 23 24  1  0  0  0  0
 23 28  1  0  0  0  0
 24 25  1  6  0  0  0
 24 26  1  0  0  0  0
 26 27  1  0  0  0  0
 26 38  1  6  0  0  0
 27 28  1  0  0  0  0
 27 29  1  1  0  0  0
 29 30  1  0  0  0  0
 31 32  1  6  0  0  0
 31 33  1  0  0  0  0
 31 39  1  0  0  0  0
 33 34  1  1  0  0  0
 33 35  1  0  0  0  0
 35 36  1  6  0  0  0
 35 37  1  0  0  0  0
 37 38  1  6  0  0  0
 37 40  1  0  0  0  0
 39 40  1  0  0  0  0
 39 41  1  6  0  0  0
 41 42  1  0  0  0  0
M  CHG  5   4   1  14   1  21   1  36   1  42   1
M  END
>  <CHROM.1>
-126.51381002,-172.37975609,-68.37245875,49.78661050,58.54440918,67.43731746
48.67460652,73.82785164,167.60733991,64.39423354,-175.53523800,32.16796945
157.10951060,82.29179364,-64.14018241,52.42533070,63.78147270,-171.59558349
-77.03697348,-82.45793261,160.69481108,-50.62802108,2.02018106,1.62333474
40.71256489,1.49007671,-0.27836597,2.00069533

>  <Name>
1pbr

>  <RI>
0

>  <Rbt.Current_Directory>
/home/itssahil/PROJECTS/Mol_Feturizer/New_Systems/rnas/1pbr

>  <Rbt.Executable>
rbdock ($Id: //depot/dev/client3/rdock/2013.1/src/exe/rbdock.cxx#4 $)

>  <Rbt.Library>
libRbt.so (2013.1, Build901 2013/11/27)

>  <Rbt.Parameter_File>
/export/apps/rDock/src/rDock_2013.1_src/data/scripts/dock_solv.prm

>  <Rbt.Receptor>
prm/blind_docking_100.prm

>  <SCORE>
-38.5678

>  <SCORE.INTER>
-42.5097

>  <SCORE.INTER.CONST>
1

>  <SCORE.INTER.POLAR>
-5.77107

>  <SCORE.INTER.ROT>
9

>  <SCORE.INTER.SOLV>
37.1869

>  <SCORE.INTER.VDW>
-31.0986

>  <SCORE.INTER.norm>
-1.01214

>  <SCORE.INTRA>
-0.547462

>  <SCORE.INTRA.DIHEDRAL>
-7.57039

>  <SCORE.INTRA.DIHEDRAL.0>
29.7866

>  <SCORE.INTRA.POLAR>
-0.320018

>  <SCORE.INTRA.POLAR.0>
-0.984091

>  <SCORE.INTRA.REPUL>
-0.274115

>  <SCORE.INTRA.REPUL.0>
0.274115

>  <SCORE.INTRA.SOLV>
1.00168

>  <SCORE.INTRA.SOLV.lig_0>
-152.978

>  <SCORE.INTRA.VDW>
5.19553

>  <SCORE.INTRA.VDW.0>
-6.10719

>  <SCORE.INTRA.norm>
-0.0130348

>  <SCORE.RESTR>
4.48934

>  <SCORE.RESTR.CAVITY>
4.48934

>  <SCORE.RESTR.norm>
0.106889

>  <SCORE.SYSTEM>
0

>  <SCORE.SYSTEM.CONST>
0

>  <SCORE.SYSTEM.DIHEDRAL>
0

>  <SCORE.SYSTEM.SOLV>
0

>  <SCORE.SYSTEM.norm>
0

>  <SCORE.heavy>
42

>  <SCORE.norm>
-0.918282

>  <RMSD>
5.174

$$$$
1pbr
 OpenBabel11021811403D
libRbt.so/2013.1/901 2013/11/27
 42 45  0  0  0  0  0  0  0  0999 V2000
    1.9461   -3.2292   43.6911 C   0  0  2  0  0  0  0  0  0  0  0  0
    3.2083   -2.5522   43.9186 O   0  0  0  0  0  0  0  0  0  0  0  0
    2.0125   -4.7197   44.1936 C   0  0  2  0  0  0  0  0  0  0  0  0
    2.7191   -4.9028   45.4880 N   0  3  0  0  0  0  0  0  0  0  0  0
    2.7300   -5.6291   43.1783 C   0  0  1  0  0  0  0  0  0  0  0  0
    2.5518   -7.0031   43.5153 O   0  0  0  0  0  0  0  0  0  0  0  0
    2.2123   -5.3815   41.7534 C   0  0  2  0  0  0  0  0  0  0  0  0
    2.8552   -6.2607   40.8358 O   0  0  0  0  0  0  0  0  0  0  0  0
    2.3750   -3.8959   41.3624 C   0  0  2  0  0  0  0  0  0  0  0  0
    1.5761   -3.1291   42.2882 O   0  0  0  0  0  0  0  0  0  0  0  0
    1.9027   -3.5642   39.9478 C   0  0  0  0  0  0  0  0  0  0  0  0
    1.5759   -2.1864   39.8237 O   0  0  0  0  0  0  0  0  0  0  0  0
    1.9204    0.0128   47.0761 C   0  0  1  0  0  0  0  0  0  0  0  0
    1.7244    1.0997   48.0529 N   0  3  0  0  0  0  0  0  0  0  0  0
    1.5368    0.4439   45.6281 C   0  0  2  0  0  0  0  0  0  0  0  0
    0.1718    0.8520   45.5755 O   0  0  0  0  0  0  0  0  0  0  0  0
    1.7400   -0.7233   44.6183 C   0  0  1  0  0  0  0  0  0  0  0  0
    1.5303   -0.2132   43.2681 O   0  0  0  0  0  0  0  0  0  0  0  0
    3.1698   -1.3479   44.7216 C   0  0  1  0  0  0  0  0  0  0  0  0
    3.5627   -1.7251   46.1859 C   0  0  1  0  0  0  0  0  0  0  0  0
    4.9549   -2.2200   46.2657 N   0  3  0  0  0  0  0  0  0  0  0  0
    3.3865   -0.5077   47.1300 C   0  0  0  0  0  0  0  0  0  0  0  0
    2.2025    1.0133   42.8372 C   0  0  1  0  0  0  0  0  0  0  0  0
    3.6326    0.6602   42.3877 C   0  0  2  0  0  0  0  0  0  0  0  0
    4.5005    1.7833   42.5123 O   0  0  0  0  0  0  0  0  0  0  0  0
    3.3439    0.3078   40.9206 C   0  0  1  0  0  0  0  0  0  0  0  0
    2.3798    1.4069   40.5060 C   0  0  2  0  0  0  0  0  0  0  0  0
    1.5669    1.5450   41.6613 O   0  0  0  0  0  0  0  0  0  0  0  0
    1.5143    1.0887   39.2799 C   0  0  0  0  0  0  0  0  0  0  0  0
    0.6332    2.1694   39.0116 O   0  0  0  0  0  0  0  0  0  0  0  0
    4.5500    0.4544   35.7218 C   0  0  1  0  0  0  0  0  0  0  0  0
    5.7588    1.2066   35.6339 O   0  0  0  0  0  0  0  0  0  0  0  0
    4.8487   -0.9275   36.3673 C   0  0  2  0  0  0  0  0  0  0  0  0
    3.7460   -1.7948   36.1130 O   0  0  0  0  0  0  0  0  0  0  0  0
    5.1243   -0.9024   37.9066 C   0  0  1  0  0  0  0  0  0  0  0  0
    6.5473   -0.5945   38.1694 N   0  3  0  0  0  0  0  0  0  0  0  0
    4.1556    0.0534   38.6516 C   0  0  1  0  0  0  0  0  0  0  0  0
    4.5011    0.2792   40.0404 O   0  0  0  0  0  0  0  0  0  0  0  0
    3.5044    1.2157   36.5749 C   0  0  1  0  0  0  0  0  0  0  0  0
    4.0305    1.3228   37.9260 O   0  0  0  0  0  0  0  0  0  0  0  0
    3.1347    2.6024   36.0159 C   0  0  0  0  0  0  0  0  0  0  0  0
    2.4295    3.4449   37.0016 N   0  3  0  0  0  0  0  0  0  0  0  0
  1  2  1  6  0  0  0
  1  3  1  0  0  0  0
  1 10  1  0  0  0  0
  3  4  1  1  0  0  0
  3  5  1  0  0  0  0
  5  6  1  1  0  0  0
  5  7  1  0  0  0  0
  7  8  1  6  0  0  0
  7  9  1  0  0  0  0
  9 10  1  0  0  0  0
  9 11  1  6  0  0  0
 11 12  1  0  0  0  0
 13 14  1  1  0  0  0
 13 15  1  0  0  0  0
 13 22  1  0  0  0  0
 15 16  1  1  0  0  0
 15 17  1  0  0  0  0
 17 18  1  6  0  0  0
 17 19  1  0  0  0  0
 19  2  1  6  0  0  0
 19 20  1  0  0  0  0
 20 21  1  6  0  0  0
 20 22  1  0  0  0  0
 23 18  1  6  0  0  0
 23 24  1  0  0  0  0
 23 28  1  0  0  0  0
 24 25  1  6  0  0  0
 24 26  1  0  0  0  0
 26 27  1  0  0  0  0
 26 38  1  6  0  0  0
 27 28  1  0  0  0  0
 27 29  1  6  0  0  0
 29 30  1  0  0  0  0
 31 32  1  1  0  0  0
 31 33  1  0  0  0  0
 31 39  1  0  0  0  0
 33 34  1  1  0  0  0
 33 35  1  0  0  0  0
 35 36  1  6  0  0  0
 35 37  1  0  0  0  0
 37 38  1  1  0  0  0
 37 40  1  0  0  0  0
 39 40  1  0  0  0  0
 39 41  1  6  0  0  0
 41 42  1  0  0  0  0
M  CHG  5   4   1  14   1  21   1  36   1  42   1
M  END
>  <CHROM.1>
-122.74233424,-25.25487335,-64.83491383,59.60170268,62.77231980,156.82356869
-39.33440429,-163.26817120,-54.38645241,49.13088425,82.75521310,-164.39354397
26.84283665,-175.08477374,178.44074749,-57.53640024,78.79344630,62.89442285
-153.55784523,-139.59408738,-164.87253056,74.22989155,2.94219630,-0.95520859
41.50702154,-2.49304438,1.35988732,-0.29196920

>  <Name>
1pbr

>  <RI>
0

>  <Rbt.Current_Directory>
/home/itssahil/PROJECTS/Mol_Feturizer/New_Systems/rnas/1pbr

>  <Rbt.Executable>
rbdock ($Id: //depot/dev/client3/rdock/2013.1/src/exe/rbdock.cxx#4 $)

>  <Rbt.Library>
libRbt.so (2013.1, Build901 2013/11/27)

>  <Rbt.Parameter_File>
/export/apps/rDock/src/rDock_2013.1_src/data/scripts/dock_solv.prm

>  <Rbt.Receptor>
prm/pocket_docking_4.prm

>  <SCORE>
-27.6611

>  <SCORE.INTER>
-31.7695

>  <SCORE.INTER.CONST>
1

>  <SCORE.INTER.POLAR>
-4.30138

>  <SCORE.INTER.ROT>
9

>  <SCORE.INTER.SOLV>
22.6304

>  <SCORE.INTER.VDW>
-23.9852

>  <SCORE.INTER.norm>
-0.756416

>  <SCORE.INTRA>
4.10836

>  <SCORE.INTRA.DIHEDRAL>
4.10276

>  <SCORE.INTRA.DIHEDRAL.0>
29.7866

>  <SCORE.INTRA.POLAR>
-0.508257

>  <SCORE.INTRA.POLAR.0>
-0.984091

>  <SCORE.INTRA.REPUL>
-0.245123

>  <SCORE.INTRA.REPUL.0>
0.274115

>  <SCORE.INTRA.SOLV>
3.46848

>  <SCORE.INTRA.SOLV.lig_0>
-152.978

>  <SCORE.INTRA.VDW>
3.27643

>  <SCORE.INTRA.VDW.0>
-6.10719

>  <SCORE.INTRA.norm>
0.0978182

>  <SCORE.RESTR>
0

>  <SCORE.RESTR.CAVITY>
0

>  <SCORE.RESTR.norm>
0

>  <SCORE.SYSTEM>
0

>  <SCORE.SYSTEM.CONST>
0

>  <SCORE.SYSTEM.DIHEDRAL>
0

>  <SCORE.SYSTEM.SOLV>
0

>  <SCORE.SYSTEM.norm>
0

>  <SCORE.heavy>
42

>  <SCORE.norm>
-0.658598

>  <RMSD>
5.214

$$$$
1pbr
 OpenBabel11021811403D
libRbt.so/2013.1/901 2013/11/27
 42 45  0  0  0  0  0  0  0  0999 V2000
    4.4913   -3.2450   45.2078 C   0  0  2  0  0  0  0  0  0  0  0  0
    4.5315   -1.9410   44.5744 O   0  0  0  0  0  0  0  0  0  0  0  0
    5.3048   -4.2997   44.3686 C   0  0  2  0  0  0  0  0  0  0  0  0
    6.5885   -3.7917   43.8187 N   0  3  0  0  0  0  0  0  0  0  0  0
    4.4935   -4.8142   43.1646 C   0  0  1  0  0  0  0  0  0  0  0  0
    5.1269   -5.9473   42.5746 O   0  0  0  0  0  0  0  0  0  0  0  0
    3.0634   -5.1883   43.5822 C   0  0  2  0  0  0  0  0  0  0  0  0
    2.3428   -5.7023   42.4665 O   0  0  0  0  0  0  0  0  0  0  0  0
    2.3534   -3.9854   44.2420 C   0  0  2  0  0  0  0  0  0  0  0  0
    3.1108   -3.6486   45.4236 O   0  0  0  0  0  0  0  0  0  0  0  0
    0.9138   -4.2646   44.6706 C   0  0  0  0  0  0  0  0  0  0  0  0
    0.2502   -3.0683   45.0567 O   0  0  0  0  0  0  0  0  0  0  0  0
    1.9776   -0.1090   47.4605 C   0  0  1  0  0  0  0  0  0  0  0  0
    1.2302    0.8113   48.3370 N   0  3  0  0  0  0  0  0  0  0  0  0
    1.5429    0.0130   45.9685 C   0  0  2  0  0  0  0  0  0  0  0  0
    0.1522   -0.2686   45.8308 O   0  0  0  0  0  0  0  0  0  0  0  0
    2.3364   -0.9766   45.0659 C   0  0  1  0  0  0  0  0  0  0  0  0
    2.0115   -0.6983   43.6716 O   0  0  0  0  0  0  0  0  0  0  0  0
    3.8812   -0.8529   45.2743 C   0  0  1  0  0  0  0  0  0  0  0  0
    4.2979   -0.9220   46.7784 C   0  0  1  0  0  0  0  0  0  0  0  0
    5.7510   -0.7028   46.9513 N   0  3  0  0  0  0  0  0  0  0  0  0
    3.5098    0.1209   47.6125 C   0  0  0  0  0  0  0  0  0  0  0  0
    2.0671    0.6746   43.1678 C   0  0  1  0  0  0  0  0  0  0  0  0
    3.2231    0.7822   42.1558 C   0  0  2  0  0  0  0  0  0  0  0  0
    3.7052    2.1202   42.0696 O   0  0  0  0  0  0  0  0  0  0  0  0
    2.4730    0.3511   40.8864 C   0  0  1  0  0  0  0  0  0  0  0  0
    1.1539    1.0937   41.0203 C   0  0  2  0  0  0  0  0  0  0  0  0
    0.8830    0.9769   42.4087 O   0  0  0  0  0  0  0  0  0  0  0  0
   -0.0071    0.5165   40.2002 C   0  0  0  0  0  0  0  0  0  0  0  0
   -1.2164    1.1829   40.5315 O   0  0  0  0  0  0  0  0  0  0  0  0
    3.6698   -1.7325   36.0837 C   0  0  1  0  0  0  0  0  0  0  0  0
    4.9476   -1.1922   35.7519 O   0  0  0  0  0  0  0  0  0  0  0  0
    3.7604   -2.4687   37.4495 C   0  0  2  0  0  0  0  0  0  0  0  0
    2.6146   -3.3053   37.5906 O   0  0  0  0  0  0  0  0  0  0  0  0
    3.8639   -1.5416   38.7047 C   0  0  1  0  0  0  0  0  0  0  0  0
    5.2718   -1.1548   38.9437 N   0  3  0  0  0  0  0  0  0  0  0  0
    2.9148   -0.3189   38.5999 C   0  0  1  0  0  0  0  0  0  0  0  0
    3.1235    0.6803   39.6281 O   0  0  0  0  0  0  0  0  0  0  0  0
    2.6138   -0.6018   36.1674 C   0  0  1  0  0  0  0  0  0  0  0  0
    2.9940    0.2772   37.2613 O   0  0  0  0  0  0  0  0  0  0  0  0
    2.4439    0.1903   34.8575 C   0  0  0  0  0  0  0  0  0  0  0  0
    1.4205    1.2489   34.9601 N   0  3  0  0  0  0  0  0  0  0  0  0
  1  2  1  6  0  0  0
  1  3  1  0  0  0  0
  1 10  1  0  0  0  0
  3  4  1  6  0  0  0
  3  5  1  0  0  0  0
  5  6  1  1  0  0  0
  5  7  1  0  0  0  0
  7  8  1  6  0  0  0
  7  9  1  0  0  0  0
  9 10  1  0  0  0  0
  9 11  1  1  0  0  0
 11 12  1  0  0  0  0
 13 14  1  1  0  0  0
 13 15  1  0  0  0  0
 13 22  1  0  0  0  0
 15 16  1  1  0  0  0
 15 17  1  0  0  0  0
 17 18  1  6  0  0  0
 17 19  1  0  0  0  0
 19  2  1  6  0  0  0
 19 20  1  0  0  0  0
 20 21  1  6  0  0  0
 20 22  1  0  0  0  0
 23 18  1  6  0  0  0
 23 24  1  0  0  0  0
 23 28  1  0  0  0  0
 24 25  1  6  0  0  0
 24 26  1  0  0  0  0
 26 27  1  0  0  0  0
 26 38  1  6  0  0  0
 27 28  1  0  0  0  0
 27 29  1  6  0  0  0
 29 30  1  0  0  0  0
 31 32  1  1  0  0  0
 31 33  1  0  0  0  0
 31 39  1  0  0  0  0
 33 34  1  1  0  0  0
 33 35  1  0  0  0  0
 35 36  1  6  0  0  0
 35 37  1  0  0  0  0
 37 38  1  1  0  0  0
 37 40  1  0  0  0  0
 39 40  1  0  0  0  0
 39 41  1  6  0  0  0
 41 42  1  0  0  0  0
M  CHG  5   4   1  14   1  21   1  36   1  42   1
M  END
>  <CHROM.1>
-176.87864770,-77.36160059,59.70283642,53.30285925,65.55057522,-170.07390681
62.20425673,-173.91388920,-75.92495955,49.13632046,112.52396280,149.37037541
33.21352962,145.13768247,172.72189498,177.07425787,177.34673831,-61.88911931
-63.71498016,-81.53819068,179.26160912,173.90592609,2.87996556,-1.31984746
42.13318034,-1.54205171,1.01908414,-1.45296192

>  <Name>
1pbr

>  <RI>
0

>  <Rbt.Current_Directory>
/home/itssahil/PROJECTS/Mol_Feturizer/New_Systems/rnas/1pbr

>  <Rbt.Executable>
rbdock ($Id: //depot/dev/client3/rdock/2013.1/src/exe/rbdock.cxx#4 $)

>  <Rbt.Library>
libRbt.so (2013.1, Build901 2013/11/27)

>  <Rbt.Parameter_File>
/export/apps/rDock/src/rDock_2013.1_src/data/scripts/dock_solv.prm

>  <Rbt.Receptor>
prm/pocket_docking_6.prm

>  <SCORE>
-50.6212

>  <SCORE.INTER>
-46.5251

>  <SCORE.INTER.CONST>
1

>  <SCORE.INTER.POLAR>
-6.36323

>  <SCORE.INTER.ROT>
9

>  <SCORE.INTER.SOLV>
29.7438

>  <SCORE.INTER.VDW>
-29.3206

>  <SCORE.INTER.norm>
-1.10774

>  <SCORE.INTRA>
-4.09609

>  <SCORE.INTRA.DIHEDRAL>
-6.38325

>  <SCORE.INTRA.DIHEDRAL.0>
29.7866

>  <SCORE.INTRA.POLAR>
-0.00979958

>  <SCORE.INTRA.POLAR.0>
-0.984091

>  <SCORE.INTRA.REPUL>
-0.274115

>  <SCORE.INTRA.REPUL.0>
0.274115

>  <SCORE.INTRA.SOLV>
-3.52657

>  <SCORE.INTRA.SOLV.lig_0>
-152.978

>  <SCORE.INTRA.VDW>
2.26271

>  <SCORE.INTRA.VDW.0>
-6.10719

>  <SCORE.INTRA.norm>
-0.097526

>  <SCORE.RESTR>
0

>  <SCORE.RESTR.CAVITY>
0

>  <SCORE.RESTR.norm>
0

>  <SCORE.SYSTEM>
0

>  <SCORE.SYSTEM.CONST>
0

>  <SCORE.SYSTEM.DIHEDRAL>
0

>  <SCORE.SYSTEM.SOLV>
0

>  <SCORE.SYSTEM.norm>
0

>  <SCORE.heavy>
42

>  <SCORE.norm>
-1.20527

>  <RMSD>
5.242

$$$$
1pbr
 OpenBabel11021811403D
libRbt.so/2013.1/901 2013/11/27
 42 45  0  0  0  0  0  0  0  0999 V2000
    1.0442   -4.3850   42.3307 C   0  0  2  0  0  0  0  0  0  0  0  0
    1.7283   -4.2419   43.6013 O   0  0  0  0  0  0  0  0  0  0  0  0
   -0.5128   -4.4831   42.5417 C   0  0  2  0  0  0  0  0  0  0  0  0
   -1.0557   -3.5526   43.5652 N   0  3  0  0  0  0  0  0  0  0  0  0
   -0.9382   -5.8982   42.9767 C   0  0  1  0  0  0  0  0  0  0  0  0
   -2.3549   -6.0446   42.9072 O   0  0  0  0  0  0  0  0  0  0  0  0
   -0.2706   -6.9689   42.1005 C   0  0  2  0  0  0  0  0  0  0  0  0
   -0.7091   -8.2671   42.4888 O   0  0  0  0  0  0  0  0  0  0  0  0
    1.2672   -6.8274   42.1398 C   0  0  2  0  0  0  0  0  0  0  0  0
    1.5818   -5.5246   41.6042 O   0  0  0  0  0  0  0  0  0  0  0  0
    2.0144   -7.8695   41.3092 C   0  0  0  0  0  0  0  0  0  0  0  0
    1.7099   -7.7411   39.9267 O   0  0  0  0  0  0  0  0  0  0  0  0
    3.1110   -0.3581   44.7025 C   0  0  1  0  0  0  0  0  0  0  0  0
    3.8870    0.8666   44.9706 N   0  3  0  0  0  0  0  0  0  0  0  0
    2.9518   -0.6341   43.1767 C   0  0  2  0  0  0  0  0  0  0  0  0
    2.2963    0.4595   42.5388 O   0  0  0  0  0  0  0  0  0  0  0  0
    2.1190   -1.9240   42.9194 C   0  0  1  0  0  0  0  0  0  0  0  0
    2.1493   -2.2213   41.4919 O   0  0  0  0  0  0  0  0  0  0  0  0
    2.6720   -3.1498   43.7174 C   0  0  1  0  0  0  0  0  0  0  0  0
    2.8783   -2.8425   45.2352 C   0  0  1  0  0  0  0  0  0  0  0  0
    3.4945   -3.9863   45.9434 N   0  3  0  0  0  0  0  0  0  0  0  0
    3.7563   -1.5781   45.4226 C   0  0  0  0  0  0  0  0  0  0  0  0
    3.4199   -2.5361   40.8374 C   0  0  1  0  0  0  0  0  0  0  0  0
    3.1423   -2.8834   39.3628 C   0  0  2  0  0  0  0  0  0  0  0  0
    4.1623   -3.7263   38.8345 O   0  0  0  0  0  0  0  0  0  0  0  0
    3.1915   -1.4677   38.7684 C   0  0  1  0  0  0  0  0  0  0  0  0
    4.3953   -0.8619   39.4711 C   0  0  2  0  0  0  0  0  0  0  0  0
    4.2602   -1.3695   40.7897 O   0  0  0  0  0  0  0  0  0  0  0  0
    4.4366    0.6715   39.4916 C   0  0  0  0  0  0  0  0  0  0  0  0
    3.2707    1.1821   40.1212 O   0  0  0  0  0  0  0  0  0  0  0  0
    2.7832    2.2023   34.9974 C   0  0  1  0  0  0  0  0  0  0  0  0
    4.0362    2.1199   34.3206 O   0  0  0  0  0  0  0  0  0  0  0  0
    1.9077    0.9774   34.6118 C   0  0  2  0  0  0  0  0  0  0  0  0
    0.5577    1.2512   34.9795 O   0  0  0  0  0  0  0  0  0  0  0  0
    2.3380   -0.3823   35.2536 C   0  0  1  0  0  0  0  0  0  0  0  0
    3.3969   -1.0219   34.4421 N   0  3  0  0  0  0  0  0  0  0  0  0
    2.7403   -0.2167   36.7427 C   0  0  1  0  0  0  0  0  0  0  0  0
    3.3485   -1.3960   37.3245 O   0  0  0  0  0  0  0  0  0  0  0  0
    3.0018    2.2275   36.5311 C   0  0  1  0  0  0  0  0  0  0  0  0
    3.6016    0.9592   36.9124 O   0  0  0  0  0  0  0  0  0  0  0  0
    3.8583    3.4110   37.0189 C   0  0  0  0  0  0  0  0  0  0  0  0
    5.3066    3.1609   36.8826 N   0  3  0  0  0  0  0  0  0  0  0  0
  1  2  1  1  0  0  0
  1  3  1  0  0  0  0
  1 10  1  0  0  0  0
  3  4  1  1  0  0  0
  3  5  1  0  0  0  0
  5  6  1  6  0  0  0
  5  7  1  0  0  0  0
  7  8  1  1  0  0  0
  7  9  1  0  0  0  0
  9 10  1  0  0  0  0
  9 11  1  6  0  0  0
 11 12  1  0  0  0  0
 13 14  1  6  0  0  0
 13 15  1  0  0  0  0
 13 22  1  0  0  0  0
 15 16  1  6  0  0  0
 15 17  1  0  0  0  0
 17 18  1  6  0  0  0
 17 19  1  0  0  0  0
 19  2  1  1  0  0  0
 19 20  1  0  0  0  0
 20 21  1  1  0  0  0
 20 22  1  0  0  0  0
 23 18  1  1  0  0  0
 23 24  1  0  0  0  0
 23 28  1  0  0  0  0
 24 25  1  6  0  0  0
 24 26  1  0  0  0  0
 26 27  1  0  0  0  0
 26 38  1  6  0  0  0
 27 28  1  0  0  0  0
 27 29  1  1  0  0  0
 29 30  1  0  0  0  0
 31 32  1  6  0  0  0
 31 33  1  0  0  0  0
 31 39  1  0  0  0  0
 33 34  1  1  0  0  0
 33 35  1  0  0  0  0
 35 36  1  6  0  0  0
 35 37  1  0  0  0  0
 37 38  1  6  0  0  0
 37 40  1  0  0  0  0
 39 40  1  0  0  0  0
 39 41  1  6  0  0  0
 41 42  1  0  0  0  0
M  CHG  5   4   1  14   1  21   1  36   1  42   1
M  END
>  <CHROM.1>
-128.59884592,36.28485614,175.18266170,-55.28214937,-62.98132916,63.55702681
-63.22668517,167.22052104,-56.74457817,63.05284669,176.79890304,-160.28569136
66.82068348,150.55520852,58.16860043,57.22352927,-52.55845994,-59.83157486
-160.39311590,-154.77553436,-82.37309840,-98.05527118,2.38185416,-2.02005157
40.35508773,2.17203294,1.12185156,1.76540194

>  <Name>
1pbr

>  <RI>
0

>  <Rbt.Current_Directory>
/home/itssahil/PROJECTS/Mol_Feturizer/New_Systems/rnas/1pbr

>  <Rbt.Executable>
rbdock ($Id: //depot/dev/client3/rdock/2013.1/src/exe/rbdock.cxx#4 $)

>  <Rbt.Library>
libRbt.so (2013.1, Build901 2013/11/27)

>  <Rbt.Parameter_File>
/export/apps/rDock/src/rDock_2013.1_src/data/scripts/dock_solv.prm

>  <Rbt.Receptor>
prm/pocket_docking_4.prm

>  <SCORE>
-41.2462

>  <SCORE.INTER>
-41.8883

>  <SCORE.INTER.CONST>
1

>  <SCORE.INTER.POLAR>
-7.02874

>  <SCORE.INTER.ROT>
9

>  <SCORE.INTER.SOLV>
36.4122

>  <SCORE.INTER.VDW>
-26.2338

>  <SCORE.INTER.norm>
-0.99734

>  <SCORE.INTRA>
0.642072

>  <SCORE.INTRA.DIHEDRAL>
-6.43259

>  <SCORE.INTRA.DIHEDRAL.0>
29.7866

>  <SCORE.INTRA.POLAR>
-0.0625034

>  <SCORE.INTRA.POLAR.0>
-0.984091

>  <SCORE.INTRA.REPUL>
-0.272302

>  <SCORE.INTRA.REPUL.0>
0.274115

>  <SCORE.INTRA.SOLV>
1.91546

>  <SCORE.INTRA.SOLV.lig_0>
-152.978

>  <SCORE.INTRA.VDW>
4.47466

>  <SCORE.INTRA.VDW.0>
-6.10719

>  <SCORE.INTRA.norm>
0.0152874

>  <SCORE.RESTR>
0

>  <SCORE.RESTR.CAVITY>
0

>  <SCORE.RESTR.norm>
0

>  <SCORE.SYSTEM>
0

>  <SCORE.SYSTEM.CONST>
0

>  <SCORE.SYSTEM.DIHEDRAL>
0

>  <SCORE.SYSTEM.SOLV>
0

>  <SCORE.SYSTEM.norm>
0

>  <SCORE.heavy>
42

>  <SCORE.norm>
-0.982053

>  <RMSD>
5.281

$$$$
1pbr
 OpenBabel11021811403D
libRbt.so/2013.1/901 2013/11/27
 42 45  0  0  0  0  0  0  0  0999 V2000
    3.8930   -2.1081   43.9423 C   0  0  2  0  0  0  0  0  0  0  0  0
    3.7132   -1.7525   45.3368 O   0  0  0  0  0  0  0  0  0  0  0  0
    3.9594   -3.6712   43.7678 C   0  0  2  0  0  0  0  0  0  0  0  0
    2.9833   -4.4257   44.5962 N   0  3  0  0  0  0  0  0  0  0  0  0
    5.3507   -4.2239   44.1305 C   0  0  1  0  0  0  0  0  0  0  0  0
    5.4778   -5.5835   43.7201 O   0  0  0  0  0  0  0  0  0  0  0  0
    6.4632   -3.3880   43.4800 C   0  0  2  0  0  0  0  0  0  0  0  0
    7.7392   -3.9391   43.7903 O   0  0  0  0  0  0  0  0  0  0  0  0
    6.3439   -1.9036   43.8909 C   0  0  2  0  0  0  0  0  0  0  0  0
    5.0668   -1.4364   43.4072 O   0  0  0  0  0  0  0  0  0  0  0  0
    7.4275   -1.0010   43.3032 C   0  0  0  0  0  0  0  0  0  0  0  0
    8.6269   -1.0747   44.0625 O   0  0  0  0  0  0  0  0  0  0  0  0
    0.2866    0.4941   46.5278 C   0  0  1  0  0  0  0  0  0  0  0  0
   -0.6868    1.5348   46.9065 N   0  3  0  0  0  0  0  0  0  0  0  0
    0.6873    0.5796   45.0239 C   0  0  2  0  0  0  0  0  0  0  0  0
   -0.4632    0.4394   44.1936 O   0  0  0  0  0  0  0  0  0  0  0  0
    1.7050   -0.5361   44.6457 C   0  0  1  0  0  0  0  0  0  0  0  0
    2.1684   -0.3018   43.2829 O   0  0  0  0  0  0  0  0  0  0  0  0
    2.9323   -0.5652   45.6142 C   0  0  1  0  0  0  0  0  0  0  0  0
    2.5164   -0.5956   47.1198 C   0  0  1  0  0  0  0  0  0  0  0  0
    3.6948   -0.5220   48.0117 N   0  3  0  0  0  0  0  0  0  0  0  0
    1.5443    0.5688   47.4421 C   0  0  0  0  0  0  0  0  0  0  0  0
    2.3006    1.0665   42.7806 C   0  0  1  0  0  0  0  0  0  0  0  0
    3.6663    1.2057   42.0823 C   0  0  2  0  0  0  0  0  0  0  0  0
    4.1097    2.5598   42.0904 O   0  0  0  0  0  0  0  0  0  0  0  0
    3.2674    0.7325   40.6763 C   0  0  1  0  0  0  0  0  0  0  0  0
    1.9319    1.4267   40.4664 C   0  0  2  0  0  0  0  0  0  0  0  0
    1.3310    1.3156   41.7475 O   0  0  0  0  0  0  0  0  0  0  0  0
    1.0291    0.7972   39.3976 C   0  0  0  0  0  0  0  0  0  0  0  0
    0.8219   -0.5782   39.6832 O   0  0  0  0  0  0  0  0  0  0  0  0
    4.7952   -0.6723   35.7010 C   0  0  1  0  0  0  0  0  0  0  0  0
    6.1219   -0.1748   35.5363 O   0  0  0  0  0  0  0  0  0  0  0  0
    4.7590   -1.6547   36.9049 C   0  0  2  0  0  0  0  0  0  0  0  0
    3.5562   -2.4167   36.8324 O   0  0  0  0  0  0  0  0  0  0  0  0
    4.8475   -0.9877   38.3167 C   0  0  1  0  0  0  0  0  0  0  0  0
    6.2608   -0.7564   38.6885 N   0  3  0  0  0  0  0  0  0  0  0  0
    3.9856    0.2993   38.4029 C   0  0  1  0  0  0  0  0  0  0  0  0
    4.1968    1.0714   39.6105 O   0  0  0  0  0  0  0  0  0  0  0  0
    3.8099    0.4973   35.9498 C   0  0  1  0  0  0  0  0  0  0  0  0
    4.1806    1.1269   37.2068 O   0  0  0  0  0  0  0  0  0  0  0  0
    3.7674    1.5298   34.8078 C   0  0  0  0  0  0  0  0  0  0  0  0
    2.8105    2.6239   35.0639 N   0  3  0  0  0  0  0  0  0  0  0  0
  1  2  1  1  0  0  0
  1  3  1  0  0  0  0
  1 10  1  0  0  0  0
  3  4  1  1  0  0  0
  3  5  1  0  0  0  0
  5  6  1  6  0  0  0
  5  7  1  0  0  0  0
  7  8  1  1  0  0  0
  7  9  1  0  0  0  0
  9 10  1  0  0  0  0
  9 11  1  6  0  0  0
 11 12  1  0  0  0  0
 13 14  1  1  0  0  0
 13 15  1  0  0  0  0
 13 22  1  0  0  0  0
 15 16  1  6  0  0  0
 15 17  1  0  0  0  0
 17 18  1  6  0  0  0
 17 19  1  0  0  0  0
 19  2  1  6  0  0  0
 19 20  1  0  0  0  0
 20 21  1  1  0  0  0
 20 22  1  0  0  0  0
 23 18  1  6  0  0  0
 23 24  1  0  0  0  0
 23 28  1  0  0  0  0
 24 25  1  6  0  0  0
 24 26  1  0  0  0  0
 26 27  1  0  0  0  0
 26 38  1  6  0  0  0
 27 28  1  0  0  0  0
 27 29  1  6  0  0  0
 29 30  1  0  0  0  0
 31 32  1  1  0  0  0
 31 33  1  0  0  0  0
 31 39  1  0  0  0  0
 33 34  1  1  0  0  0
 33 35  1  0  0  0  0
 35 36  1  6  0  0  0
 35 37  1  0  0  0  0
 37 38  1  1  0  0  0
 37 40  1  0  0  0  0
 39 40  1  0  0  0  0
 39 41  1  6  0  0  0
 41 42  1  0  0  0  0
M  CHG  5   4   1  14   1  21   1  36   1  42   1
M  END
>  <CHROM.1>
-146.78690599,40.94709848,-179.22387401,-175.37752343,165.37548789,-81.76909761
57.99897993,-72.18951933,175.50878934,33.14018707,133.03049402,60.36132180
43.51028514,163.49299452,54.93869885,59.50875277,-64.15954969,-176.65327303
6.49538919,-92.87532906,179.35192655,16.09616261,3.66109144,-0.58648475,41.85406656
-1.73424692,0.64949372,-1.31497264

>  <Name>
1pbr

>  <RI>
0

>  <Rbt.Current_Directory>
/home/itssahil/PROJECTS/Mol_Feturizer/New_Systems/rnas/1pbr

>  <Rbt.Executable>
rbdock ($Id: //depot/dev/client3/rdock/2013.1/src/exe/rbdock.cxx#4 $)

>  <Rbt.Library>
libRbt.so (2013.1, Build901 2013/11/27)

>  <Rbt.Parameter_File>
/export/apps/rDock/src/rDock_2013.1_src/data/scripts/dock_solv.prm

>  <Rbt.Receptor>
prm/pocket_docking_5.prm

>  <SCORE>
-30.4823

>  <SCORE.INTER>
-33.7816

>  <SCORE.INTER.CONST>
1

>  <SCORE.INTER.POLAR>
-4.88939

>  <SCORE.INTER.ROT>
9

>  <SCORE.INTER.SOLV>
30.9506

>  <SCORE.INTER.VDW>
-26.14

>  <SCORE.INTER.norm>
-0.804324

>  <SCORE.INTRA>
3.27728

>  <SCORE.INTRA.DIHEDRAL>
2.47121

>  <SCORE.INTRA.DIHEDRAL.0>
29.7866

>  <SCORE.INTRA.POLAR>
0.285352

>  <SCORE.INTRA.POLAR.0>
-0.984091

>  <SCORE.INTRA.REPUL>
-0.274115

>  <SCORE.INTRA.REPUL.0>
0.274115

>  <SCORE.INTRA.SOLV>
-4.27171

>  <SCORE.INTRA.SOLV.lig_0>
-152.978

>  <SCORE.INTRA.VDW>
4.57791

>  <SCORE.INTRA.VDW.0>
-6.10719

>  <SCORE.INTRA.norm>
0.0780305

>  <SCORE.RESTR>
0.0219923

>  <SCORE.RESTR.CAVITY>
0.0219923

>  <SCORE.RESTR.norm>
0.000523626

>  <SCORE.SYSTEM>
0

>  <SCORE.SYSTEM.CONST>
0

>  <SCORE.SYSTEM.DIHEDRAL>
0

>  <SCORE.SYSTEM.SOLV>
0

>  <SCORE.SYSTEM.norm>
0

>  <SCORE.heavy>
42

>  <SCORE.norm>
-0.72577

>  <RMSD>
5.281

$$$$
1pbr
 OpenBabel11021811403D
libRbt.so/2013.1/901 2013/11/27
 42 45  0  0  0  0  0  0  0  0999 V2000
    0.8191    0.4529   44.3052 C   0  0  2  0  0  0  0  0  0  0  0  0
    2.2304    0.4590   44.6390 O   0  0  0  0  0  0  0  0  0  0  0  0
   -0.0638    0.4485   45.6085 C   0  0  2  0  0  0  0  0  0  0  0  0
    0.4293    1.3405   46.6900 N   0  3  0  0  0  0  0  0  0  0  0  0
   -0.1612   -0.9607   46.2229 C   0  0  1  0  0  0  0  0  0  0  0  0
   -1.1647   -1.0033   47.2351 O   0  0  0  0  0  0  0  0  0  0  0  0
   -0.4761   -2.0111   45.1472 C   0  0  2  0  0  0  0  0  0  0  0  0
   -0.6054   -3.2997   45.7396 O   0  0  0  0  0  0  0  0  0  0  0  0
    0.5845   -1.9797   44.0244 C   0  0  2  0  0  0  0  0  0  0  0  0
    0.5227   -0.6675   43.4265 O   0  0  0  0  0  0  0  0  0  0  0  0
    0.3589   -3.0104   42.9195 C   0  0  0  0  0  0  0  0  0  0  0  0
    0.6756   -4.3221   43.3662 O   0  0  0  0  0  0  0  0  0  0  0  0
    5.7279    0.7040   42.2068 C   0  0  1  0  0  0  0  0  0  0  0  0
    6.8230    0.4935   41.2424 N   0  3  0  0  0  0  0  0  0  0  0  0
    4.3677    0.9922   41.5020 C   0  0  2  0  0  0  0  0  0  0  0  0
    4.4693    2.1527   40.6801 O   0  0  0  0  0  0  0  0  0  0  0  0
    3.2310    1.2234   42.5403 C   0  0  1  0  0  0  0  0  0  0  0  0
    1.9616    1.3174   41.8282 O   0  0  0  0  0  0  0  0  0  0  0  0
    3.1523    0.0695   43.5926 C   0  0  1  0  0  0  0  0  0  0  0  0
    4.5333   -0.2458   44.2515 C   0  0  1  0  0  0  0  0  0  0  0  0
    4.4476   -1.4051   45.1671 N   0  3  0  0  0  0  0  0  0  0  0  0
    5.6078   -0.5157   43.1666 C   0  0  0  0  0  0  0  0  0  0  0  0
    1.8407    2.1926   40.6615 C   0  0  1  0  0  0  0  0  0  0  0  0
    2.5555    1.5280   39.4702 C   0  0  2  0  0  0  0  0  0  0  0  0
    2.9826    2.5015   38.5215 O   0  0  0  0  0  0  0  0  0  0  0  0
    1.3960    0.6700   38.9416 C   0  0  1  0  0  0  0  0  0  0  0  0
    0.2182    1.6265   39.0280 C   0  0  2  0  0  0  0  0  0  0  0  0
    0.4646    2.2963   40.2549 O   0  0  0  0  0  0  0  0  0  0  0  0
   -1.1638    0.9608   39.0522 C   0  0  0  0  0  0  0  0  0  0  0  0
   -2.0763    1.7031   38.2569 O   0  0  0  0  0  0  0  0  0  0  0  0
    4.5709   -2.3850   35.8376 C   0  0  1  0  0  0  0  0  0  0  0  0
    3.8784   -2.5842   34.6065 O   0  0  0  0  0  0  0  0  0  0  0  0
    4.9311   -0.8806   35.9886 C   0  0  2  0  0  0  0  0  0  0  0  0
    5.9238   -0.7516   37.0038 O   0  0  0  0  0  0  0  0  0  0  0  0
    3.7332    0.0637   36.3336 C   0  0  1  0  0  0  0  0  0  0  0  0
    3.0260    0.4695   35.0990 N   0  3  0  0  0  0  0  0  0  0  0  0
    2.7861   -0.5661   37.3886 C   0  0  1  0  0  0  0  0  0  0  0  0
    1.5520    0.1667   37.5862 O   0  0  0  0  0  0  0  0  0  0  0  0
    3.6884   -2.8342   37.0292 C   0  0  1  0  0  0  0  0  0  0  0  0
    2.5186   -1.9715   37.0620 O   0  0  0  0  0  0  0  0  0  0  0  0
    3.2778   -4.3176   36.9760 C   0  0  0  0  0  0  0  0  0  0  0  0
    2.4150   -4.7112   38.1069 N   0  3  0  0  0  0  0  0  0  0  0  0
  1  2  1  1  0  0  0
  1  3  1  0  0  0  0
  1 10  1  0  0  0  0
  3  4  1  1  0  0  0
  3  5  1  0  0  0  0
  5  6  1  1  0  0  0
  5  7  1  0  0  0  0
  7  8  1  1  0  0  0
  7  9  1  0  0  0  0
  9 10  1  0  0  0  0
  9 11  1  6  0  0  0
 11 12  1  0  0  0  0
 13 14  1  6  0  0  0
 13 15  1  0  0  0  0
 13 22  1  0  0  0  0
 15 16  1  1  0  0  0
 15 17  1  0  0  0  0
 17 18  1  6  0  0  0
 17 19  1  0  0  0  0
 19  2  1  1  0  0  0
 19 20  1  0  0  0  0
 20 21  1  1  0  0  0
 20 22  1  0  0  0  0
 23 18  1  1  0  0  0
 23 24  1  0  0  0  0
 23 28  1  0  0  0  0
 24 25  1  6  0  0  0
 24 26  1  0  0  0  0
 26 27  1  0  0  0  0
 26 38  1  6  0  0  0
 27 28  1  0  0  0  0
 27 29  1  1  0  0  0
 29 30  1  0  0  0  0
 31 32  1  6  0  0  0
 31 33  1  0  0  0  0
 31 39  1  0  0  0  0
 33 34  1  1  0  0  0
 33 35  1  0  0  0  0
 35 36  1  6  0  0  0
 35 37  1  0  0  0  0
 37 38  1  6  0  0  0
 37 40  1  0  0  0  0
 39 40  1  0  0  0  0
 39 41  1  6  0  0  0
 41 42  1  0  0  0  0
M  CHG  5   4   1  14   1  21   1  36   1  42   1
M  END
>  <CHROM.1>
162.23704438,72.97045922,-146.14422756,-167.28605818,51.17117483,-73.38265485
179.26752324,90.39372701,51.52367118,-48.66254590,74.87649226,59.33636758
86.19101168,54.27128960,-139.79824314,-56.57951235,175.66821190,61.63928005
-40.24491209,-118.33699689,-178.78881605,-2.92692096,2.27490051,-0.41561779
40.91526490,1.90058675,0.34946112,1.43473053

>  <Name>
1pbr

>  <RI>
0

>  <Rbt.Current_Directory>
/home/itssahil/PROJECTS/Mol_Feturizer/New_Systems/rnas/1pbr

>  <Rbt.Executable>
rbdock ($Id: //depot/dev/client3/rdock/2013.1/src/exe/rbdock.cxx#4 $)

>  <Rbt.Library>
libRbt.so (2013.1, Build901 2013/11/27)

>  <Rbt.Parameter_File>
/export/apps/rDock/src/rDock_2013.1_src/data/scripts/dock_solv.prm

>  <Rbt.Receptor>
prm/blind_docking_100.prm

>  <SCORE>
-9.22765

>  <SCORE.INTER>
-25.1463

>  <SCORE.INTER.CONST>
1

>  <SCORE.INTER.POLAR>
-3.0373

>  <SCORE.INTER.ROT>
9

>  <SCORE.INTER.SOLV>
34.8941

>  <SCORE.INTER.VDW>
-27.8713

>  <SCORE.INTER.norm>
-0.598722

>  <SCORE.INTRA>
8.94866

>  <SCORE.INTRA.DIHEDRAL>
-0.848685

>  <SCORE.INTRA.DIHEDRAL.0>
29.7866

>  <SCORE.INTRA.POLAR>
0.526615

>  <SCORE.INTRA.POLAR.0>
-0.984091

>  <SCORE.INTRA.REPUL>
-0.274115

>  <SCORE.INTRA.REPUL.0>
0.274115

>  <SCORE.INTRA.SOLV>
-3.32371

>  <SCORE.INTRA.SOLV.lig_0>
-152.978

>  <SCORE.INTRA.VDW>
10.6149

>  <SCORE.INTRA.VDW.0>
-6.10719

>  <SCORE.INTRA.norm>
0.213063

>  <SCORE.RESTR>
6.97002

>  <SCORE.RESTR.CAVITY>
6.97002

>  <SCORE.RESTR.norm>
0.165953

>  <SCORE.SYSTEM>
0

>  <SCORE.SYSTEM.CONST>
0

>  <SCORE.SYSTEM.DIHEDRAL>
0

>  <SCORE.SYSTEM.SOLV>
0

>  <SCORE.SYSTEM.norm>
0

>  <SCORE.heavy>
42

>  <SCORE.norm>
-0.219706

>  <RMSD>
5.290

$$$$
1pbr
 OpenBabel11021811403D
libRbt.so/2013.1/901 2013/11/27
 42 45  0  0  0  0  0  0  0  0999 V2000
    1.8261   -3.0292   42.5207 C   0  0  2  0  0  0  0  0  0  0  0  0
    2.5299   -3.6620   43.6195 O   0  0  0  0  0  0  0  0  0  0  0  0
    0.2682   -3.1616   42.7043 C   0  0  2  0  0  0  0  0  0  0  0  0
   -0.2082   -2.9531   44.0963 N   0  3  0  0  0  0  0  0  0  0  0  0
   -0.2367   -4.5536   42.2798 C   0  0  1  0  0  0  0  0  0  0  0  0
   -1.6602   -4.5726   42.1991 O   0  0  0  0  0  0  0  0  0  0  0  0
    0.3572   -4.9663   40.9246 C   0  0  2  0  0  0  0  0  0  0  0  0
   -0.1543   -6.2350   40.5283 O   0  0  0  0  0  0  0  0  0  0  0  0
    1.9010   -4.9394   40.9725 C   0  0  2  0  0  0  0  0  0  0  0  0
    2.2876   -3.5778   41.2553 O   0  0  0  0  0  0  0  0  0  0  0  0
    2.5765   -5.3580   39.6677 C   0  0  0  0  0  0  0  0  0  0  0  0
    2.1081   -6.6264   39.2291 O   0  0  0  0  0  0  0  0  0  0  0  0
    4.3580   -0.8500   46.2575 C   0  0  1  0  0  0  0  0  0  0  0  0
    5.2776   -0.0035   47.0396 N   0  3  0  0  0  0  0  0  0  0  0  0
    4.3742   -0.4939   44.7400 C   0  0  2  0  0  0  0  0  0  0  0  0
    4.0034    0.8687   44.5446 O   0  0  0  0  0  0  0  0  0  0  0  0
    3.3868   -1.3917   43.9382 C   0  0  1  0  0  0  0  0  0  0  0  0
    3.5706   -1.1308   42.5151 O   0  0  0  0  0  0  0  0  0  0  0  0
    3.6131   -2.9128   44.2212 C   0  0  1  0  0  0  0  0  0  0  0  0
    3.6493   -3.2473   45.7468 C   0  0  1  0  0  0  0  0  0  0  0  0
    3.9634   -4.6736   45.9841 N   0  3  0  0  0  0  0  0  0  0  0  0
    4.6864   -2.3557   46.4776 C   0  0  0  0  0  0  0  0  0  0  0  0
    2.7673   -0.1039   41.8502 C   0  0  1  0  0  0  0  0  0  0  0  0
    3.7117    0.9807   41.2988 C   0  0  2  0  0  0  0  0  0  0  0  0
    3.0386    2.2302   41.1735 O   0  0  0  0  0  0  0  0  0  0  0  0
    4.0300    0.3517   39.9339 C   0  0  1  0  0  0  0  0  0  0  0  0
    2.6686   -0.1500   39.4819 C   0  0  2  0  0  0  0  0  0  0  0  0
    2.1170   -0.6514   40.6897 O   0  0  0  0  0  0  0  0  0  0  0  0
    2.6996   -1.2500   38.4128 C   0  0  0  0  0  0  0  0  0  0  0  0
    1.5743   -2.1036   38.5592 O   0  0  0  0  0  0  0  0  0  0  0  0
    1.8829    3.7672   36.7176 C   0  0  1  0  0  0  0  0  0  0  0  0
    2.2155    4.9679   37.4122 O   0  0  0  0  0  0  0  0  0  0  0  0
    3.1349    3.2484   35.9566 C   0  0  2  0  0  0  0  0  0  0  0  0
    2.7127    2.2905   34.9888 O   0  0  0  0  0  0  0  0  0  0  0  0
    4.2435    2.6039   36.8518 C   0  0  1  0  0  0  0  0  0  0  0  0
    5.1403    3.6492   37.3923 N   0  3  0  0  0  0  0  0  0  0  0  0
    3.6396    1.7000   37.9586 C   0  0  1  0  0  0  0  0  0  0  0  0
    4.6018    1.2508   38.9443 O   0  0  0  0  0  0  0  0  0  0  0  0
    1.3919    2.6880   37.7150 C   0  0  1  0  0  0  0  0  0  0  0  0
    2.5005    2.3672   38.5993 O   0  0  0  0  0  0  0  0  0  0  0  0
    0.1470    3.1044   38.5205 C   0  0  0  0  0  0  0  0  0  0  0  0
   -1.0647    3.2083   37.6841 N   0  3  0  0  0  0  0  0  0  0  0  0
  1  2  1  1  0  0  0
  1  3  1  0  0  0  0
  1 10  1  0  0  0  0
  3  4  1  1  0  0  0
  3  5  1  0  0  0  0
  5  6  1  6  0  0  0
  5  7  1  0  0  0  0
  7  8  1  1  0  0  0
  7  9  1  0  0  0  0
  9 10  1  0  0  0  0
  9 11  1  6  0  0  0
 11 12  1  0  0  0  0
 13 14  1  1  0  0  0
 13 15  1  0  0  0  0
 13 22  1  0  0  0  0
 15 16  1  1  0  0  0
 15 17  1  0  0  0  0
 17 18  1  6  0  0  0
 17 19  1  0  0  0  0
 19  2  1  6  0  0  0
 19 20  1  0  0  0  0
 20 21  1  6  0  0  0
 20 22  1  0  0  0  0
 23 18  1  6  0  0  0
 23 24  1  0  0  0  0
 23 28  1  0  0  0  0
 24 25  1  6  0  0  0
 24 26  1  0  0  0  0
 26 27  1  0  0  0  0
 26 38  1  6  0  0  0
 27 28  1  0  0  0  0
 27 29  1  6  0  0  0
 29 30  1  0  0  0  0
 31 32  1  1  0  0  0
 31 33  1  0  0  0  0
 31 39  1  0  0  0  0
 33 34  1  6  0  0  0
 33 35  1  0  0  0  0
 35 36  1  1  0  0  0
 35 37  1  0  0  0  0
 37 38  1  1  0  0  0
 37 40  1  0  0  0  0
 39 40  1  0  0  0  0
 39 41  1  1  0  0  0
 41 42  1  0  0  0  0
M  CHG  5   4   1  14   1  21   1  36   1  42   1
M  END
>  <CHROM.1>
-133.57935581,23.25440666,-65.95030337,-56.91107165,-169.82697290,-53.69373814
162.56301676,-77.47452256,-56.02186538,-91.24139832,118.57828270,-43.78337537
63.28798092,-101.80388583,149.41487161,-174.55270583,-168.08622744,65.21831393
-68.06151960,-177.11300928,68.44186049,127.56938051,2.48787277,-0.84624230
40.97684042,1.60665703,1.02213607,2.33304473

>  <Name>
1pbr

>  <RI>
0

>  <Rbt.Current_Directory>
/home/itssahil/PROJECTS/Mol_Feturizer/New_Systems/rnas/1pbr

>  <Rbt.Executable>
rbdock ($Id: //depot/dev/client3/rdock/2013.1/src/exe/rbdock.cxx#4 $)

>  <Rbt.Library>
libRbt.so (2013.1, Build901 2013/11/27)

>  <Rbt.Parameter_File>
/export/apps/rDock/src/rDock_2013.1_src/data/scripts/dock_solv.prm

>  <Rbt.Receptor>
prm/pocket_docking_7.prm

>  <SCORE>
-33.6922

>  <SCORE.INTER>
-48.9029

>  <SCORE.INTER.CONST>
1

>  <SCORE.INTER.POLAR>
-7.91347

>  <SCORE.INTER.ROT>
9

>  <SCORE.INTER.SOLV>
34.0327

>  <SCORE.INTER.VDW>
-27.168

>  <SCORE.INTER.norm>
-1.16435

>  <SCORE.INTRA>
15.2107

>  <SCORE.INTRA.DIHEDRAL>
9.93948

>  <SCORE.INTRA.DIHEDRAL.0>
29.7866

>  <SCORE.INTRA.POLAR>
0.114614

>  <SCORE.INTRA.POLAR.0>
-0.984091

>  <SCORE.INTRA.REPUL>
0.445651

>  <SCORE.INTRA.REPUL.0>
0.274115

>  <SCORE.INTRA.SOLV>
-1.62404

>  <SCORE.INTRA.SOLV.lig_0>
-152.978

>  <SCORE.INTRA.VDW>
8.43502

>  <SCORE.INTRA.VDW.0>
-6.10719

>  <SCORE.INTRA.norm>
0.362159

>  <SCORE.RESTR>
0

>  <SCORE.RESTR.CAVITY>
0

>  <SCORE.RESTR.norm>
0

>  <SCORE.SYSTEM>
0

>  <SCORE.SYSTEM.CONST>
0

>  <SCORE.SYSTEM.DIHEDRAL>
0

>  <SCORE.SYSTEM.SOLV>
0

>  <SCORE.SYSTEM.norm>
0

>  <SCORE.heavy>
42

>  <SCORE.norm>
-0.802196

>  <RMSD>
5.295

$$$$
1pbr
 OpenBabel11021811403D
libRbt.so/2013.1/901 2013/11/27
 42 45  0  0  0  0  0  0  0  0999 V2000
    0.8722    0.7991   44.5703 C   0  0  2  0  0  0  0  0  0  0  0  0
    2.3032    0.6945   44.7812 O   0  0  0  0  0  0  0  0  0  0  0  0
    0.1107    0.9048   45.9441 C   0  0  2  0  0  0  0  0  0  0  0  0
    0.7691    1.7807   46.9479 N   0  3  0  0  0  0  0  0  0  0  0  0
   -0.0473   -0.4739   46.6126 C   0  0  1  0  0  0  0  0  0  0  0  0
   -0.9574   -0.4038   47.7081 O   0  0  0  0  0  0  0  0  0  0  0  0
   -0.5414   -1.5225   45.6046 C   0  0  2  0  0  0  0  0  0  0  0  0
   -0.7232   -2.7790   46.2499 O   0  0  0  0  0  0  0  0  0  0  0  0
    0.4147   -1.6115   44.3944 C   0  0  2  0  0  0  0  0  0  0  0  0
    0.4082   -0.3154   43.7593 O   0  0  0  0  0  0  0  0  0  0  0  0
    0.0083   -2.6488   43.3490 C   0  0  0  0  0  0  0  0  0  0  0  0
   -1.3896   -2.9030   43.3918 O   0  0  0  0  0  0  0  0  0  0  0  0
    5.5582    0.6255   42.0229 C   0  0  1  0  0  0  0  0  0  0  0  0
    6.5406    0.3099   40.9698 N   0  3  0  0  0  0  0  0  0  0  0  0
    4.1562    0.9737   41.4373 C   0  0  2  0  0  0  0  0  0  0  0  0
    4.2475    2.0941   40.5605 O   0  0  0  0  0  0  0  0  0  0  0  0
    3.1408    1.3153   42.5669 C   0  0  1  0  0  0  0  0  0  0  0  0
    1.8166    1.4637   41.9739 O   0  0  0  0  0  0  0  0  0  0  0  0
    3.0949    0.2085   43.6705 C   0  0  1  0  0  0  0  0  0  0  0  0
    4.5115   -0.1698   44.2097 C   0  0  1  0  0  0  0  0  0  0  0  0
    4.4451   -1.2866   45.1782 N   0  3  0  0  0  0  0  0  0  0  0  0
    5.4582   -0.5478   43.0412 C   0  0  0  0  0  0  0  0  0  0  0  0
    1.2416    0.3725   41.1863 C   0  0  1  0  0  0  0  0  0  0  0  0
   -0.1722    0.7829   40.7335 C   0  0  2  0  0  0  0  0  0  0  0  0
   -0.9850   -0.3622   40.4920 O   0  0  0  0  0  0  0  0  0  0  0  0
    0.1947    1.5200   39.4366 C   0  0  1  0  0  0  0  0  0  0  0  0
    1.2419    0.6031   38.8267 C   0  0  2  0  0  0  0  0  0  0  0  0
    1.9820    0.1925   39.9661 O   0  0  0  0  0  0  0  0  0  0  0  0
    2.1692    1.2633   37.7982 C   0  0  0  0  0  0  0  0  0  0  0  0
    2.9370    2.2840   38.4187 O   0  0  0  0  0  0  0  0  0  0  0  0
   -0.9837    4.9671   35.6311 C   0  0  1  0  0  0  0  0  0  0  0  0
   -1.2143    4.1297   34.4996 O   0  0  0  0  0  0  0  0  0  0  0  0
   -2.1933    4.8666   36.6018 C   0  0  2  0  0  0  0  0  0  0  0  0
   -2.1334    5.9592   37.5157 O   0  0  0  0  0  0  0  0  0  0  0  0
   -2.2902    3.5347   37.4158 C   0  0  1  0  0  0  0  0  0  0  0  0
   -2.9813    2.4954   36.6213 N   0  3  0  0  0  0  0  0  0  0  0  0
   -0.9029    3.0714   37.9331 C   0  0  1  0  0  0  0  0  0  0  0  0
   -0.9009    1.7407   38.5063 O   0  0  0  0  0  0  0  0  0  0  0  0
    0.3122    4.5362   36.3630 C   0  0  1  0  0  0  0  0  0  0  0  0
    0.1046    3.1906   36.8729 O   0  0  0  0  0  0  0  0  0  0  0  0
    1.5756    4.6040   35.4849 C   0  0  0  0  0  0  0  0  0  0  0  0
    2.8209    4.6113   36.2772 N   0  3  0  0  0  0  0  0  0  0  0  0
  1  2  1  1  0  0  0
  1  3  1  0  0  0  0
  1 10  1  0  0  0  0
  3  4  1  1  0  0  0
  3  5  1  0  0  0  0
  5  6  1  1  0  0  0
  5  7  1  0  0  0  0
  7  8  1  1  0  0  0
  7  9  1  0  0  0  0
  9 10  1  0  0  0  0
  9 11  1  6  0  0  0
 11 12  1  0  0  0  0
 13 14  1  6  0  0  0
 13 15  1  0  0  0  0
 13 22  1  0  0  0  0
 15 16  1  6  0  0  0
 15 17  1  0  0  0  0
 17 18  1  6  0  0  0
 17 19  1  0  0  0  0
 19  2  1  1  0  0  0
 19 20  1  0  0  0  0
 20 21  1  1  0  0  0
 20 22  1  0  0  0  0
 23 18  1  1  0  0  0
 23 24  1  0  0  0  0
 23 28  1  0  0  0  0
 24 25  1  6  0  0  0
 24 26  1  0  0  0  0
 26 27  1  0  0  0  0
 26 38  1  6  0  0  0
 27 28  1  0  0  0  0
 27 29  1  6  0  0  0
 29 30  1  0  0  0  0
 31 32  1  6  0  0  0
 31 33  1  0  0  0  0
 31 39  1  0  0  0  0
 33 34  1  1  0  0  0
 33 35  1  0  0  0  0
 35 36  1  6  0  0  0
 35 37  1  0  0  0  0
 37 38  1  6  0  0  0
 37 40  1  0  0  0  0
 39 40  1  0  0  0  0
 39 41  1  6  0  0  0
 41 42  1  0  0  0  0
M  CHG  5   4   1  14   1  21   1  36   1  42   1
M  END
>  <CHROM.1>
162.63546635,71.41512092,-8.07073467,45.80218909,-61.37317919,24.92917775
101.31669971,-75.25442496,-177.73901392,56.13412656,177.89512817,68.90830118
37.28734361,136.78906178,63.23728871,102.51375023,-44.56163745,-174.61117711
87.31410585,-156.86676033,161.85089740,-67.56025539,1.03991353,1.20401875
41.08041831,1.39462090,-0.02294795,2.05332284

>  <Name>
1pbr

>  <RI>
0

>  <Rbt.Current_Directory>
/home/itssahil/PROJECTS/Mol_Feturizer/New_Systems/rnas/1pbr

>  <Rbt.Executable>
rbdock ($Id: //depot/dev/client3/rdock/2013.1/src/exe/rbdock.cxx#4 $)

>  <Rbt.Library>
libRbt.so (2013.1, Build901 2013/11/27)

>  <Rbt.Parameter_File>
/export/apps/rDock/src/rDock_2013.1_src/data/scripts/dock_solv.prm

>  <Rbt.Receptor>
prm/blind_docking_100.prm

>  <SCORE>
-27.2155

>  <SCORE.INTER>
-34.0719

>  <SCORE.INTER.CONST>
1

>  <SCORE.INTER.POLAR>
-5.37693

>  <SCORE.INTER.ROT>
9

>  <SCORE.INTER.SOLV>
44.6697

>  <SCORE.INTER.VDW>
-29.2814

>  <SCORE.INTER.norm>
-0.811236

>  <SCORE.INTRA>
3.76555

>  <SCORE.INTRA.DIHEDRAL>
7.25528

>  <SCORE.INTRA.DIHEDRAL.0>
29.7866

>  <SCORE.INTRA.POLAR>
-0.474846

>  <SCORE.INTRA.POLAR.0>
-0.984091

>  <SCORE.INTRA.REPUL>
-0.182091

>  <SCORE.INTRA.REPUL.0>
0.274115

>  <SCORE.INTRA.SOLV>
0.29714

>  <SCORE.INTRA.SOLV.lig_0>
-152.978

>  <SCORE.INTRA.VDW>
2.51427

>  <SCORE.INTRA.VDW.0>
-6.10719

>  <SCORE.INTRA.norm>
0.089656

>  <SCORE.RESTR>
3.09085

>  <SCORE.RESTR.CAVITY>
3.09085

>  <SCORE.RESTR.norm>
0.0735918

>  <SCORE.SYSTEM>
0

>  <SCORE.SYSTEM.CONST>
0

>  <SCORE.SYSTEM.DIHEDRAL>
0

>  <SCORE.SYSTEM.SOLV>
0

>  <SCORE.SYSTEM.norm>
0

>  <SCORE.heavy>
42

>  <SCORE.norm>
-0.647988

>  <RMSD>
5.316

$$$$
1pbr
 OpenBabel11021811403D
libRbt.so/2013.1/901 2013/11/27
 42 45  0  0  0  0  0  0  0  0999 V2000
    4.5587   -1.5997   45.0035 C   0  0  2  0  0  0  0  0  0  0  0  0
    4.1359   -0.3781   44.3461 O   0  0  0  0  0  0  0  0  0  0  0  0
    5.6740   -2.3288   44.1650 C   0  0  2  0  0  0  0  0  0  0  0  0
    6.6943   -1.4224   43.5770 N   0  3  0  0  0  0  0  0  0  0  0  0
    5.0725   -3.1213   42.9892 C   0  0  1  0  0  0  0  0  0  0  0  0
    6.0497   -3.9802   42.4053 O   0  0  0  0  0  0  0  0  0  0  0  0
    3.8665   -3.9561   43.4458 C   0  0  2  0  0  0  0  0  0  0  0  0
    3.3513   -4.7147   42.3562 O   0  0  0  0  0  0  0  0  0  0  0  0
    2.7944   -3.0565   44.0999 C   0  0  2  0  0  0  0  0  0  0  0  0
    3.4064   -2.4498   45.2578 O   0  0  0  0  0  0  0  0  0  0  0  0
    1.5469   -3.8051   44.5661 C   0  0  0  0  0  0  0  0  0  0  0  0
    1.8763   -4.8215   45.5036 O   0  0  0  0  0  0  0  0  0  0  0  0
    0.8059    0.5016   46.8651 C   0  0  1  0  0  0  0  0  0  0  0  0
   -0.2380    1.1258   47.6985 N   0  3  0  0  0  0  0  0  0  0  0  0
    0.6543    0.8667   45.3573 C   0  0  2  0  0  0  0  0  0  0  0  0
   -0.6179    0.4477   44.8692 O   0  0  0  0  0  0  0  0  0  0  0  0
    1.7591    0.1862   44.4971 C   0  0  1  0  0  0  0  0  0  0  0  0
    1.6693    0.6972   43.1341 O   0  0  0  0  0  0  0  0  0  0  0  0
    3.1926    0.4568   45.0601 C   0  0  1  0  0  0  0  0  0  0  0  0
    3.3157    0.1384   46.5846 C   0  0  1  0  0  0  0  0  0  0  0  0
    4.6517    0.4975   47.1096 N   0  3  0  0  0  0  0  0  0  0  0  0
    2.2206    0.8852   47.3893 C   0  0  0  0  0  0  0  0  0  0  0  0
    0.4844    0.4132   42.3233 C   0  0  1  0  0  0  0  0  0  0  0  0
    0.8361    0.6373   40.8406 C   0  0  2  0  0  0  0  0  0  0  0  0
   -0.3276    0.9489   40.0798 O   0  0  0  0  0  0  0  0  0  0  0  0
    1.3908   -0.7568   40.5111 C   0  0  1  0  0  0  0  0  0  0  0  0
    0.3958   -1.6742   41.2025 C   0  0  2  0  0  0  0  0  0  0  0  0
    0.1390   -0.9803   42.4138 O   0  0  0  0  0  0  0  0  0  0  0  0
    0.9080   -3.0900   41.4973 C   0  0  0  0  0  0  0  0  0  0  0  0
    1.2395   -3.7505   40.2848 O   0  0  0  0  0  0  0  0  0  0  0  0
    4.1289    0.5305   36.0745 C   0  0  1  0  0  0  0  0  0  0  0  0
    3.1747    0.4633   35.0164 O   0  0  0  0  0  0  0  0  0  0  0  0
    3.6254    1.5221   37.1603 C   0  0  2  0  0  0  0  0  0  0  0  0
    4.7217    1.8647   38.0049 O   0  0  0  0  0  0  0  0  0  0  0  0
    2.4489    1.0014   38.0494 C   0  0  1  0  0  0  0  0  0  0  0  0
    1.1519    1.2455   37.3808 N   0  3  0  0  0  0  0  0  0  0  0  0
    2.6449   -0.4829   38.4558 C   0  0  1  0  0  0  0  0  0  0  0  0
    1.4890   -1.0772   39.0961 O   0  0  0  0  0  0  0  0  0  0  0  0
    4.3355   -0.8714   36.7013 C   0  0  1  0  0  0  0  0  0  0  0  0
    3.0743   -1.2778   37.2995 O   0  0  0  0  0  0  0  0  0  0  0  0
    4.8395   -1.9315   35.7042 C   0  0  0  0  0  0  0  0  0  0  0  0
    6.2048   -1.6528   35.2174 N   0  3  0  0  0  0  0  0  0  0  0  0
  1  2  1  6  0  0  0
  1  3  1  0  0  0  0
  1 10  1  0  0  0  0
  3  4  1  6  0  0  0
  3  5  1  0  0  0  0
  5  6  1  1  0  0  0
  5  7  1  0  0  0  0
  7  8  1  6  0  0  0
  7  9  1  0  0  0  0
  9 10  1  0  0  0  0
  9 11  1  1  0  0  0
 11 12  1  0  0  0  0
 13 14  1  1  0  0  0
 13 15  1  0  0  0  0
 13 22  1  0  0  0  0
 15 16  1  6  0  0  0
 15 17  1  0  0  0  0
 17 18  1  6  0  0  0
 17 19  1  0  0  0  0
 19  2  1  6  0  0  0
 19 20  1  0  0  0  0
 20 21  1  1  0  0  0
 20 22  1  0  0  0  0
 23 18  1  1  0  0  0
 23 24  1  0  0  0  0
 23 28  1  0  0  0  0
 24 25  1  6  0  0  0
 24 26  1  0  0  0  0
 26 27  1  0  0  0  0
 26 38  1  6  0  0  0
 27 28  1  0  0  0  0
 27 29  1  1  0  0  0
 29 30  1  0  0  0  0
 31 32  1  6  0  0  0
 31 33  1  0  0  0  0
 31 39  1  0  0  0  0
 33 34  1  1  0  0  0
 33 35  1  0  0  0  0
 35 36  1  6  0  0  0
 35 37  1  0  0  0  0
 37 38  1  6  0  0  0
 37 40  1  0  0  0  0
 39 40  1  0  0  0  0
 39 41  1  6  0  0  0
 41 42  1  0  0  0  0
M  CHG  5   4   1  14   1  21   1  36   1  42   1
M  END
>  <CHROM.1>
-174.95046953,-99.54286280,158.11732845,64.22627244,178.43582617,58.28924947
69.86761159,168.22400254,74.89842644,-65.28340572,-161.14650595,59.36293614
59.13551646,78.88124569,-61.40720464,-65.36159322,-62.84644170,-56.66824986
-39.95433757,-81.45980810,66.44400473,167.95099240,2.70161747,-0.93836793
41.86979576,-1.75306732,0.73595488,-1.38752863

>  <Name>
1pbr

>  <RI>
0

>  <Rbt.Current_Directory>
/home/itssahil/PROJECTS/Mol_Feturizer/New_Systems/rnas/1pbr

>  <Rbt.Executable>
rbdock ($Id: //depot/dev/client3/rdock/2013.1/src/exe/rbdock.cxx#4 $)

>  <Rbt.Library>
libRbt.so (2013.1, Build901 2013/11/27)

>  <Rbt.Parameter_File>
/export/apps/rDock/src/rDock_2013.1_src/data/scripts/dock_solv.prm

>  <Rbt.Receptor>
prm/pocket_docking_5.prm

>  <SCORE>
-52.882

>  <SCORE.INTER>
-48.2606

>  <SCORE.INTER.CONST>
1

>  <SCORE.INTER.POLAR>
-6.22834

>  <SCORE.INTER.ROT>
9

>  <SCORE.INTER.SOLV>
39.2129

>  <SCORE.INTER.VDW>
-34.0835

>  <SCORE.INTER.norm>
-1.14906

>  <SCORE.INTRA>
-4.62146

>  <SCORE.INTRA.DIHEDRAL>
-13.2938

>  <SCORE.INTRA.DIHEDRAL.0>
29.7866

>  <SCORE.INTRA.POLAR>
-0.170162

>  <SCORE.INTRA.POLAR.0>
-0.984091

>  <SCORE.INTRA.REPUL>
-0.200769

>  <SCORE.INTRA.REPUL.0>
0.274115

>  <SCORE.INTRA.SOLV>
1.46068

>  <SCORE.INTRA.SOLV.lig_0>
-152.978

>  <SCORE.INTRA.VDW>
2.87751

>  <SCORE.INTRA.VDW.0>
-6.10719

>  <SCORE.INTRA.norm>
-0.110035

>  <SCORE.RESTR>
0

>  <SCORE.RESTR.CAVITY>
0

>  <SCORE.RESTR.norm>
0

>  <SCORE.SYSTEM>
0

>  <SCORE.SYSTEM.CONST>
0

>  <SCORE.SYSTEM.DIHEDRAL>
0

>  <SCORE.SYSTEM.SOLV>
0

>  <SCORE.SYSTEM.norm>
0

>  <SCORE.heavy>
42

>  <SCORE.norm>
-1.2591

>  <RMSD>
5.321

$$$$
1pbr
 OpenBabel11021811403D
libRbt.so/2013.1/901 2013/11/27
 42 45  0  0  0  0  0  0  0  0999 V2000
    4.3554   -2.6055   40.4892 C   0  0  2  0  0  0  0  0  0  0  0  0
    3.9324   -3.9010   40.9851 O   0  0  0  0  0  0  0  0  0  0  0  0
    4.4597   -2.6148   38.9184 C   0  0  2  0  0  0  0  0  0  0  0  0
    3.3577   -3.3378   38.2320 N   0  3  0  0  0  0  0  0  0  0  0  0
    5.7689   -3.2708   38.4408 C   0  0  1  0  0  0  0  0  0  0  0  0
    5.9732   -3.0378   37.0489 O   0  0  0  0  0  0  0  0  0  0  0  0
    6.9737   -2.7368   39.2302 C   0  0  2  0  0  0  0  0  0  0  0  0
    8.1786   -3.3214   38.7457 O   0  0  0  0  0  0  0  0  0  0  0  0
    6.7763   -2.9582   40.7462 C   0  0  2  0  0  0  0  0  0  0  0  0
    5.6011   -2.2128   41.1290 O   0  0  0  0  0  0  0  0  0  0  0  0
    7.9411   -2.4735   41.6078 C   0  0  0  0  0  0  0  0  0  0  0  0
    7.6712   -2.6598   42.9909 O   0  0  0  0  0  0  0  0  0  0  0  0
    0.2222   -5.3402   42.5250 C   0  0  1  0  0  0  0  0  0  0  0  0
   -1.0120   -5.5952   43.2902 N   0  3  0  0  0  0  0  0  0  0  0  0
    0.1834   -3.9710   41.7810 C   0  0  2  0  0  0  0  0  0  0  0  0
   -0.9197   -3.9261   40.8788 O   0  0  0  0  0  0  0  0  0  0  0  0
    1.4908   -3.7307   40.9708 C   0  0  1  0  0  0  0  0  0  0  0  0
    1.4674   -2.3723   40.4404 O   0  0  0  0  0  0  0  0  0  0  0  0
    2.7703   -3.9238   41.8487 C   0  0  1  0  0  0  0  0  0  0  0  0
    2.7706   -5.2758   42.6315 C   0  0  1  0  0  0  0  0  0  0  0  0
    3.9428   -5.3857   43.5278 N   0  3  0  0  0  0  0  0  0  0  0  0
    1.4666   -5.4305   43.4561 C   0  0  0  0  0  0  0  0  0  0  0  0
    1.3031   -1.2358   41.3477 C   0  0  1  0  0  0  0  0  0  0  0  0
    2.3214   -0.1463   40.9629 C   0  0  2  0  0  0  0  0  0  0  0  0
    2.6276    0.6854   42.0785 O   0  0  0  0  0  0  0  0  0  0  0  0
    1.4953    0.5901   39.8974 C   0  0  1  0  0  0  0  0  0  0  0  0
    0.1190    0.6523   40.5389 C   0  0  2  0  0  0  0  0  0  0  0  0
    0.0161   -0.6230   41.1535 O   0  0  0  0  0  0  0  0  0  0  0  0
   -1.0464    0.8706   39.5654 C   0  0  0  0  0  0  0  0  0  0  0  0
   -1.0286    2.2030   39.0749 O   0  0  0  0  0  0  0  0  0  0  0  0
    1.7918    4.1237   35.8329 C   0  0  1  0  0  0  0  0  0  0  0  0
    2.7959    5.0702   36.1941 O   0  0  0  0  0  0  0  0  0  0  0  0
    2.4197    2.7031   35.7743 C   0  0  2  0  0  0  0  0  0  0  0  0
    1.5307    1.8431   35.0654 O   0  0  0  0  0  0  0  0  0  0  0  0
    2.7458    2.0571   37.1607 C   0  0  1  0  0  0  0  0  0  0  0  0
    4.0728    2.5050   37.6376 N   0  3  0  0  0  0  0  0  0  0  0  0
    1.6187    2.3111   38.1960 C   0  0  1  0  0  0  0  0  0  0  0  0
    1.9615    1.9228   39.5491 O   0  0  0  0  0  0  0  0  0  0  0  0
    0.6379    4.1437   36.8667 C   0  0  1  0  0  0  0  0  0  0  0  0
    1.1817    3.7110   38.1437 O   0  0  0  0  0  0  0  0  0  0  0  0
   -0.0567    5.5121   36.9987 C   0  0  0  0  0  0  0  0  0  0  0  0
    0.8332    6.6385   36.6552 N   0  3  0  0  0  0  0  0  0  0  0  0
  1  2  1  1  0  0  0
  1  3  1  0  0  0  0
  1 10  1  0  0  0  0
  3  4  1  6  0  0  0
  3  5  1  0  0  0  0
  5  6  1  6  0  0  0
  5  7  1  0  0  0  0
  7  8  1  6  0  0  0
  7  9  1  0  0  0  0
  9 10  1  0  0  0  0
  9 11  1  1  0  0  0
 11 12  1  0  0  0  0
 13 14  1  1  0  0  0
 13 15  1  0  0  0  0
 13 22  1  0  0  0  0
 15 16  1  6  0  0  0
 15 17  1  0  0  0  0
 17 18  1  1  0  0  0
 17 19  1  0  0  0  0
 19  2  1  6  0  0  0
 19 20  1  0  0  0  0
 20 21  1  1  0  0  0
 20 22  1  0  0  0  0
 23 18  1  6  0  0  0
 23 24  1  0  0  0  0
 23 28  1  0  0  0  0
 24 25  1  1  0  0  0
 24 26  1  0  0  0  0
 26 27  1  0  0  0  0
 26 38  1  1  0  0  0
 27 28  1  0  0  0  0
 27 29  1  6  0  0  0
 29 30  1  0  0  0  0
 31 32  1  1  0  0  0
 31 33  1  0  0  0  0
 31 39  1  0  0  0  0
 33 34  1  1  0  0  0
 33 35  1  0  0  0  0
 35 36  1  1  0  0  0
 35 37  1  0  0  0  0
 37 38  1  1  0  0  0
 37 40  1  0  0  0  0
 39 40  1  0  0  0  0
 39 41  1  1  0  0  0
 41 42  1  0  0  0  0
M  CHG  5   4   1  14   1  21   1  36   1  42   1
M  END
>  <CHROM.1>
-125.78450225,75.73368428,165.29387748,-63.32583096,50.74166400,177.71558350
-176.00415346,-177.73418027,-58.50592192,56.19683954,134.88774051,-175.76517928
67.30116404,152.20476720,-71.83341622,-171.62022295,57.36449112,63.04269293
-68.32360087,-95.63100358,-27.15662705,-23.26751562,2.65031603,-0.79792707
39.71184077,-1.31783360,0.24604738,-0.58542378

>  <Name>
1pbr

>  <RI>
0

>  <Rbt.Current_Directory>
/home/itssahil/PROJECTS/Mol_Feturizer/New_Systems/rnas/1pbr

>  <Rbt.Executable>
rbdock ($Id: //depot/dev/client3/rdock/2013.1/src/exe/rbdock.cxx#4 $)

>  <Rbt.Library>
libRbt.so (2013.1, Build901 2013/11/27)

>  <Rbt.Parameter_File>
/export/apps/rDock/src/rDock_2013.1_src/data/scripts/dock_solv.prm

>  <Rbt.Receptor>
prm/pocket_docking_8.prm

>  <SCORE>
-35.566

>  <SCORE.INTER>
-32.9111

>  <SCORE.INTER.CONST>
1

>  <SCORE.INTER.POLAR>
-5.66869

>  <SCORE.INTER.ROT>
9

>  <SCORE.INTER.SOLV>
19.9538

>  <SCORE.INTER.VDW>
-19.2963

>  <SCORE.INTER.norm>
-0.783597

>  <SCORE.INTRA>
-2.65488

>  <SCORE.INTRA.DIHEDRAL>
1.22142

>  <SCORE.INTRA.DIHEDRAL.0>
29.7866

>  <SCORE.INTRA.POLAR>
-1.0298

>  <SCORE.INTRA.POLAR.0>
-0.984091

>  <SCORE.INTRA.REPUL>
-0.274115

>  <SCORE.INTRA.REPUL.0>
0.274115

>  <SCORE.INTRA.SOLV>
1.84986

>  <SCORE.INTRA.SOLV.lig_0>
-152.978

>  <SCORE.INTRA.VDW>
0.681379

>  <SCORE.INTRA.VDW.0>
-6.10719

>  <SCORE.INTRA.norm>
-0.0632113

>  <SCORE.RESTR>
0

>  <SCORE.RESTR.CAVITY>
0

>  <SCORE.RESTR.norm>
0

>  <SCORE.SYSTEM>
0

>  <SCORE.SYSTEM.CONST>
0

>  <SCORE.SYSTEM.DIHEDRAL>
0

>  <SCORE.SYSTEM.SOLV>
0

>  <SCORE.SYSTEM.norm>
0

>  <SCORE.heavy>
42

>  <SCORE.norm>
-0.846808

>  <RMSD>
5.321

$$$$
1pbr
 OpenBabel11021811403D
libRbt.so/2013.1/901 2013/11/27
 42 45  0  0  0  0  0  0  0  0999 V2000
    2.9674   -3.8841   43.3468 C   0  0  2  0  0  0  0  0  0  0  0  0
    3.8554   -2.9173   42.7305 O   0  0  0  0  0  0  0  0  0  0  0  0
    2.7173   -5.1058   42.3860 C   0  0  2  0  0  0  0  0  0  0  0  0
    3.9263   -5.5786   41.6628 N   0  3  0  0  0  0  0  0  0  0  0  0
    1.6713   -4.7727   41.3055 C   0  0  1  0  0  0  0  0  0  0  0  0
    1.2625   -5.9522   40.6162 O   0  0  0  0  0  0  0  0  0  0  0  0
    0.4412   -4.0884   41.9205 C   0  0  2  0  0  0  0  0  0  0  0  0
   -0.5324   -3.8279   40.9143 O   0  0  0  0  0  0  0  0  0  0  0  0
    0.8518   -2.8138   42.6907 C   0  0  2  0  0  0  0  0  0  0  0  0
    1.7325   -3.2328   43.7547 O   0  0  0  0  0  0  0  0  0  0  0  0
   -0.3169   -2.0568   43.3192 C   0  0  0  0  0  0  0  0  0  0  0  0
   -0.9983   -2.8610   44.2729 O   0  0  0  0  0  0  0  0  0  0  0  0
    3.7592   -0.2871   46.0892 C   0  0  1  0  0  0  0  0  0  0  0  0
    3.9708    0.7844   47.0796 N   0  3  0  0  0  0  0  0  0  0  0  0
    3.1262    0.2463   44.7684 C   0  0  2  0  0  0  0  0  0  0  0  0
    1.8695    0.8652   45.0333 O   0  0  0  0  0  0  0  0  0  0  0  0
    2.9010   -0.9045   43.7444 C   0  0  1  0  0  0  0  0  0  0  0  0
    2.4701   -0.3237   42.4779 O   0  0  0  0  0  0  0  0  0  0  0  0
    4.1969   -1.7489   43.5147 C   0  0  1  0  0  0  0  0  0  0  0  0
    4.8513   -2.2310   44.8489 C   0  0  1  0  0  0  0  0  0  0  0  0
    6.1265   -2.9408   44.6044 N   0  3  0  0  0  0  0  0  0  0  0  0
    5.0953   -1.0328   45.8024 C   0  0  0  0  0  0  0  0  0  0  0  0
    3.1102    0.8929   41.9760 C   0  0  1  0  0  0  0  0  0  0  0  0
    3.9326    0.5367   40.7234 C   0  0  2  0  0  0  0  0  0  0  0  0
    4.9966    1.4642   40.5287 O   0  0  0  0  0  0  0  0  0  0  0  0
    2.8314    0.6832   39.6624 C   0  0  1  0  0  0  0  0  0  0  0  0
    2.1265    1.9567   40.0993 C   0  0  2  0  0  0  0  0  0  0  0  0
    2.1176    1.8254   41.5126 O   0  0  0  0  0  0  0  0  0  0  0  0
    0.6964    2.1262   39.5705 C   0  0  0  0  0  0  0  0  0  0  0  0
    0.6929    2.0804   38.1513 O   0  0  0  0  0  0  0  0  0  0  0  0
    4.9222   -2.5551   36.0972 C   0  0  1  0  0  0  0  0  0  0  0  0
    3.9755   -2.4895   35.0322 O   0  0  0  0  0  0  0  0  0  0  0  0
    5.7708   -1.2530   36.1134 C   0  0  2  0  0  0  0  0  0  0  0  0
    6.9304   -1.4774   36.9118 O   0  0  0  0  0  0  0  0  0  0  0  0
    5.0337    0.0204   36.6434 C   0  0  1  0  0  0  0  0  0  0  0  0
    4.2680    0.6630   35.5526 N   0  3  0  0  0  0  0  0  0  0  0  0
    4.1600   -0.2930   37.8865 C   0  0  1  0  0  0  0  0  0  0  0  0
    3.2924    0.7957   38.2878 O   0  0  0  0  0  0  0  0  0  0  0  0
    4.1933   -2.7219   37.4542 C   0  0  1  0  0  0  0  0  0  0  0  0
    3.3949   -1.5273   37.6762 O   0  0  0  0  0  0  0  0  0  0  0  0
    3.3240   -3.9901   37.5428 C   0  0  0  0  0  0  0  0  0  0  0  0
    2.5796   -4.0834   38.8139 N   0  3  0  0  0  0  0  0  0  0  0  0
  1  2  1  6  0  0  0
  1  3  1  0  0  0  0
  1 10  1  0  0  0  0
  3  4  1  6  0  0  0
  3  5  1  0  0  0  0
  5  6  1  1  0  0  0
  5  7  1  0  0  0  0
  7  8  1  6  0  0  0
  7  9  1  0  0  0  0
  9 10  1  0  0  0  0
  9 11  1  1  0  0  0
 11 12  1  0  0  0  0
 13 14  1  1  0  0  0
 13 15  1  0  0  0  0
 13 22  1  0  0  0  0
 15 16  1  1  0  0  0
 15 17  1  0  0  0  0
 17 18  1  6  0  0  0
 17 19  1  0  0  0  0
 19  2  1  6  0  0  0
 19 20  1  0  0  0  0
 20 21  1  6  0  0  0
 20 22  1  0  0  0  0
 23 18  1  6  0  0  0
 23 24  1  0  0  0  0
 23 28  1  0  0  0  0
 24 25  1  6  0  0  0
 24 26  1  0  0  0  0
 26 27  1  0  0  0  0
 26 38  1  6  0  0  0
 27 28  1  0  0  0  0
 27 29  1  6  0  0  0
 29 30  1  0  0  0  0
 31 32  1  6  0  0  0
 31 33  1  0  0  0  0
 31 39  1  0  0  0  0
 33 34  1  1  0  0  0
 33 35  1  0  0  0  0
 35 36  1  6  0  0  0
 35 37  1  0  0  0  0
 37 38  1  6  0  0  0
 37 40  1  0  0  0  0
 39 40  1  0  0  0  0
 39 41  1  6  0  0  0
 41 42  1  0  0  0  0
M  CHG  5   4   1  14   1  21   1  36   1  42   1
M  END
>  <CHROM.1>
-178.78392130,-65.19517980,-55.81721558,60.22184998,177.96839481,61.27255440
-119.76535978,70.16757399,58.26418575,41.80571265,111.16913373,54.98088665
-53.81503654,54.59907542,-57.27496232,176.11828005,-64.11246735,-176.67568030
-154.63214638,-160.46693504,-176.61618840,-171.56151965,3.03424730,-1.47990502
41.00738714,2.37043377,1.31504400,0.87773788

>  <Name>
1pbr

>  <RI>
0

>  <Rbt.Current_Directory>
/home/itssahil/PROJECTS/Mol_Feturizer/New_Systems/rnas/1pbr

>  <Rbt.Executable>
rbdock ($Id: //depot/dev/client3/rdock/2013.1/src/exe/rbdock.cxx#4 $)

>  <Rbt.Library>
libRbt.so (2013.1, Build901 2013/11/27)

>  <Rbt.Parameter_File>
/export/apps/rDock/src/rDock_2013.1_src/data/scripts/dock_solv.prm

>  <Rbt.Receptor>
prm/pocket_docking_6.prm

>  <SCORE>
-32.73

>  <SCORE.INTER>
-34.3652

>  <SCORE.INTER.CONST>
1

>  <SCORE.INTER.POLAR>
-4.36808

>  <SCORE.INTER.ROT>
9

>  <SCORE.INTER.SOLV>
23.0316

>  <SCORE.INTER.VDW>
-25.6271

>  <SCORE.INTER.norm>
-0.818219

>  <SCORE.INTRA>
1.63519

>  <SCORE.INTRA.DIHEDRAL>
-9.09452

>  <SCORE.INTRA.DIHEDRAL.0>
29.7866

>  <SCORE.INTRA.POLAR>
0.299499

>  <SCORE.INTRA.POLAR.0>
-0.984091

>  <SCORE.INTRA.REPUL>
-0.252772

>  <SCORE.INTRA.REPUL.0>
0.274115

>  <SCORE.INTRA.SOLV>
6.43697

>  <SCORE.INTRA.SOLV.lig_0>
-152.978

>  <SCORE.INTRA.VDW>
3.20952

>  <SCORE.INTRA.VDW.0>
-6.10719

>  <SCORE.INTRA.norm>
0.038933

>  <SCORE.RESTR>
0

>  <SCORE.RESTR.CAVITY>
0

>  <SCORE.RESTR.norm>
0

>  <SCORE.SYSTEM>
0

>  <SCORE.SYSTEM.CONST>
0

>  <SCORE.SYSTEM.DIHEDRAL>
0

>  <SCORE.SYSTEM.SOLV>
0

>  <SCORE.SYSTEM.norm>
0

>  <SCORE.heavy>
42

>  <SCORE.norm>
-0.779286

>  <RMSD>
5.326

$$$$
1pbr
 OpenBabel11021811403D
libRbt.so/2013.1/901 2013/11/27
 42 45  0  0  0  0  0  0  0  0999 V2000
    3.4067   -3.5721   43.8149 C   0  0  2  0  0  0  0  0  0  0  0  0
    4.3544   -2.4851   43.6619 O   0  0  0  0  0  0  0  0  0  0  0  0
    3.8062   -4.7944   42.9068 C   0  0  2  0  0  0  0  0  0  0  0  0
    5.2621   -5.0905   42.8776 N   0  3  0  0  0  0  0  0  0  0  0  0
    3.3813   -4.5757   41.4424 C   0  0  1  0  0  0  0  0  0  0  0  0
    3.5067   -5.7827   40.6935 O   0  0  0  0  0  0  0  0  0  0  0  0
    1.9332   -4.0703   41.3576 C   0  0  2  0  0  0  0  0  0  0  0  0
    1.5441   -3.9158   39.9963 O   0  0  0  0  0  0  0  0  0  0  0  0
    1.7585   -2.7705   42.1741 C   0  0  2  0  0  0  0  0  0  0  0  0
    2.0588   -3.0954   43.5480 O   0  0  0  0  0  0  0  0  0  0  0  0
    0.3480   -2.1853   42.1274 C   0  0  0  0  0  0  0  0  0  0  0  0
   -0.5918   -3.0565   42.7425 O   0  0  0  0  0  0  0  0  0  0  0  0
    2.6397   -0.1881   46.8229 C   0  0  1  0  0  0  0  0  0  0  0  0
    2.3032    0.8181   47.8467 N   0  3  0  0  0  0  0  0  0  0  0  0
    2.4202    0.3463   45.3752 C   0  0  2  0  0  0  0  0  0  0  0  0
    1.0615    0.7364   45.1894 O   0  0  0  0  0  0  0  0  0  0  0  0
    2.7698   -0.7373   44.3135 C   0  0  1  0  0  0  0  0  0  0  0  0
    2.7093   -0.1291   42.9894 O   0  0  0  0  0  0  0  0  0  0  0  0
    4.1919   -1.3462   44.5412 C   0  0  1  0  0  0  0  0  0  0  0  0
    4.4176   -1.8278   46.0102 C   0  0  1  0  0  0  0  0  0  0  0  0
    5.8020   -2.3062   46.2197 N   0  3  0  0  0  0  0  0  0  0  0  0
    4.1013   -0.6888   47.0137 C   0  0  0  0  0  0  0  0  0  0  0  0
    3.7411    0.8219   42.5737 C   0  0  1  0  0  0  0  0  0  0  0  0
    4.9479    0.0341   42.0305 C   0  0  2  0  0  0  0  0  0  0  0  0
    6.1498    0.7894   42.1537 O   0  0  0  0  0  0  0  0  0  0  0  0
    4.5009   -0.1138   40.5683 C   0  0  1  0  0  0  0  0  0  0  0  0
    3.9523    1.2684   40.2548 C   0  0  2  0  0  0  0  0  0  0  0  0
    3.2794    1.6047   41.4584 O   0  0  0  0  0  0  0  0  0  0  0  0
    2.9840    1.3331   39.0666 C   0  0  0  0  0  0  0  0  0  0  0  0
    1.7270    0.7827   39.4318 O   0  0  0  0  0  0  0  0  0  0  0  0
    4.9523   -2.5721   35.8892 C   0  0  1  0  0  0  0  0  0  0  0  0
    5.8013   -1.7188   35.1238 O   0  0  0  0  0  0  0  0  0  0  0  0
    5.7959   -3.3020   36.9716 C   0  0  2  0  0  0  0  0  0  0  0  0
    5.0397   -4.4032   37.4696 O   0  0  0  0  0  0  0  0  0  0  0  0
    6.2486   -2.4160   38.1781 C   0  0  1  0  0  0  0  0  0  0  0  0
    7.4976   -1.6953   37.8470 N   0  3  0  0  0  0  0  0  0  0  0  0
    5.1171   -1.4682   38.6558 C   0  0  1  0  0  0  0  0  0  0  0  0
    5.5450   -0.4794   39.6245 O   0  0  0  0  0  0  0  0  0  0  0  0
    3.8314   -1.7457   36.5683 C   0  0  1  0  0  0  0  0  0  0  0  0
    4.4631   -0.8321   37.5064 O   0  0  0  0  0  0  0  0  0  0  0  0
    2.9319   -0.9834   35.5774 C   0  0  0  0  0  0  0  0  0  0  0  0
    3.6947   -0.0791   34.6947 N   0  3  0  0  0  0  0  0  0  0  0  0
  1  2  1  6  0  0  0
  1  3  1  0  0  0  0
  1 10  1  0  0  0  0
  3  4  1  6  0  0  0
  3  5  1  0  0  0  0
  5  6  1  6  0  0  0
  5  7  1  0  0  0  0
  7  8  1  6  0  0  0
  7  9  1  0  0  0  0
  9 10  1  0  0  0  0
  9 11  1  1  0  0  0
 11 12  1  0  0  0  0
 13 14  1  1  0  0  0
 13 15  1  0  0  0  0
 13 22  1  0  0  0  0
 15 16  1  1  0  0  0
 15 17  1  0  0  0  0
 17 18  1  6  0  0  0
 17 19  1  0  0  0  0
 19  2  1  6  0  0  0
 19 20  1  0  0  0  0
 20 21  1  6  0  0  0
 20 22  1  0  0  0  0
 23 18  1  6  0  0  0
 23 24  1  0  0  0  0
 23 28  1  0  0  0  0
 24 25  1  6  0  0  0
 24 26  1  0  0  0  0
 26 27  1  0  0  0  0
 26 38  1  6  0  0  0
 27 28  1  0  0  0  0
 27 29  1  6  0  0  0
 29 30  1  0  0  0  0
 31 32  1  1  0  0  0
 31 33  1  0  0  0  0
 31 39  1  0  0  0  0
 33 34  1  1  0  0  0
 33 35  1  0  0  0  0
 35 36  1  6  0  0  0
 35 37  1  0  0  0  0
 37 38  1  1  0  0  0
 37 40  1  0  0  0  0
 39 40  1  0  0  0  0
 39 41  1  6  0  0  0
 41 42  1  0  0  0  0
M  CHG  5   4   1  14   1  21   1  36   1  42   1
M  END
>  <CHROM.1>
-173.77068347,-59.27684556,-48.48316491,-73.48722565,-179.31460536,64.86775308
-166.80929091,-169.46461343,-178.70475915,71.53702252,84.00748263,-52.15995490
-54.53832546,138.19162525,74.14018104,-56.85823750,63.24344658,61.27471522
86.06596587,-148.62253854,-56.51248013,22.22586308,3.70279529,-1.57101702
41.28369504,-3.09205095,1.36599998,-0.13490362

>  <Name>
1pbr

>  <RI>
0

>  <Rbt.Current_Directory>
/home/itssahil/PROJECTS/Mol_Feturizer/New_Systems/rnas/1pbr

>  <Rbt.Executable>
rbdock ($Id: //depot/dev/client3/rdock/2013.1/src/exe/rbdock.cxx#4 $)

>  <Rbt.Library>
libRbt.so (2013.1, Build901 2013/11/27)

>  <Rbt.Parameter_File>
/export/apps/rDock/src/rDock_2013.1_src/data/scripts/dock_solv.prm

>  <Rbt.Receptor>
prm/pocket_docking_6.prm

>  <SCORE>
-43.6181

>  <SCORE.INTER>
-39.755

>  <SCORE.INTER.CONST>
1

>  <SCORE.INTER.POLAR>
-5.88001

>  <SCORE.INTER.ROT>
9

>  <SCORE.INTER.SOLV>
25.3634

>  <SCORE.INTER.VDW>
-24.9578

>  <SCORE.INTER.norm>
-0.946548

>  <SCORE.INTRA>
-3.86303

>  <SCORE.INTRA.DIHEDRAL>
-9.1075

>  <SCORE.INTRA.DIHEDRAL.0>
29.7866

>  <SCORE.INTRA.POLAR>
-0.0343058

>  <SCORE.INTRA.POLAR.0>
-0.984091

>  <SCORE.INTRA.REPUL>
-0.230745

>  <SCORE.INTRA.REPUL.0>
0.274115

>  <SCORE.INTRA.SOLV>
-0.237947

>  <SCORE.INTRA.SOLV.lig_0>
-152.978

>  <SCORE.INTRA.VDW>
2.08006

>  <SCORE.INTRA.VDW.0>
-6.10719

>  <SCORE.INTRA.norm>
-0.0919769

>  <SCORE.RESTR>
0

>  <SCORE.RESTR.CAVITY>
0

>  <SCORE.RESTR.norm>
0

>  <SCORE.SYSTEM>
0

>  <SCORE.SYSTEM.CONST>
0

>  <SCORE.SYSTEM.DIHEDRAL>
0

>  <SCORE.SYSTEM.SOLV>
0

>  <SCORE.SYSTEM.norm>
0

>  <SCORE.heavy>
42

>  <SCORE.norm>
-1.03853

>  <RMSD>
5.333

$$$$
1pbr
 OpenBabel11021811403D
libRbt.so/2013.1/901 2013/11/27
 42 45  0  0  0  0  0  0  0  0999 V2000
    0.7209    0.7289   44.6316 C   0  0  2  0  0  0  0  0  0  0  0  0
    2.1407    0.4966   44.8144 O   0  0  0  0  0  0  0  0  0  0  0  0
    0.0033    0.9259   46.0189 C   0  0  2  0  0  0  0  0  0  0  0  0
    0.7615    1.7533   46.9930 N   0  3  0  0  0  0  0  0  0  0  0  0
   -0.2652   -0.4217   46.7150 C   0  0  1  0  0  0  0  0  0  0  0  0
   -1.1402   -0.2510   47.8279 O   0  0  0  0  0  0  0  0  0  0  0  0
   -0.8757   -1.4363   45.7364 C   0  0  2  0  0  0  0  0  0  0  0  0
   -1.1572   -2.6605   46.4076 O   0  0  0  0  0  0  0  0  0  0  0  0
    0.0408   -1.6319   44.5083 C   0  0  2  0  0  0  0  0  0  0  0  0
    0.1388   -0.3510   43.8504 O   0  0  0  0  0  0  0  0  0  0  0  0
   -0.4820   -2.6440   43.4902 C   0  0  0  0  0  0  0  0  0  0  0  0
    0.4617   -2.8626   42.4500 O   0  0  0  0  0  0  0  0  0  0  0  0
    5.2775    0.6000   41.9235 C   0  0  1  0  0  0  0  0  0  0  0  0
    6.2182    0.3473   40.8166 N   0  3  0  0  0  0  0  0  0  0  0  0
    3.8485    0.9577   41.4139 C   0  0  2  0  0  0  0  0  0  0  0  0
    3.8908    2.1195   40.5886 O   0  0  0  0  0  0  0  0  0  0  0  0
    2.8778    1.2323   42.5996 C   0  0  1  0  0  0  0  0  0  0  0  0
    1.5284    1.3918   42.0697 O   0  0  0  0  0  0  0  0  0  0  0  0
    2.8902    0.0739   43.6499 C   0  0  1  0  0  0  0  0  0  0  0  0
    4.3322   -0.3114   44.1111 C   0  0  1  0  0  0  0  0  0  0  0  0
    4.3186   -1.4735   45.0269 N   0  3  0  0  0  0  0  0  0  0  0  0
    5.2331   -0.6214   42.8877 C   0  0  0  0  0  0  0  0  0  0  0  0
    0.9487    0.3509   41.2199 C   0  0  1  0  0  0  0  0  0  0  0  0
   -0.3727    0.8763   40.6284 C   0  0  2  0  0  0  0  0  0  0  0  0
   -1.2483   -0.1978   40.2972 O   0  0  0  0  0  0  0  0  0  0  0  0
    0.1842    1.5788   39.3809 C   0  0  1  0  0  0  0  0  0  0  0  0
    1.2090    0.5775   38.8743 C   0  0  2  0  0  0  0  0  0  0  0  0
    1.7925    0.1085   40.0803 O   0  0  0  0  0  0  0  0  0  0  0  0
    2.2878    1.1573   37.9503 C   0  0  0  0  0  0  0  0  0  0  0  0
    2.9995    0.1068   37.3129 O   0  0  0  0  0  0  0  0  0  0  0  0
   -0.4852    5.2412   35.6345 C   0  0  1  0  0  0  0  0  0  0  0  0
   -0.6889    4.4723   34.4504 O   0  0  0  0  0  0  0  0  0  0  0  0
   -1.7612    5.1727   36.5192 C   0  0  2  0  0  0  0  0  0  0  0  0
   -1.6978    6.2165   37.4882 O   0  0  0  0  0  0  0  0  0  0  0  0
   -1.9919    3.8138   37.2582 C   0  0  1  0  0  0  0  0  0  0  0  0
   -2.6888    2.8573   36.3702 N   0  3  0  0  0  0  0  0  0  0  0  0
   -0.6727    3.2411   37.8400 C   0  0  1  0  0  0  0  0  0  0  0  0
   -0.7886    1.8882   38.3453 O   0  0  0  0  0  0  0  0  0  0  0  0
    0.7305    4.6968   36.4259 C   0  0  1  0  0  0  0  0  0  0  0  0
    0.4091    3.3451   36.8540 O   0  0  0  0  0  0  0  0  0  0  0  0
    2.0519    4.7251   35.6353 C   0  0  0  0  0  0  0  0  0  0  0  0
    2.3178    6.0383   35.0162 N   0  3  0  0  0  0  0  0  0  0  0  0
  1  2  1  1  0  0  0
  1  3  1  0  0  0  0
  1 10  1  0  0  0  0
  3  4  1  1  0  0  0
  3  5  1  0  0  0  0
  5  6  1  1  0  0  0
  5  7  1  0  0  0  0
  7  8  1  1  0  0  0
  7  9  1  0  0  0  0
  9 10  1  0  0  0  0
  9 11  1  6  0  0  0
 11 12  1  0  0  0  0
 13 14  1  6  0  0  0
 13 15  1  0  0  0  0
 13 22  1  0  0  0  0
 15 16  1  6  0  0  0
 15 17  1  0  0  0  0
 17 18  1  6  0  0  0
 17 19  1  0  0  0  0
 19  2  1  1  0  0  0
 19 20  1  0  0  0  0
 20 21  1  1  0  0  0
 20 22  1  0  0  0  0
 23 18  1  1  0  0  0
 23 24  1  0  0  0  0
 23 28  1  0  0  0  0
 24 25  1  6  0  0  0
 24 26  1  0  0  0  0
 26 27  1  0  0  0  0
 26 38  1  6  0  0  0
 27 28  1  0  0  0  0
 27 29  1  6  0  0  0
 29 30  1  0  0  0  0
 31 32  1  6  0  0  0
 31 33  1  0  0  0  0
 31 39  1  0  0  0  0
 33 34  1  1  0  0  0
 33 35  1  0  0  0  0
 35 36  1  6  0  0  0
 35 37  1  0  0  0  0
 37 38  1  6  0  0  0
 37 40  1  0  0  0  0
 39 40  1  0  0  0  0
 39 41  1  6  0  0  0
 41 42  1  0  0  0  0
M  CHG  5   4   1  14   1  21   1  36   1  42   1
M  END
>  <CHROM.1>
169.80140861,65.10904864,120.28793292,-55.35467528,32.38562372,-174.80615583
-59.26368597,-59.74920635,-177.22006282,54.17807118,-171.06567223,-49.05199103
-179.23502105,133.35314254,-167.26205650,-57.23639796,-170.96626823,67.96985774
-166.59380088,-153.93923881,50.04429292,-58.39526077,1.02897567,1.24289945
40.98269684,1.45962083,-0.14918070,2.05525559

>  <Name>
1pbr

>  <RI>
0

>  <Rbt.Current_Directory>
/home/itssahil/PROJECTS/Mol_Feturizer/New_Systems/rnas/1pbr

>  <Rbt.Executable>
rbdock ($Id: //depot/dev/client3/rdock/2013.1/src/exe/rbdock.cxx#4 $)

>  <Rbt.Library>
libRbt.so (2013.1, Build901 2013/11/27)

>  <Rbt.Parameter_File>
/export/apps/rDock/src/rDock_2013.1_src/data/scripts/dock_solv.prm

>  <Rbt.Receptor>
prm/blind_docking_100.prm

>  <SCORE>
-40.4144

>  <SCORE.INTER>
-42.0415

>  <SCORE.INTER.CONST>
1

>  <SCORE.INTER.POLAR>
-5.23791

>  <SCORE.INTER.ROT>
9

>  <SCORE.INTER.SOLV>
41.1813

>  <SCORE.INTER.VDW>
-33.895

>  <SCORE.INTER.norm>
-1.00099

>  <SCORE.INTRA>
-2.44336

>  <SCORE.INTRA.DIHEDRAL>
-9.32604

>  <SCORE.INTRA.DIHEDRAL.0>
29.7866

>  <SCORE.INTRA.POLAR>
0.760294

>  <SCORE.INTRA.POLAR.0>
-0.984091

>  <SCORE.INTRA.REPUL>
-0.274115

>  <SCORE.INTRA.REPUL.0>
0.274115

>  <SCORE.INTRA.SOLV>
-3.25719

>  <SCORE.INTRA.SOLV.lig_0>
-152.978

>  <SCORE.INTRA.VDW>
2.63383

>  <SCORE.INTRA.VDW.0>
-6.10719

>  <SCORE.INTRA.norm>
-0.0581753

>  <SCORE.RESTR>
4.07049

>  <SCORE.RESTR.CAVITY>
4.07049

>  <SCORE.RESTR.norm>
0.0969165

>  <SCORE.SYSTEM>
0

>  <SCORE.SYSTEM.CONST>
0

>  <SCORE.SYSTEM.DIHEDRAL>
0

>  <SCORE.SYSTEM.SOLV>
0

>  <SCORE.SYSTEM.norm>
0

>  <SCORE.heavy>
42

>  <SCORE.norm>
-0.962246

>  <RMSD>
5.336

$$$$
1pbr
 OpenBabel11021811403D
libRbt.so/2013.1/901 2013/11/27
 42 45  0  0  0  0  0  0  0  0999 V2000
    4.2796   -0.6936   42.0087 C   0  0  2  0  0  0  0  0  0  0  0  0
    5.6511   -0.2454   41.8633 O   0  0  0  0  0  0  0  0  0  0  0  0
    3.4055    0.4035   42.7233 C   0  0  2  0  0  0  0  0  0  0  0  0
    3.6782    1.7949   42.2783 N   0  3  0  0  0  0  0  0  0  0  0  0
    3.6147    0.3901   44.2493 C   0  0  1  0  0  0  0  0  0  0  0  0
    2.6346    1.1946   44.9016 O   0  0  0  0  0  0  0  0  0  0  0  0
    3.5506   -1.0415   44.8026 C   0  0  2  0  0  0  0  0  0  0  0  0
    3.7023   -1.0298   46.2186 O   0  0  0  0  0  0  0  0  0  0  0  0
    4.5901   -1.9454   44.1034 C   0  0  2  0  0  0  0  0  0  0  0  0
    4.2469   -1.9719   42.7017 O   0  0  0  0  0  0  0  0  0  0  0  0
    4.6092   -3.3868   44.6095 C   0  0  0  0  0  0  0  0  0  0  0  0
    5.6640   -4.1287   44.0116 O   0  0  0  0  0  0  0  0  0  0  0  0
    8.7429   -1.7445   39.3332 C   0  0  1  0  0  0  0  0  0  0  0  0
    9.8013   -2.5282   38.6703 N   0  3  0  0  0  0  0  0  0  0  0  0
    7.3380   -2.4023   39.1809 C   0  0  2  0  0  0  0  0  0  0  0  0
    6.9984   -2.5369   37.8028 O   0  0  0  0  0  0  0  0  0  0  0  0
    6.2366   -1.5506   39.8774 C   0  0  1  0  0  0  0  0  0  0  0  0
    4.9834   -2.2960   39.8488 O   0  0  0  0  0  0  0  0  0  0  0  0
    6.6052   -1.2105   41.3585 C   0  0  1  0  0  0  0  0  0  0  0  0
    8.0371   -0.6026   41.5030 C   0  0  1  0  0  0  0  0  0  0  0  0
    8.3952   -0.3843   42.9220 N   0  3  0  0  0  0  0  0  0  0  0  0
    9.0915   -1.5220   40.8341 C   0  0  0  0  0  0  0  0  0  0  0  0
    4.3445   -2.6036   38.5685 C   0  0  1  0  0  0  0  0  0  0  0  0
    2.8259   -2.3904   38.7112 C   0  0  2  0  0  0  0  0  0  0  0  0
    2.1069   -3.1834   37.7708 O   0  0  0  0  0  0  0  0  0  0  0  0
    2.7606   -0.8919   38.3792 C   0  0  1  0  0  0  0  0  0  0  0  0
    3.7057   -0.7801   37.1944 C   0  0  2  0  0  0  0  0  0  0  0  0
    4.7568   -1.6593   37.5645 O   0  0  0  0  0  0  0  0  0  0  0  0
    4.2563    0.6269   36.9283 C   0  0  0  0  0  0  0  0  0  0  0  0
    5.1527    0.5993   35.8274 O   0  0  0  0  0  0  0  0  0  0  0  0
    0.3419    3.7630   37.4813 C   0  0  1  0  0  0  0  0  0  0  0  0
   -0.7567    3.7306   38.3906 O   0  0  0  0  0  0  0  0  0  0  0  0
    1.6609    3.4899   38.2566 C   0  0  2  0  0  0  0  0  0  0  0  0
    2.7586    3.8875   37.4383 O   0  0  0  0  0  0  0  0  0  0  0  0
    1.8793    2.0080   38.7060 C   0  0  1  0  0  0  0  0  0  0  0  0
    1.1978    1.7554   39.9947 N   0  3  0  0  0  0  0  0  0  0  0  0
    1.4648    1.0017   37.6003 C   0  0  1  0  0  0  0  0  0  0  0  0
    1.4434   -0.3795   38.0371 O   0  0  0  0  0  0  0  0  0  0  0  0
    0.1545    2.6952   36.3743 C   0  0  1  0  0  0  0  0  0  0  0  0
    0.1772    1.3891   37.0125 O   0  0  0  0  0  0  0  0  0  0  0  0
   -1.1278    2.8795   35.5415 C   0  0  0  0  0  0  0  0  0  0  0  0
   -2.3376    3.0043   36.3778 N   0  3  0  0  0  0  0  0  0  0  0  0
  1  2  1  1  0  0  0
  1  3  1  0  0  0  0
  1 10  1  0  0  0  0
  3  4  1  6  0  0  0
  3  5  1  0  0  0  0
  5  6  1  1  0  0  0
  5  7  1  0  0  0  0
  7  8  1  1  0  0  0
  7  9  1  0  0  0  0
  9 10  1  0  0  0  0
  9 11  1  1  0  0  0
 11 12  1  0  0  0  0
 13 14  1  1  0  0  0
 13 15  1  0  0  0  0
 13 22  1  0  0  0  0
 15 16  1  6  0  0  0
 15 17  1  0  0  0  0
 17 18  1  1  0  0  0
 17 19  1  0  0  0  0
 19  2  1  6  0  0  0
 19 20  1  0  0  0  0
 20 21  1  1  0  0  0
 20 22  1  0  0  0  0
 23 18  1  1  0  0  0
 23 24  1  0  0  0  0
 23 28  1  0  0  0  0
 24 25  1  6  0  0  0
 24 26  1  0  0  0  0
 26 27  1  0  0  0  0
 26 38  1  6  0  0  0
 27 28  1  0  0  0  0
 27 29  1  1  0  0  0
 29 30  1  0  0  0  0
 31 32  1  1  0  0  0
 31 33  1  0  0  0  0
 31 39  1  0  0  0  0
 33 34  1  6  0  0  0
 33 35  1  0  0  0  0
 35 36  1  1  0  0  0
 35 37  1  0  0  0  0
 37 38  1  1  0  0  0
 37 40  1  0  0  0  0
 39 40  1  0  0  0  0
 39 41  1  1  0  0  0
 41 42  1  0  0  0  0
M  CHG  5   4   1  14   1  21   1  36   1  42   1
M  END
>  <CHROM.1>
173.25802110,66.28742459,63.53236684,62.24073489,59.01058388,-174.77233266
65.52949900,45.66479186,146.35900122,-64.20395996,-138.51045227,66.48447957
63.36885807,-173.97401098,178.31838704,-50.92035207,49.32670814,54.48859820
-40.39425293,-65.99406918,-51.92438475,-88.66864631,3.85526297,-0.19080928
39.96119371,0.65243505,-0.56606821,1.64297019

>  <Name>
1pbr

>  <RI>
0

>  <Rbt.Current_Directory>
/home/itssahil/PROJECTS/Mol_Feturizer/New_Systems/rnas/1pbr

>  <Rbt.Executable>
rbdock ($Id: //depot/dev/client3/rdock/2013.1/src/exe/rbdock.cxx#4 $)

>  <Rbt.Library>
libRbt.so (2013.1, Build901 2013/11/27)

>  <Rbt.Parameter_File>
/export/apps/rDock/src/rDock_2013.1_src/data/scripts/dock_solv.prm

>  <Rbt.Receptor>
prm/pocket_docking_6.prm

>  <SCORE>
-33.5272

>  <SCORE.INTER>
-30.954

>  <SCORE.INTER.CONST>
1

>  <SCORE.INTER.POLAR>
-5.12889

>  <SCORE.INTER.ROT>
9

>  <SCORE.INTER.SOLV>
23.7505

>  <SCORE.INTER.VDW>
-21.0565

>  <SCORE.INTER.norm>
-0.736999

>  <SCORE.INTRA>
-2.57322

>  <SCORE.INTRA.DIHEDRAL>
-13.4486

>  <SCORE.INTRA.DIHEDRAL.0>
29.7866

>  <SCORE.INTRA.POLAR>
0.0191087

>  <SCORE.INTRA.POLAR.0>
-0.984091

>  <SCORE.INTRA.REPUL>
-0.274115

>  <SCORE.INTRA.REPUL.0>
0.274115

>  <SCORE.INTRA.SOLV>
3.64354

>  <SCORE.INTRA.SOLV.lig_0>
-152.978

>  <SCORE.INTRA.VDW>
3.63493

>  <SCORE.INTRA.VDW.0>
-6.10719

>  <SCORE.INTRA.norm>
-0.0612671

>  <SCORE.RESTR>
0

>  <SCORE.RESTR.CAVITY>
0

>  <SCORE.RESTR.norm>
0

>  <SCORE.SYSTEM>
0

>  <SCORE.SYSTEM.CONST>
0

>  <SCORE.SYSTEM.DIHEDRAL>
0

>  <SCORE.SYSTEM.SOLV>
0

>  <SCORE.SYSTEM.norm>
0

>  <SCORE.heavy>
42

>  <SCORE.norm>
-0.798266

>  <RMSD>
5.387

$$$$
1pbr
 OpenBabel11021811403D
libRbt.so/2013.1/901 2013/11/27
 42 45  0  0  0  0  0  0  0  0999 V2000
    2.0562   -0.5891   44.2085 C   0  0  2  0  0  0  0  0  0  0  0  0
    2.5715    0.4139   43.2966 O   0  0  0  0  0  0  0  0  0  0  0  0
    0.4822   -0.5721   44.2272 C   0  0  2  0  0  0  0  0  0  0  0  0
   -0.1481   -0.4030   42.8921 N   0  3  0  0  0  0  0  0  0  0  0  0
   -0.0623    0.5678   45.1085 C   0  0  1  0  0  0  0  0  0  0  0  0
   -1.4625    0.4123   45.3290 O   0  0  0  0  0  0  0  0  0  0  0  0
    0.6653    0.6157   46.4605 C   0  0  2  0  0  0  0  0  0  0  0  0
    0.1194    1.6465   47.2777 O   0  0  0  0  0  0  0  0  0  0  0  0
    2.1892    0.7666   46.2569 C   0  0  2  0  0  0  0  0  0  0  0  0
    2.6322   -0.3994   45.5305 O   0  0  0  0  0  0  0  0  0  0  0  0
    2.9909    0.8437   47.5551 C   0  0  0  0  0  0  0  0  0  0  0  0
    4.3872    0.7548   47.3042 O   0  0  0  0  0  0  0  0  0  0  0  0
    5.4659    0.0906   40.1780 C   0  0  1  0  0  0  0  0  0  0  0  0
    6.2580   -0.2640   38.9860 N   0  3  0  0  0  0  0  0  0  0  0  0
    4.1164    0.7769   39.8073 C   0  0  2  0  0  0  0  0  0  0  0  0
    4.3524    1.9660   39.0571 O   0  0  0  0  0  0  0  0  0  0  0  0
    3.3048    1.1529   41.0815 C   0  0  1  0  0  0  0  0  0  0  0  0
    1.9893    1.6311   40.6719 O   0  0  0  0  0  0  0  0  0  0  0  0
    3.1372   -0.0620   42.0516 C   0  0  1  0  0  0  0  0  0  0  0  0
    4.4905   -0.7742   42.3713 C   0  0  1  0  0  0  0  0  0  0  0  0
    4.2881   -1.9768   43.2093 N   0  3  0  0  0  0  0  0  0  0  0  0
    5.2240   -1.1672   41.0628 C   0  0  0  0  0  0  0  0  0  0  0  0
    1.1515    0.8083   39.7984 C   0  0  1  0  0  0  0  0  0  0  0  0
   -0.1538    1.5714   39.5052 C   0  0  2  0  0  0  0  0  0  0  0  0
   -1.2111    0.6724   39.1828 O   0  0  0  0  0  0  0  0  0  0  0  0
    0.3107    2.3842   38.2872 C   0  0  1  0  0  0  0  0  0  0  0  0
    1.0994    1.3567   37.4924 C   0  0  2  0  0  0  0  0  0  0  0  0
    1.7788    0.6434   38.5144 O   0  0  0  0  0  0  0  0  0  0  0  0
    2.1044    1.9376   36.4893 C   0  0  0  0  0  0  0  0  0  0  0  0
    3.3061    1.1814   36.5100 O   0  0  0  0  0  0  0  0  0  0  0  0
   -0.3654    6.4812   34.9950 C   0  0  1  0  0  0  0  0  0  0  0  0
   -1.3947    7.2182   35.6524 O   0  0  0  0  0  0  0  0  0  0  0  0
    0.7903    6.2044   35.9966 C   0  0  2  0  0  0  0  0  0  0  0  0
    1.9457    5.8128   35.2588 O   0  0  0  0  0  0  0  0  0  0  0  0
    0.4922    5.1162   37.0795 C   0  0  1  0  0  0  0  0  0  0  0  0
   -0.2157    5.7172   38.2313 N   0  3  0  0  0  0  0  0  0  0  0  0
   -0.2593    3.8974   36.4824 C   0  0  1  0  0  0  0  0  0  0  0  0
   -0.7480    2.9614   37.4744 O   0  0  0  0  0  0  0  0  0  0  0  0
   -0.9247    5.1400   34.4574 C   0  0  1  0  0  0  0  0  0  0  0  0
   -1.3434    4.3461   35.6012 O   0  0  0  0  0  0  0  0  0  0  0  0
   -2.0775    5.3050   33.4494 C   0  0  0  0  0  0  0  0  0  0  0  0
   -3.2338    6.0243   34.0185 N   0  3  0  0  0  0  0  0  0  0  0  0
  1  2  1  6  0  0  0
  1  3  1  0  0  0  0
  1 10  1  0  0  0  0
  3  4  1  6  0  0  0
  3  5  1  0  0  0  0
  5  6  1  1  0  0  0
  5  7  1  0  0  0  0
  7  8  1  1  0  0  0
  7  9  1  0  0  0  0
  9 10  1  0  0  0  0
  9 11  1  1  0  0  0
 11 12  1  0  0  0  0
 13 14  1  6  0  0  0
 13 15  1  0  0  0  0
 13 22  1  0  0  0  0
 15 16  1  1  0  0  0
 15 17  1  0  0  0  0
 17 18  1  6  0  0  0
 17 19  1  0  0  0  0
 19  2  1  1  0  0  0
 19 20  1  0  0  0  0
 20 21  1  1  0  0  0
 20 22  1  0  0  0  0
 23 18  1  1  0  0  0
 23 24  1  0  0  0  0
 23 28  1  0  0  0  0
 24 25  1  6  0  0  0
 24 26  1  0  0  0  0
 26 27  1  0  0  0  0
 26 38  1  6  0  0  0
 27 28  1  0  0  0  0
 27 29  1  6  0  0  0
 29 30  1  0  0  0  0
 31 32  1  1  0  0  0
 31 33  1  0  0  0  0
 31 39  1  0  0  0  0
 33 34  1  6  0  0  0
 33 35  1  0  0  0  0
 35 36  1  1  0  0  0
 35 37  1  0  0  0  0
 37 38  1  1  0  0  0
 37 40  1  0  0  0  0
 39 40  1  0  0  0  0
 39 41  1  6  0  0  0
 41 42  1  0  0  0  0
M  CHG  5   4   1  14   1  21   1  36   1  42   1
M  END
>  <CHROM.1>
-107.00005852,166.26194577,147.43989944,179.96676008,-176.35011924,170.17138406
77.56288195,-154.14646213,90.75419820,53.74145247,-178.62562597,51.43193821
157.14006574,170.09121352,139.42490707,173.57220813,-56.96709999,153.50842067
93.65275056,-60.27687964,-59.42234175,50.81726952,1.41558655,1.92790695,40.19918736
1.26090909,-0.51474410,1.90059101

>  <Name>
1pbr

>  <RI>
0

>  <Rbt.Current_Directory>
/home/itssahil/PROJECTS/Mol_Feturizer/New_Systems/rnas/1pbr

>  <Rbt.Executable>
rbdock ($Id: //depot/dev/client3/rdock/2013.1/src/exe/rbdock.cxx#4 $)

>  <Rbt.Library>
libRbt.so (2013.1, Build901 2013/11/27)

>  <Rbt.Parameter_File>
/export/apps/rDock/src/rDock_2013.1_src/data/scripts/dock_solv.prm

>  <Rbt.Receptor>
prm/blind_docking_60.prm

>  <SCORE>
-42.5574

>  <SCORE.INTER>
-47.174

>  <SCORE.INTER.CONST>
1

>  <SCORE.INTER.POLAR>
-5.69295

>  <SCORE.INTER.ROT>
9

>  <SCORE.INTER.SOLV>
33.086

>  <SCORE.INTER.VDW>
-33.1015

>  <SCORE.INTER.norm>
-1.12319

>  <SCORE.INTRA>
1.26103

>  <SCORE.INTRA.DIHEDRAL>
-0.40316

>  <SCORE.INTRA.DIHEDRAL.0>
29.7866

>  <SCORE.INTRA.POLAR>
-0.853577

>  <SCORE.INTRA.POLAR.0>
-0.984091

>  <SCORE.INTRA.REPUL>
-0.274115

>  <SCORE.INTRA.REPUL.0>
0.274115

>  <SCORE.INTRA.SOLV>
5.54767

>  <SCORE.INTRA.SOLV.lig_0>
-152.978

>  <SCORE.INTRA.VDW>
2.96151

>  <SCORE.INTRA.VDW.0>
-6.10719

>  <SCORE.INTRA.norm>
0.0300246

>  <SCORE.RESTR>
3.35549

>  <SCORE.RESTR.CAVITY>
3.35549

>  <SCORE.RESTR.norm>
0.0798926

>  <SCORE.SYSTEM>
0

>  <SCORE.SYSTEM.CONST>
0

>  <SCORE.SYSTEM.DIHEDRAL>
0

>  <SCORE.SYSTEM.SOLV>
0

>  <SCORE.SYSTEM.norm>
0

>  <SCORE.heavy>
42

>  <SCORE.norm>
-1.01327

>  <RMSD>
5.410

$$$$
1pbr
 OpenBabel11021811403D
libRbt.so/2013.1/901 2013/11/27
 42 45  0  0  0  0  0  0  0  0999 V2000
    4.9304   -2.2346   42.0309 C   0  0  2  0  0  0  0  0  0  0  0  0
    3.7357   -1.9580   41.2566 O   0  0  0  0  0  0  0  0  0  0  0  0
    5.4785   -0.9203   42.7022 C   0  0  2  0  0  0  0  0  0  0  0  0
    4.4288   -0.0328   43.2668 N   0  3  0  0  0  0  0  0  0  0  0  0
    6.2760   -0.0625   41.7018 C   0  0  1  0  0  0  0  0  0  0  0  0
    6.9821    0.9765   42.3765 O   0  0  0  0  0  0  0  0  0  0  0  0
    7.2700   -0.9226   40.9069 C   0  0  2  0  0  0  0  0  0  0  0  0
    8.0279   -0.1066   40.0194 O   0  0  0  0  0  0  0  0  0  0  0  0
    6.5383   -2.0704   40.1764 C   0  0  2  0  0  0  0  0  0  0  0  0
    5.9230   -2.8893   41.1933 O   0  0  0  0  0  0  0  0  0  0  0  0
    7.4523   -2.9660   39.3418 C   0  0  0  0  0  0  0  0  0  0  0  0
    6.7439   -4.0836   38.8223 O   0  0  0  0  0  0  0  0  0  0  0  0
    3.9822   -5.4748   38.8526 C   0  0  1  0  0  0  0  0  0  0  0  0
    3.7296   -6.6571   38.0087 N   0  3  0  0  0  0  0  0  0  0  0  0
    3.6780   -4.1407   38.1061 C   0  0  2  0  0  0  0  0  0  0  0  0
    4.4808   -4.0327   36.9329 O   0  0  0  0  0  0  0  0  0  0  0  0
    3.9643   -2.9078   39.0125 C   0  0  1  0  0  0  0  0  0  0  0  0
    3.5028   -1.7070   38.3253 O   0  0  0  0  0  0  0  0  0  0  0  0
    3.2507   -3.0194   40.3994 C   0  0  1  0  0  0  0  0  0  0  0  0
    3.5199   -4.3834   41.1121 C   0  0  1  0  0  0  0  0  0  0  0  0
    2.7536   -4.4996   42.3726 N   0  3  0  0  0  0  0  0  0  0  0  0
    3.1675   -5.5683   40.1759 C   0  0  0  0  0  0  0  0  0  0  0  0
    3.9189   -0.3869   38.8007 C   0  0  1  0  0  0  0  0  0  0  0  0
    3.9349    0.5851   37.6061 C   0  0  2  0  0  0  0  0  0  0  0  0
    4.8387    1.6626   37.8348 O   0  0  0  0  0  0  0  0  0  0  0  0
    2.4676    1.0382   37.6444 C   0  0  1  0  0  0  0  0  0  0  0  0
    2.2295    1.2435   39.1312 C   0  0  2  0  0  0  0  0  0  0  0  0
    2.9359    0.1526   39.7020 O   0  0  0  0  0  0  0  0  0  0  0  0
    0.7591    1.2136   39.5678 C   0  0  0  0  0  0  0  0  0  0  0  0
    0.6723    1.1565   40.9840 O   0  0  0  0  0  0  0  0  0  0  0  0
   -1.4898    4.5546   36.7288 C   0  0  1  0  0  0  0  0  0  0  0  0
   -1.3317    4.9505   35.3675 O   0  0  0  0  0  0  0  0  0  0  0  0
   -1.6421    3.0096   36.8018 C   0  0  2  0  0  0  0  0  0  0  0  0
   -2.1642    2.6654   38.0830 O   0  0  0  0  0  0  0  0  0  0  0  0
   -0.3296    2.1948   36.5580 C   0  0  1  0  0  0  0  0  0  0  0  0
   -0.1098    1.9952   35.1086 N   0  3  0  0  0  0  0  0  0  0  0  0
    0.8906    2.8390   37.2672 C   0  0  1  0  0  0  0  0  0  0  0  0
    2.1636    2.2512   36.9022 O   0  0  0  0  0  0  0  0  0  0  0  0
   -0.2629    4.9998   37.5636 C   0  0  1  0  0  0  0  0  0  0  0  0
    0.8992    4.2907   37.0532 O   0  0  0  0  0  0  0  0  0  0  0  0
   -0.0256    6.5216   37.5596 C   0  0  0  0  0  0  0  0  0  0  0  0
    0.6009    6.9976   36.3108 N   0  3  0  0  0  0  0  0  0  0  0  0
  1  2  1  6  0  0  0
  1  3  1  0  0  0  0
  1 10  1  0  0  0  0
  3  4  1  6  0  0  0
  3  5  1  0  0  0  0
  5  6  1  1  0  0  0
  5  7  1  0  0  0  0
  7  8  1  6  0  0  0
  7  9  1  0  0  0  0
  9 10  1  0  0  0  0
  9 11  1  1  0  0  0
 11 12  1  0  0  0  0
 13 14  1  6  0  0  0
 13 15  1  0  0  0  0
 13 22  1  0  0  0  0
 15 16  1  6  0  0  0
 15 17  1  0  0  0  0
 17 18  1  6  0  0  0
 17 19  1  0  0  0  0
 19  2  1  1  0  0  0
 19 20  1  0  0  0  0
 20 21  1  1  0  0  0
 20 22  1  0  0  0  0
 23 18  1  6  0  0  0
 23 24  1  0  0  0  0
 23 28  1  0  0  0  0
 24 25  1  1  0  0  0
 24 26  1  0  0  0  0
 26 27  1  0  0  0  0
 26 38  1  6  0  0  0
 27 28  1  0  0  0  0
 27 29  1  6  0  0  0
 29 30  1  0  0  0  0
 31 32  1  6  0  0  0
 31 33  1  0  0  0  0
 31 39  1  0  0  0  0
 33 34  1  1  0  0  0
 33 35  1  0  0  0  0
 35 36  1  6  0  0  0
 35 37  1  0  0  0  0
 37 38  1  6  0  0  0
 37 40  1  0  0  0  0
 39 40  1  0  0  0  0
 39 41  1  6  0  0  0
 41 42  1  0  0  0  0
M  CHG  5   4   1  14   1  21   1  36   1  42   1
M  END
>  <CHROM.1>
169.73225532,-87.73864970,53.66659740,-172.79220628,175.47967715,173.39043482
68.98607041,-178.97437400,67.68006203,-165.91104164,151.58649902,-170.84338249
49.68928505,-163.55971841,168.83732915,84.10683496,-65.56996014,179.00725246
93.50387948,-82.54141521,-77.44389863,36.20796709,3.06819418,-0.11634982
39.02308855,-0.80403622,-0.65380642,0.09739724

>  <Name>
1pbr

>  <RI>
0

>  <Rbt.Current_Directory>
/home/itssahil/PROJECTS/Mol_Feturizer/New_Systems/rnas/1pbr

>  <Rbt.Executable>
rbdock ($Id: //depot/dev/client3/rdock/2013.1/src/exe/rbdock.cxx#4 $)

>  <Rbt.Library>
libRbt.so (2013.1, Build901 2013/11/27)

>  <Rbt.Parameter_File>
/export/apps/rDock/src/rDock_2013.1_src/data/scripts/dock_solv.prm

>  <Rbt.Receptor>
prm/pocket_docking_8.prm

>  <SCORE>
-47.3662

>  <SCORE.INTER>
-47.902

>  <SCORE.INTER.CONST>
1

>  <SCORE.INTER.POLAR>
-8.81087

>  <SCORE.INTER.ROT>
9

>  <SCORE.INTER.SOLV>
26.9234

>  <SCORE.INTER.VDW>
-21.1395

>  <SCORE.INTER.norm>
-1.14052

>  <SCORE.INTRA>
0.535788

>  <SCORE.INTRA.DIHEDRAL>
-8.30233

>  <SCORE.INTRA.DIHEDRAL.0>
29.7866

>  <SCORE.INTRA.POLAR>
-0.0583819

>  <SCORE.INTRA.POLAR.0>
-0.984091

>  <SCORE.INTRA.REPUL>
0.15077

>  <SCORE.INTRA.REPUL.0>
0.274115

>  <SCORE.INTRA.SOLV>
1.62008

>  <SCORE.INTRA.SOLV.lig_0>
-152.978

>  <SCORE.INTRA.VDW>
3.32156

>  <SCORE.INTRA.VDW.0>
-6.10719

>  <SCORE.INTRA.norm>
0.0127568

>  <SCORE.RESTR>
0

>  <SCORE.RESTR.CAVITY>
0

>  <SCORE.RESTR.norm>
0

>  <SCORE.SYSTEM>
0

>  <SCORE.SYSTEM.CONST>
0

>  <SCORE.SYSTEM.DIHEDRAL>
0

>  <SCORE.SYSTEM.SOLV>
0

>  <SCORE.SYSTEM.norm>
0

>  <SCORE.heavy>
42

>  <SCORE.norm>
-1.12777

>  <RMSD>
5.418

$$$$
1pbr
 OpenBabel11021811403D
libRbt.so/2013.1/901 2013/11/27
 42 45  0  0  0  0  0  0  0  0999 V2000
    2.1137   -3.1712   43.6004 C   0  0  2  0  0  0  0  0  0  0  0  0
    2.4020   -3.8774   44.8339 O   0  0  0  0  0  0  0  0  0  0  0  0
    0.8540   -2.2423   43.7692 C   0  0  2  0  0  0  0  0  0  0  0  0
    0.7955   -1.5121   45.0622 N   0  3  0  0  0  0  0  0  0  0  0  0
   -0.4584   -3.0420   43.6659 C   0  0  1  0  0  0  0  0  0  0  0  0
   -1.5777   -2.1656   43.5549 O   0  0  0  0  0  0  0  0  0  0  0  0
   -0.4322   -3.9921   42.4592 C   0  0  2  0  0  0  0  0  0  0  0  0
   -1.6691   -4.6902   42.3546 O   0  0  0  0  0  0  0  0  0  0  0  0
    0.7805   -4.9457   42.5396 C   0  0  2  0  0  0  0  0  0  0  0  0
    1.9647   -4.1209   42.5091 O   0  0  0  0  0  0  0  0  0  0  0  0
    0.8725   -5.9423   41.3854 C   0  0  0  0  0  0  0  0  0  0  0  0
    1.1593   -5.2844   40.1584 O   0  0  0  0  0  0  0  0  0  0  0  0
    5.1558   -2.3247   47.6998 C   0  0  1  0  0  0  0  0  0  0  0  0
    6.3327   -1.9725   48.5152 N   0  3  0  0  0  0  0  0  0  0  0  0
    5.2297   -1.7210   46.2646 C   0  0  2  0  0  0  0  0  0  0  0  0
    5.3217   -0.2996   46.3268 O   0  0  0  0  0  0  0  0  0  0  0  0
    3.9713   -2.0958   45.4283 C   0  0  1  0  0  0  0  0  0  0  0  0
    4.1755   -1.6511   44.0544 O   0  0  0  0  0  0  0  0  0  0  0  0
    3.6941   -3.6346   45.4406 C   0  0  1  0  0  0  0  0  0  0  0  0
    3.6770   -4.2364   46.8822 C   0  0  1  0  0  0  0  0  0  0  0  0
    3.5122   -5.7067   46.8565 N   0  3  0  0  0  0  0  0  0  0  0  0
    4.9776   -3.8702   47.6430 C   0  0  0  0  0  0  0  0  0  0  0  0
    4.6249   -0.2841   43.7873 C   0  0  1  0  0  0  0  0  0  0  0  0
    5.3816   -0.2668   42.4460 C   0  0  2  0  0  0  0  0  0  0  0  0
    6.3092    0.8135   42.3953 O   0  0  0  0  0  0  0  0  0  0  0  0
    4.1900   -0.0556   41.4998 C   0  0  1  0  0  0  0  0  0  0  0  0
    3.3760    0.9980   42.2325 C   0  0  2  0  0  0  0  0  0  0  0  0
    3.4950    0.5830   43.5846 O   0  0  0  0  0  0  0  0  0  0  0  0
    1.8984    1.0802   41.8280 C   0  0  0  0  0  0  0  0  0  0  0  0
    1.7878    1.3555   40.4394 O   0  0  0  0  0  0  0  0  0  0  0  0
    4.8550   -2.1012   36.6431 C   0  0  1  0  0  0  0  0  0  0  0  0
    6.1855   -1.7000   36.3215 O   0  0  0  0  0  0  0  0  0  0  0  0
    4.8537   -2.8280   38.0169 C   0  0  2  0  0  0  0  0  0  0  0  0
    3.6258   -3.5397   38.1523 O   0  0  0  0  0  0  0  0  0  0  0  0
    5.0393   -1.9032   39.2643 C   0  0  1  0  0  0  0  0  0  0  0  0
    6.4771   -1.6619   39.5164 N   0  3  0  0  0  0  0  0  0  0  0  0
    4.2235   -0.5898   39.1364 C   0  0  1  0  0  0  0  0  0  0  0  0
    4.5237    0.3933   40.1575 O   0  0  0  0  0  0  0  0  0  0  0  0
    3.9213   -0.8662   36.7034 C   0  0  1  0  0  0  0  0  0  0  0  0
    4.3788   -0.0196   37.7932 O   0  0  0  0  0  0  0  0  0  0  0  0
    3.8489   -0.0749   35.3840 C   0  0  0  0  0  0  0  0  0  0  0  0
    2.9795   -0.7188   34.3800 N   0  3  0  0  0  0  0  0  0  0  0  0
  1  2  1  1  0  0  0
  1  3  1  0  0  0  0
  1 10  1  0  0  0  0
  3  4  1  1  0  0  0
  3  5  1  0  0  0  0
  5  6  1  6  0  0  0
  5  7  1  0  0  0  0
  7  8  1  1  0  0  0
  7  9  1  0  0  0  0
  9 10  1  0  0  0  0
  9 11  1  6  0  0  0
 11 12  1  0  0  0  0
 13 14  1  1  0  0  0
 13 15  1  0  0  0  0
 13 22  1  0  0  0  0
 15 16  1  1  0  0  0
 15 17  1  0  0  0  0
 17 18  1  6  0  0  0
 17 19  1  0  0  0  0
 19  2  1  1  0  0  0
 19 20  1  0  0  0  0
 20 21  1  6  0  0  0
 20 22  1  0  0  0  0
 23 18  1  6  0  0  0
 23 24  1  0  0  0  0
 23 28  1  0  0  0  0
 24 25  1  1  0  0  0
 24 26  1  0  0  0  0
 26 27  1  0  0  0  0
 26 38  1  6  0  0  0
 27 28  1  0  0  0  0
 27 29  1  6  0  0  0
 29 30  1  0  0  0  0
 31 32  1  1  0  0  0
 31 33  1  0  0  0  0
 31 39  1  0  0  0  0
 33 34  1  1  0  0  0
 33 35  1  0  0  0  0
 35 36  1  6  0  0  0
 35 37  1  0  0  0  0
 37 38  1  1  0  0  0
 37 40  1  0  0  0  0
 39 40  1  0  0  0  0
 39 41  1  6  0  0  0
 41 42  1  0  0  0  0
M  CHG  5   4   1  14   1  21   1  36   1  42   1
M  END
>  <CHROM.1>
-119.42332554,45.21313902,70.19903785,88.24036058,5.06335018,67.80640795
55.97649509,-162.91611819,144.88643762,-49.35009869,153.22603060,-33.19626605
-45.98322784,113.54845704,-58.69592018,-57.53616399,59.47887892,59.96815110
68.28075053,-63.31004839,77.99239777,-52.54993129,3.30081938,-1.98848868
42.12863021,1.67730608,0.62935073,1.71816652

>  <Name>
1pbr

>  <RI>
0

>  <Rbt.Current_Directory>
/home/itssahil/PROJECTS/Mol_Feturizer/New_Systems/rnas/1pbr

>  <Rbt.Executable>
rbdock ($Id: //depot/dev/client3/rdock/2013.1/src/exe/rbdock.cxx#4 $)

>  <Rbt.Library>
libRbt.so (2013.1, Build901 2013/11/27)

>  <Rbt.Parameter_File>
/export/apps/rDock/src/rDock_2013.1_src/data/scripts/dock_solv.prm

>  <Rbt.Receptor>
prm/pocket_docking_5.prm

>  <SCORE>
-21.5807

>  <SCORE.INTER>
-33.8705

>  <SCORE.INTER.CONST>
1

>  <SCORE.INTER.POLAR>
-5.90731

>  <SCORE.INTER.ROT>
9

>  <SCORE.INTER.SOLV>
23.6018

>  <SCORE.INTER.VDW>
-20.3565

>  <SCORE.INTER.norm>
-0.80644

>  <SCORE.INTRA>
12.2285

>  <SCORE.INTRA.DIHEDRAL>
9.23963

>  <SCORE.INTRA.DIHEDRAL.0>
29.7866

>  <SCORE.INTRA.POLAR>
0.888931

>  <SCORE.INTRA.POLAR.0>
-0.984091

>  <SCORE.INTRA.REPUL>
-0.274115

>  <SCORE.INTRA.REPUL.0>
0.274115

>  <SCORE.INTRA.SOLV>
-0.22232

>  <SCORE.INTRA.SOLV.lig_0>
-152.978

>  <SCORE.INTRA.VDW>
6.06807

>  <SCORE.INTRA.VDW.0>
-6.10719

>  <SCORE.INTRA.norm>
0.291155

>  <SCORE.RESTR>
0.0612984

>  <SCORE.RESTR.CAVITY>
0.0612984

>  <SCORE.RESTR.norm>
0.00145949

>  <SCORE.SYSTEM>
0

>  <SCORE.SYSTEM.CONST>
0

>  <SCORE.SYSTEM.DIHEDRAL>
0

>  <SCORE.SYSTEM.SOLV>
0

>  <SCORE.SYSTEM.norm>
0

>  <SCORE.heavy>
42

>  <SCORE.norm>
-0.513825

>  <RMSD>
5.425

$$$$
1pbr
 OpenBabel11021811403D
libRbt.so/2013.1/901 2013/11/27
 42 45  0  0  0  0  0  0  0  0999 V2000
    3.1147   -4.5191   40.3326 C   0  0  2  0  0  0  0  0  0  0  0  0
    2.2860   -5.1958   41.3115 O   0  0  0  0  0  0  0  0  0  0  0  0
    3.1711   -5.3352   38.9876 C   0  0  2  0  0  0  0  0  0  0  0  0
    1.8718   -5.9213   38.5675 N   0  3  0  0  0  0  0  0  0  0  0  0
    4.1646   -6.5089   39.0775 C   0  0  1  0  0  0  0  0  0  0  0  0
    4.4022   -7.0706   37.7886 O   0  0  0  0  0  0  0  0  0  0  0  0
    5.4982   -6.0572   39.6915 C   0  0  2  0  0  0  0  0  0  0  0  0
    6.4179   -7.1441   39.7263 O   0  0  0  0  0  0  0  0  0  0  0  0
    5.2741   -5.4269   41.0840 C   0  0  2  0  0  0  0  0  0  0  0  0
    4.4349   -4.2688   40.8893 O   0  0  0  0  0  0  0  0  0  0  0  0
    6.5552   -4.9672   41.7780 C   0  0  0  0  0  0  0  0  0  0  0  0
    6.3040   -4.5893   43.1250 O   0  0  0  0  0  0  0  0  0  0  0  0
   -0.1647   -3.8712   44.5437 C   0  0  1  0  0  0  0  0  0  0  0  0
   -0.7261   -3.2603   45.7626 N   0  3  0  0  0  0  0  0  0  0  0  0
    0.1986   -2.8075   43.4638 C   0  0  2  0  0  0  0  0  0  0  0  0
   -0.9563   -2.0565   43.0966 O   0  0  0  0  0  0  0  0  0  0  0  0
    0.7768   -3.4773   42.1829 C   0  0  1  0  0  0  0  0  0  0  0  0
    1.2528   -2.4315   41.2846 O   0  0  0  0  0  0  0  0  0  0  0  0
    1.9519   -4.4556   42.5103 C   0  0  1  0  0  0  0  0  0  0  0  0
    1.5926   -5.4811   43.6327 C   0  0  1  0  0  0  0  0  0  0  0  0
    2.7534   -6.3264   43.9898 N   0  3  0  0  0  0  0  0  0  0  0  0
    1.0719   -4.7486   44.8964 C   0  0  0  0  0  0  0  0  0  0  0  0
    1.7119   -1.1530   41.8290 C   0  0  1  0  0  0  0  0  0  0  0  0
    2.9188   -0.6701   41.0030 C   0  0  2  0  0  0  0  0  0  0  0  0
    3.7502    0.1966   41.7697 O   0  0  0  0  0  0  0  0  0  0  0  0
    2.1666    0.0778   39.8918 C   0  0  1  0  0  0  0  0  0  0  0  0
    1.0922    0.8199   40.6694 C   0  0  2  0  0  0  0  0  0  0  0  0
    0.7076   -0.1402   41.6415 O   0  0  0  0  0  0  0  0  0  0  0  0
   -0.1242    1.2607   39.8450 C   0  0  0  0  0  0  0  0  0  0  0  0
   -1.2149    1.5556   40.7051 O   0  0  0  0  0  0  0  0  0  0  0  0
    1.6587    3.2858   35.6735 C   0  0  1  0  0  0  0  0  0  0  0  0
    2.3667    4.4726   36.0271 O   0  0  0  0  0  0  0  0  0  0  0  0
    2.6744    2.1406   35.4042 C   0  0  2  0  0  0  0  0  0  0  0  0
    2.0041    1.0952   34.7040 O   0  0  0  0  0  0  0  0  0  0  0  0
    3.3567    1.5375   36.6757 C   0  0  1  0  0  0  0  0  0  0  0  0
    4.5355    2.3453   37.0590 N   0  3  0  0  0  0  0  0  0  0  0  0
    2.3489    1.3557   37.8410 C   0  0  1  0  0  0  0  0  0  0  0  0
    2.9646    1.0041   39.1045 O   0  0  0  0  0  0  0  0  0  0  0  0
    0.6962    2.8740   36.8158 C   0  0  1  0  0  0  0  0  0  0  0  0
    1.5054    2.5485   37.9790 O   0  0  0  0  0  0  0  0  0  0  0  0
   -0.3571    3.9439   37.1591 C   0  0  0  0  0  0  0  0  0  0  0  0
   -1.4532    4.0020   36.1724 N   0  3  0  0  0  0  0  0  0  0  0  0
  1  2  1  1  0  0  0
  1  3  1  0  0  0  0
  1 10  1  0  0  0  0
  3  4  1  1  0  0  0
  3  5  1  0  0  0  0
  5  6  1  6  0  0  0
  5  7  1  0  0  0  0
  7  8  1  1  0  0  0
  7  9  1  0  0  0  0
  9 10  1  0  0  0  0
  9 11  1  6  0  0  0
 11 12  1  0  0  0  0
 13 14  1  1  0  0  0
 13 15  1  0  0  0  0
 13 22  1  0  0  0  0
 15 16  1  6  0  0  0
 15 17  1  0  0  0  0
 17 18  1  6  0  0  0
 17 19  1  0  0  0  0
 19  2  1  6  0  0  0
 19 20  1  0  0  0  0
 20 21  1  1  0  0  0
 20 22  1  0  0  0  0
 23 18  1  6  0  0  0
 23 24  1  0  0  0  0
 23 28  1  0  0  0  0
 24 25  1  1  0  0  0
 24 26  1  0  0  0  0
 26 27  1  0  0  0  0
 26 38  1  1  0  0  0
 27 28  1  0  0  0  0
 27 29  1  6  0  0  0
 29 30  1  0  0  0  0
 31 32  1  1  0  0  0
 31 33  1  0  0  0  0
 31 39  1  0  0  0  0
 33 34  1  1  0  0  0
 33 35  1  0  0  0  0
 35 36  1  1  0  0  0
 35 37  1  0  0  0  0
 37 38  1  1  0  0  0
 37 40  1  0  0  0  0
 39 40  1  0  0  0  0
 39 41  1  1  0  0  0
 41 42  1  0  0  0  0
M  CHG  5   4   1  14   1  21   1  36   1  42   1
M  END
>  <CHROM.1>
-169.57407980,79.87756122,76.14724097,-63.16720404,-58.76161473,-171.06564786
178.57150913,-54.06408667,178.00596155,27.95433030,142.48450013,-178.27855260
63.43244398,161.67060028,161.98589738,63.05098943,62.64963108,60.36430376
44.70091784,-143.80404551,76.41047837,-176.80477729,2.25196643,-1.73229584
40.12632205,-1.28487847,0.78884520,-0.75408793

>  <Name>
1pbr

>  <RI>
0

>  <Rbt.Current_Directory>
/home/itssahil/PROJECTS/Mol_Feturizer/New_Systems/rnas/1pbr

>  <Rbt.Executable>
rbdock ($Id: //depot/dev/client3/rdock/2013.1/src/exe/rbdock.cxx#4 $)

>  <Rbt.Library>
libRbt.so (2013.1, Build901 2013/11/27)

>  <Rbt.Parameter_File>
/export/apps/rDock/src/rDock_2013.1_src/data/scripts/dock_solv.prm

>  <Rbt.Receptor>
prm/pocket_docking_7.prm

>  <SCORE>
-45.0851

>  <SCORE.INTER>
-40.1808

>  <SCORE.INTER.CONST>
1

>  <SCORE.INTER.POLAR>
-6.93161

>  <SCORE.INTER.ROT>
9

>  <SCORE.INTER.SOLV>
26.9861

>  <SCORE.INTER.VDW>
-22.2772

>  <SCORE.INTER.norm>
-0.956687

>  <SCORE.INTRA>
-4.90428

>  <SCORE.INTRA.DIHEDRAL>
-7.67292

>  <SCORE.INTRA.DIHEDRAL.0>
29.7866

>  <SCORE.INTRA.POLAR>
-0.106133

>  <SCORE.INTRA.POLAR.0>
-0.984091

>  <SCORE.INTRA.REPUL>
-0.252476

>  <SCORE.INTRA.REPUL.0>
0.274115

>  <SCORE.INTRA.SOLV>
-5.02214

>  <SCORE.INTRA.SOLV.lig_0>
-152.978

>  <SCORE.INTRA.VDW>
3.06648

>  <SCORE.INTRA.VDW.0>
-6.10719

>  <SCORE.INTRA.norm>
-0.116769

>  <SCORE.RESTR>
0

>  <SCORE.RESTR.CAVITY>
0

>  <SCORE.RESTR.norm>
0

>  <SCORE.SYSTEM>
0

>  <SCORE.SYSTEM.CONST>
0

>  <SCORE.SYSTEM.DIHEDRAL>
0

>  <SCORE.SYSTEM.SOLV>
0

>  <SCORE.SYSTEM.norm>
0

>  <SCORE.heavy>
42

>  <SCORE.norm>
-1.07346

>  <RMSD>
5.433

$$$$
1pbr
 OpenBabel11021811403D
libRbt.so/2013.1/901 2013/11/27
 42 45  0  0  0  0  0  0  0  0999 V2000
    0.4919   -6.3633   42.7043 C   0  0  2  0  0  0  0  0  0  0  0  0
   -0.3988   -5.2210   42.7737 O   0  0  0  0  0  0  0  0  0  0  0  0
    0.3828   -7.0733   41.3034 C   0  0  2  0  0  0  0  0  0  0  0  0
    0.2914   -6.1443   40.1472 N   0  3  0  0  0  0  0  0  0  0  0  0
   -0.8572   -7.9836   41.2240 C   0  0  1  0  0  0  0  0  0  0  0  0
   -0.8019   -8.8142   40.0663 O   0  0  0  0  0  0  0  0  0  0  0  0
   -0.9777   -8.8628   42.4779 C   0  0  2  0  0  0  0  0  0  0  0  0
   -2.1037   -9.7276   42.3671 O   0  0  0  0  0  0  0  0  0  0  0  0
   -1.0227   -7.9930   43.7538 C   0  0  2  0  0  0  0  0  0  0  0  0
    0.2242   -7.2683   43.8110 O   0  0  0  0  0  0  0  0  0  0  0  0
   -1.1633   -8.7885   45.0505 C   0  0  0  0  0  0  0  0  0  0  0  0
   -0.0440   -9.6401   45.2564 O   0  0  0  0  0  0  0  0  0  0  0  0
   -0.3726   -1.1192   43.9495 C   0  0  1  0  0  0  0  0  0  0  0  0
   -0.0360    0.2366   44.4211 N   0  3  0  0  0  0  0  0  0  0  0  0
    0.3122   -1.4588   42.5910 C   0  0  2  0  0  0  0  0  0  0  0  0
   -0.0821   -0.5255   41.5880 O   0  0  0  0  0  0  0  0  0  0  0  0
   -0.0683   -2.8890   42.1082 C   0  0  1  0  0  0  0  0  0  0  0  0
    0.7300   -3.2112   40.9309 O   0  0  0  0  0  0  0  0  0  0  0  0
    0.1772   -3.9675   43.2135 C   0  0  1  0  0  0  0  0  0  0  0  0
   -0.4682   -3.5885   44.5849 C   0  0  1  0  0  0  0  0  0  0  0  0
   -0.1356   -4.5767   45.6347 N   0  3  0  0  0  0  0  0  0  0  0  0
   -0.0100   -2.1765   45.0331 C   0  0  0  0  0  0  0  0  0  0  0  0
    2.1908   -3.1587   41.0012 C   0  0  1  0  0  0  0  0  0  0  0  0
    2.7587   -3.3030   39.5769 C   0  0  2  0  0  0  0  0  0  0  0  0
    4.0818   -3.8309   39.6042 O   0  0  0  0  0  0  0  0  0  0  0  0
    2.7300   -1.8261   39.1553 C   0  0  1  0  0  0  0  0  0  0  0  0
    3.2464   -1.1228   40.3996 C   0  0  2  0  0  0  0  0  0  0  0  0
    2.6238   -1.8593   41.4411 O   0  0  0  0  0  0  0  0  0  0  0  0
    2.8841    0.3640   40.5077 C   0  0  0  0  0  0  0  0  0  0  0  0
    3.8526    1.1521   39.8314 O   0  0  0  0  0  0  0  0  0  0  0  0
    2.6916    1.6451   35.1413 C   0  0  1  0  0  0  0  0  0  0  0  0
    4.0256    2.1481   35.0960 O   0  0  0  0  0  0  0  0  0  0  0  0
    2.6722    0.1867   34.6042 C   0  0  2  0  0  0  0  0  0  0  0  0
    1.3244   -0.1681   34.3039 O   0  0  0  0  0  0  0  0  0  0  0  0
    3.2732   -0.8896   35.5665 C   0  0  1  0  0  0  0  0  0  0  0  0
    4.7416   -0.9645   35.4017 N   0  3  0  0  0  0  0  0  0  0  0  0
    2.8457   -0.6518   37.0387 C   0  0  1  0  0  0  0  0  0  0  0  0
    3.5416   -1.4858   37.9976 O   0  0  0  0  0  0  0  0  0  0  0  0
    2.1553    1.6749   36.5946 C   0  0  1  0  0  0  0  0  0  0  0  0
    2.9721    0.7685   37.3852 O   0  0  0  0  0  0  0  0  0  0  0  0
    2.1298    3.0819   37.2206 C   0  0  0  0  0  0  0  0  0  0  0  0
    1.2291    3.1709   38.3864 N   0  3  0  0  0  0  0  0  0  0  0  0
  1  2  1  6  0  0  0
  1  3  1  0  0  0  0
  1 10  1  0  0  0  0
  3  4  1  6  0  0  0
  3  5  1  0  0  0  0
  5  6  1  6  0  0  0
  5  7  1  0  0  0  0
  7  8  1  6  0  0  0
  7  9  1  0  0  0  0
  9 10  1  0  0  0  0
  9 11  1  1  0  0  0
 11 12  1  0  0  0  0
 13 14  1  1  0  0  0
 13 15  1  0  0  0  0
 13 22  1  0  0  0  0
 15 16  1  6  0  0  0
 15 17  1  0  0  0  0
 17 18  1  6  0  0  0
 17 19  1  0  0  0  0
 19  2  1  6  0  0  0
 19 20  1  0  0  0  0
 20 21  1  1  0  0  0
 20 22  1  0  0  0  0
 23 18  1  6  0  0  0
 23 24  1  0  0  0  0
 23 28  1  0  0  0  0
 24 25  1  1  0  0  0
 24 26  1  0  0  0  0
 26 27  1  0  0  0  0
 26 38  1  6  0  0  0
 27 28  1  0  0  0  0
 27 29  1  6  0  0  0
 29 30  1  0  0  0  0
 31 32  1  1  0  0  0
 31 33  1  0  0  0  0
 31 39  1  0  0  0  0
 33 34  1  1  0  0  0
 33 35  1  0  0  0  0
 35 36  1  1  0  0  0
 35 37  1  0  0  0  0
 37 38  1  1  0  0  0
 37 40  1  0  0  0  0
 39 40  1  0  0  0  0
 39 41  1  1  0  0  0
 41 42  1  0  0  0  0
M  CHG  5   4   1  14   1  21   1  36   1  42   1
M  END
>  <CHROM.1>
-129.26250394,123.07626478,154.61707428,-178.02761316,-63.05153936,62.72650130
-63.07105132,-59.21348433,-72.13033561,56.63133622,-170.36392079,-170.50054350
63.87963747,133.80384113,-86.79070288,67.59204314,162.07462624,-60.31152773
-148.39265309,-148.14251437,160.88917927,177.80025926,1.24550161,-2.90599717
40.49319027,-2.77826925,1.22815352,0.50205418

>  <Name>
1pbr

>  <RI>
0

>  <Rbt.Current_Directory>
/home/itssahil/PROJECTS/Mol_Feturizer/New_Systems/rnas/1pbr

>  <Rbt.Executable>
rbdock ($Id: //depot/dev/client3/rdock/2013.1/src/exe/rbdock.cxx#4 $)

>  <Rbt.Library>
libRbt.so (2013.1, Build901 2013/11/27)

>  <Rbt.Parameter_File>
/export/apps/rDock/src/rDock_2013.1_src/data/scripts/dock_solv.prm

>  <Rbt.Receptor>
prm/pocket_docking_7.prm

>  <SCORE>
-37.2288

>  <SCORE.INTER>
-34.6233

>  <SCORE.INTER.CONST>
1

>  <SCORE.INTER.POLAR>
-5.04341

>  <SCORE.INTER.ROT>
9

>  <SCORE.INTER.SOLV>
30.1797

>  <SCORE.INTER.VDW>
-25.9307

>  <SCORE.INTER.norm>
-0.824364

>  <SCORE.INTRA>
-2.60547

>  <SCORE.INTRA.DIHEDRAL>
5.10023

>  <SCORE.INTRA.DIHEDRAL.0>
29.7866

>  <SCORE.INTRA.POLAR>
-1.34052

>  <SCORE.INTRA.POLAR.0>
-0.984091

>  <SCORE.INTRA.REPUL>
-0.274115

>  <SCORE.INTRA.REPUL.0>
0.274115

>  <SCORE.INTRA.SOLV>
1.87327

>  <SCORE.INTRA.SOLV.lig_0>
-152.978

>  <SCORE.INTRA.VDW>
-0.163875

>  <SCORE.INTRA.VDW.0>
-6.10719

>  <SCORE.INTRA.norm>
-0.0620351

>  <SCORE.RESTR>
0

>  <SCORE.RESTR.CAVITY>
0

>  <SCORE.RESTR.norm>
0

>  <SCORE.SYSTEM>
0

>  <SCORE.SYSTEM.CONST>
0

>  <SCORE.SYSTEM.DIHEDRAL>
0

>  <SCORE.SYSTEM.SOLV>
0

>  <SCORE.SYSTEM.norm>
0

>  <SCORE.heavy>
42

>  <SCORE.norm>
-0.886399

>  <RMSD>
5.434

$$$$
1pbr
 OpenBabel11021811403D
libRbt.so/2013.1/901 2013/11/27
 42 45  0  0  0  0  0  0  0  0999 V2000
    3.2348   -6.6507   42.7221 C   0  0  2  0  0  0  0  0  0  0  0  0
    3.4967   -5.3944   43.3977 O   0  0  0  0  0  0  0  0  0  0  0  0
    4.5671   -7.2698   42.1563 C   0  0  2  0  0  0  0  0  0  0  0  0
    5.7346   -7.1583   43.0689 N   0  3  0  0  0  0  0  0  0  0  0  0
    4.9874   -6.5997   40.8347 C   0  0  1  0  0  0  0  0  0  0  0  0
    6.0324   -7.3367   40.2036 O   0  0  0  0  0  0  0  0  0  0  0  0
    3.7952   -6.4790   39.8735 C   0  0  2  0  0  0  0  0  0  0  0  0
    4.2120   -5.8976   38.6420 O   0  0  0  0  0  0  0  0  0  0  0  0
    2.6366   -5.6992   40.5339 C   0  0  2  0  0  0  0  0  0  0  0  0
    2.2270   -6.4581   41.6913 O   0  0  0  0  0  0  0  0  0  0  0  0
    1.4138   -5.5139   39.6370 C   0  0  0  0  0  0  0  0  0  0  0  0
    1.7370   -4.7630   38.4741 O   0  0  0  0  0  0  0  0  0  0  0  0
   -0.4733   -5.0845   44.9309 C   0  0  1  0  0  0  0  0  0  0  0  0
   -1.7171   -4.7120   45.6296 N   0  3  0  0  0  0  0  0  0  0  0  0
   -0.0514   -4.0230   43.8702 C   0  0  2  0  0  0  0  0  0  0  0  0
   -1.0791   -3.8569   42.8963 O   0  0  0  0  0  0  0  0  0  0  0  0
    1.2561   -4.4444   43.1379 C   0  0  1  0  0  0  0  0  0  0  0  0
    1.6901   -3.3419   42.2875 O   0  0  0  0  0  0  0  0  0  0  0  0
    2.3998   -4.8091   44.1399 C   0  0  1  0  0  0  0  0  0  0  0  0
    1.9476   -5.8324   45.2304 C   0  0  1  0  0  0  0  0  0  0  0  0
    3.0185   -6.0815   46.2206 N   0  3  0  0  0  0  0  0  0  0  0  0
    0.6723   -5.3304   45.9558 C   0  0  0  0  0  0  0  0  0  0  0  0
    2.0626   -2.0595   42.8862 C   0  0  1  0  0  0  0  0  0  0  0  0
    3.4415   -1.6428   42.3411 C   0  0  2  0  0  0  0  0  0  0  0  0
    4.1112   -0.7752   43.2517 O   0  0  0  0  0  0  0  0  0  0  0  0
    2.9869   -0.9120   41.0686 C   0  0  1  0  0  0  0  0  0  0  0  0
    1.7938   -0.1108   41.5627 C   0  0  2  0  0  0  0  0  0  0  0  0
    1.1649   -1.0240   42.4488 O   0  0  0  0  0  0  0  0  0  0  0  0
    0.8113    0.3374   40.4730 C   0  0  0  0  0  0  0  0  0  0  0  0
   -0.3808    0.8319   41.0652 O   0  0  0  0  0  0  0  0  0  0  0  0
    5.5422    0.1164   36.4312 C   0  0  1  0  0  0  0  0  0  0  0  0
    6.7004    0.8772   36.7696 O   0  0  0  0  0  0  0  0  0  0  0  0
    5.6016   -1.2602   37.1503 C   0  0  2  0  0  0  0  0  0  0  0  0
    4.6639   -2.1368   36.5299 O   0  0  0  0  0  0  0  0  0  0  0  0
    5.3169   -1.2257   38.6877 C   0  0  1  0  0  0  0  0  0  0  0  0
    6.5545   -0.9060   39.4329 N   0  3  0  0  0  0  0  0  0  0  0  0
    4.1429   -0.2736   39.0369 C   0  0  1  0  0  0  0  0  0  0  0  0
    3.9756   -0.0387   40.4567 O   0  0  0  0  0  0  0  0  0  0  0  0
    4.2590    0.8739   36.8558 C   0  0  1  0  0  0  0  0  0  0  0  0
    4.2748    0.9913   38.3048 O   0  0  0  0  0  0  0  0  0  0  0  0
    4.1028    2.2552   36.1927 C   0  0  0  0  0  0  0  0  0  0  0  0
    3.8177    2.1647   34.7473 N   0  3  0  0  0  0  0  0  0  0  0  0
  1  2  1  6  0  0  0
  1  3  1  0  0  0  0
  1 10  1  0  0  0  0
  3  4  1  1  0  0  0
  3  5  1  0  0  0  0
  5  6  1  6  0  0  0
  5  7  1  0  0  0  0
  7  8  1  6  0  0  0
  7  9  1  0  0  0  0
  9 10  1  0  0  0  0
  9 11  1  6  0  0  0
 11 12  1  0  0  0  0
 13 14  1  1  0  0  0
 13 15  1  0  0  0  0
 13 22  1  0  0  0  0
 15 16  1  6  0  0  0
 15 17  1  0  0  0  0
 17 18  1  6  0  0  0
 17 19  1  0  0  0  0
 19  2  1  6  0  0  0
 19 20  1  0  0  0  0
 20 21  1  1  0  0  0
 20 22  1  0  0  0  0
 23 18  1  6  0  0  0
 23 24  1  0  0  0  0
 23 28  1  0  0  0  0
 24 25  1  1  0  0  0
 24 26  1  0  0  0  0
 26 27  1  0  0  0  0
 26 38  1  1  0  0  0
 27 28  1  0  0  0  0
 27 29  1  6  0  0  0
 29 30  1  0  0  0  0
 31 32  1  1  0  0  0
 31 33  1  0  0  0  0
 31 39  1  0  0  0  0
 33 34  1  6  0  0  0
 33 35  1  0  0  0  0
 35 36  1  1  0  0  0
 35 37  1  0  0  0  0
 37 38  1  1  0  0  0
 37 40  1  0  0  0  0
 39 40  1  0  0  0  0
 39 41  1  6  0  0  0
 41 42  1  0  0  0  0
M  CHG  5   4   1  14   1  21   1  36   1  42   1
M  END
>  <CHROM.1>
-171.06263710,-63.79291678,50.71811800,-62.23160993,68.62982249,-61.74073565
177.61166424,-92.27722479,60.34167931,62.77516128,129.07313890,-1.47911926
-179.58814143,129.76636132,168.28361059,61.55297557,55.49034541,174.12667131
-164.28814276,-95.49092541,69.55877851,178.46919679,3.03395114,-3.00015439
40.95728630,-2.01126280,0.77283147,-0.51729872

>  <Name>
1pbr

>  <RI>
0

>  <Rbt.Current_Directory>
/home/itssahil/PROJECTS/Mol_Feturizer/New_Systems/rnas/1pbr

>  <Rbt.Executable>
rbdock ($Id: //depot/dev/client3/rdock/2013.1/src/exe/rbdock.cxx#4 $)

>  <Rbt.Library>
libRbt.so (2013.1, Build901 2013/11/27)

>  <Rbt.Parameter_File>
/export/apps/rDock/src/rDock_2013.1_src/data/scripts/dock_solv.prm

>  <Rbt.Receptor>
prm/pocket_docking_8.prm

>  <SCORE>
-40.6427

>  <SCORE.INTER>
-43.1504

>  <SCORE.INTER.CONST>
1

>  <SCORE.INTER.POLAR>
-8.22617

>  <SCORE.INTER.ROT>
9

>  <SCORE.INTER.SOLV>
24.373

>  <SCORE.INTER.VDW>
-19.0707

>  <SCORE.INTER.norm>
-1.02739

>  <SCORE.INTRA>
2.48578

>  <SCORE.INTRA.DIHEDRAL>
-2.51661

>  <SCORE.INTRA.DIHEDRAL.0>
29.7866

>  <SCORE.INTRA.POLAR>
0.984091

>  <SCORE.INTRA.POLAR.0>
-0.984091

>  <SCORE.INTRA.REPUL>
-0.243452

>  <SCORE.INTRA.REPUL.0>
0.274115

>  <SCORE.INTRA.SOLV>
-3.05744

>  <SCORE.INTRA.SOLV.lig_0>
-152.978

>  <SCORE.INTRA.VDW>
3.14416

>  <SCORE.INTRA.VDW.0>
-6.10719

>  <SCORE.INTRA.norm>
0.0591852

>  <SCORE.RESTR>
0.0218298

>  <SCORE.RESTR.CAVITY>
0.0218298

>  <SCORE.RESTR.norm>
0.000519758

>  <SCORE.SYSTEM>
0

>  <SCORE.SYSTEM.CONST>
0

>  <SCORE.SYSTEM.DIHEDRAL>
0

>  <SCORE.SYSTEM.SOLV>
0

>  <SCORE.SYSTEM.norm>
0

>  <SCORE.heavy>
42

>  <SCORE.norm>
-0.967684

>  <RMSD>
5.441

$$$$
1pbr
 OpenBabel11021811403D
libRbt.so/2013.1/901 2013/11/27
 42 45  0  0  0  0  0  0  0  0999 V2000
    3.4184   -1.1378   43.3540 C   0  0  2  0  0  0  0  0  0  0  0  0
    3.6475   -0.7110   44.7209 O   0  0  0  0  0  0  0  0  0  0  0  0
    4.0411   -2.5614   43.1008 C   0  0  2  0  0  0  0  0  0  0  0  0
    3.8432   -3.5272   44.2127 N   0  3  0  0  0  0  0  0  0  0  0  0
    5.5611   -2.4817   42.8644 C   0  0  1  0  0  0  0  0  0  0  0  0
    6.0637   -3.7249   42.3794 O   0  0  0  0  0  0  0  0  0  0  0  0
    5.9066   -1.3667   41.8659 C   0  0  2  0  0  0  0  0  0  0  0  0
    7.3103   -1.3369   41.6268 O   0  0  0  0  0  0  0  0  0  0  0  0
    5.3604   -0.0065   42.3537 C   0  0  2  0  0  0  0  0  0  0  0  0
    3.9248   -0.1349   42.4304 O   0  0  0  0  0  0  0  0  0  0  0  0
    5.6782    1.1658   41.4271 C   0  0  0  0  0  0  0  0  0  0  0  0
    5.6719    2.3984   42.1352 O   0  0  0  0  0  0  0  0  0  0  0  0
    0.0976    0.2972   46.8633 C   0  0  1  0  0  0  0  0  0  0  0  0
   -1.0134    0.9629   47.5678 N   0  3  0  0  0  0  0  0  0  0  0  0
    0.1045    0.6158   45.3375 C   0  0  2  0  0  0  0  0  0  0  0  0
   -1.1196    0.1995   44.7367 O   0  0  0  0  0  0  0  0  0  0  0  0
    1.2778   -0.1080   44.6142 C   0  0  1  0  0  0  0  0  0  0  0  0
    1.3341    0.3601   43.2341 O   0  0  0  0  0  0  0  0  0  0  0  0
    2.6522    0.1600   45.3103 C   0  0  1  0  0  0  0  0  0  0  0  0
    2.6162   -0.1109   46.8485 C   0  0  1  0  0  0  0  0  0  0  0  0
    3.8989    0.2456   47.4943 N   0  3  0  0  0  0  0  0  0  0  0  0
    1.4592    0.6771   47.5155 C   0  0  0  0  0  0  0  0  0  0  0  0
    0.3195   -0.0738   42.2728 C   0  0  1  0  0  0  0  0  0  0  0  0
    0.7606    0.3577   40.8616 C   0  0  2  0  0  0  0  0  0  0  0  0
   -0.3621    0.5039   39.9966 O   0  0  0  0  0  0  0  0  0  0  0  0
    1.6224   -0.8602   40.4956 C   0  0  1  0  0  0  0  0  0  0  0  0
    0.7769   -2.0192   40.9970 C   0  0  2  0  0  0  0  0  0  0  0  0
    0.2640   -1.5103   42.2188 O   0  0  0  0  0  0  0  0  0  0  0  0
    1.5407   -3.3268   41.2428 C   0  0  0  0  0  0  0  0  0  0  0  0
    0.6380   -4.3538   41.6258 O   0  0  0  0  0  0  0  0  0  0  0  0
    5.1661    0.6319   36.7469 C   0  0  1  0  0  0  0  0  0  0  0  0
    5.1034   -0.3549   35.7188 O   0  0  0  0  0  0  0  0  0  0  0  0
    3.8391    1.4408   36.7665 C   0  0  2  0  0  0  0  0  0  0  0  0
    4.0471    2.6353   37.5165 O   0  0  0  0  0  0  0  0  0  0  0  0
    2.6028    0.6857   37.3558 C   0  0  1  0  0  0  0  0  0  0  0  0
    1.9574   -0.1387   36.3104 N   0  3  0  0  0  0  0  0  0  0  0  0
    2.9741   -0.1318   38.6209 C   0  0  1  0  0  0  0  0  0  0  0  0
    1.9233   -1.0166   39.0815 O   0  0  0  0  0  0  0  0  0  0  0  0
    5.3893   -0.0412   38.1245 C   0  0  1  0  0  0  0  0  0  0  0  0
    4.2260   -0.8666   38.4062 O   0  0  0  0  0  0  0  0  0  0  0  0
    6.6858   -0.8679   38.2113 C   0  0  0  0  0  0  0  0  0  0  0  0
    7.1035   -1.4120   36.9043 N   0  3  0  0  0  0  0  0  0  0  0  0
  1  2  1  1  0  0  0
  1  3  1  0  0  0  0
  1 10  1  0  0  0  0
  3  4  1  1  0  0  0
  3  5  1  0  0  0  0
  5  6  1  6  0  0  0
  5  7  1  0  0  0  0
  7  8  1  1  0  0  0
  7  9  1  0  0  0  0
  9 10  1  0  0  0  0
  9 11  1  6  0  0  0
 11 12  1  0  0  0  0
 13 14  1  1  0  0  0
 13 15  1  0  0  0  0
 13 22  1  0  0  0  0
 15 16  1  6  0  0  0
 15 17  1  0  0  0  0
 17 18  1  6  0  0  0
 17 19  1  0  0  0  0
 19  2  1  6  0  0  0
 19 20  1  0  0  0  0
 20 21  1  1  0  0  0
 20 22  1  0  0  0  0
 23 18  1  1  0  0  0
 23 24  1  0  0  0  0
 23 28  1  0  0  0  0
 24 25  1  6  0  0  0
 24 26  1  0  0  0  0
 26 27  1  0  0  0  0
 26 38  1  6  0  0  0
 27 28  1  0  0  0  0
 27 29  1  1  0  0  0
 29 30  1  0  0  0  0
 31 32  1  6  0  0  0
 31 33  1  0  0  0  0
 31 39  1  0  0  0  0
 33 34  1  1  0  0  0
 33 35  1  0  0  0  0
 35 36  1  6  0  0  0
 35 37  1  0  0  0  0
 37 38  1  6  0  0  0
 37 40  1  0  0  0  0
 39 40  1  0  0  0  0
 39 41  1  6  0  0  0
 41 42  1  0  0  0  0
M  CHG  5   4   1  14   1  21   1  36   1  42   1
M  END
>  <CHROM.1>
-149.80794048,26.92779686,-173.56849583,-178.31974159,-53.90785004,-155.53274831
159.22576169,-64.87590120,-54.23570429,-73.05894271,-169.95024308,67.48480129
-34.73951473,78.02790143,-176.35394719,-52.66947926,72.89558865,-54.81822352
45.98176427,-128.83827400,-28.30997284,-143.92590839,3.06901191,-0.51250518
41.68142808,-1.98060585,0.18075109,-1.48729257

>  <Name>
1pbr

>  <RI>
0

>  <Rbt.Current_Directory>
/home/itssahil/PROJECTS/Mol_Feturizer/New_Systems/rnas/1pbr

>  <Rbt.Executable>
rbdock ($Id: //depot/dev/client3/rdock/2013.1/src/exe/rbdock.cxx#4 $)

>  <Rbt.Library>
libRbt.so (2013.1, Build901 2013/11/27)

>  <Rbt.Parameter_File>
/export/apps/rDock/src/rDock_2013.1_src/data/scripts/dock_solv.prm

>  <Rbt.Receptor>
prm/pocket_docking_5.prm

>  <SCORE>
-39.718

>  <SCORE.INTER>
-41.3738

>  <SCORE.INTER.CONST>
1

>  <SCORE.INTER.POLAR>
-5.28008

>  <SCORE.INTER.ROT>
9

>  <SCORE.INTER.SOLV>
36.242

>  <SCORE.INTER.VDW>
-31.663

>  <SCORE.INTER.norm>
-0.985091

>  <SCORE.INTRA>
1.65588

>  <SCORE.INTRA.DIHEDRAL>
2.41685

>  <SCORE.INTRA.DIHEDRAL.0>
29.7866

>  <SCORE.INTRA.POLAR>
0.00518573

>  <SCORE.INTRA.POLAR.0>
-0.984091

>  <SCORE.INTRA.REPUL>
-0.264507

>  <SCORE.INTRA.REPUL.0>
0.274115

>  <SCORE.INTRA.SOLV>
-1.02234

>  <SCORE.INTRA.SOLV.lig_0>
-152.978

>  <SCORE.INTRA.VDW>
2.26353

>  <SCORE.INTRA.VDW.0>
-6.10719

>  <SCORE.INTRA.norm>
0.0394257

>  <SCORE.RESTR>
0

>  <SCORE.RESTR.CAVITY>
0

>  <SCORE.RESTR.norm>
0

>  <SCORE.SYSTEM>
0

>  <SCORE.SYSTEM.CONST>
0

>  <SCORE.SYSTEM.DIHEDRAL>
0

>  <SCORE.SYSTEM.SOLV>
0

>  <SCORE.SYSTEM.norm>
0

>  <SCORE.heavy>
42

>  <SCORE.norm>
-0.945666

>  <RMSD>
5.459

$$$$
1pbr
 OpenBabel11021811403D
libRbt.so/2013.1/901 2013/11/27
 42 45  0  0  0  0  0  0  0  0999 V2000
    7.1708   -2.9209   42.0778 C   0  0  2  0  0  0  0  0  0  0  0  0
    7.4644   -4.3196   42.3237 O   0  0  0  0  0  0  0  0  0  0  0  0
    8.4937   -2.0679   42.0518 C   0  0  2  0  0  0  0  0  0  0  0  0
    9.6294   -2.7136   41.3435 N   0  3  0  0  0  0  0  0  0  0  0  0
    8.9948   -1.7549   43.4743 C   0  0  1  0  0  0  0  0  0  0  0  0
   10.0279   -0.7726   43.4422 O   0  0  0  0  0  0  0  0  0  0  0  0
    7.8470   -1.2597   44.3672 C   0  0  2  0  0  0  0  0  0  0  0  0
    8.3368   -0.9342   45.6642 O   0  0  0  0  0  0  0  0  0  0  0  0
    6.7012   -2.2950   44.4100 C   0  0  2  0  0  0  0  0  0  0  0  0
    6.2131   -2.4358   43.0590 O   0  0  0  0  0  0  0  0  0  0  0  0
    5.5234   -1.8909   45.2951 C   0  0  0  0  0  0  0  0  0  0  0  0
    5.9259   -1.7374   46.6497 O   0  0  0  0  0  0  0  0  0  0  0  0
    5.3050   -7.9279   41.5989 C   0  0  1  0  0  0  0  0  0  0  0  0
    4.3242   -9.0274   41.5449 N   0  3  0  0  0  0  0  0  0  0  0  0
    4.8077   -6.6557   40.8480 C   0  0  2  0  0  0  0  0  0  0  0  0
    4.5470   -6.9559   39.4789 O   0  0  0  0  0  0  0  0  0  0  0  0
    5.8647   -5.5144   40.9082 C   0  0  1  0  0  0  0  0  0  0  0  0
    5.2778   -4.3053   40.3418 O   0  0  0  0  0  0  0  0  0  0  0  0
    6.3369   -5.2268   42.3709 C   0  0  1  0  0  0  0  0  0  0  0  0
    6.7809   -6.5181   43.1299 C   0  0  1  0  0  0  0  0  0  0  0  0
    7.1268   -6.2293   44.5394 N   0  3  0  0  0  0  0  0  0  0  0  0
    5.6662   -7.5946   43.0760 C   0  0  0  0  0  0  0  0  0  0  0  0
    4.9468   -4.2512   38.9172 C   0  0  1  0  0  0  0  0  0  0  0  0
    3.6999   -3.3660   38.7338 C   0  0  2  0  0  0  0  0  0  0  0  0
    2.9950   -3.7143   37.5456 O   0  0  0  0  0  0  0  0  0  0  0  0
    4.3899   -1.9981   38.6213 C   0  0  1  0  0  0  0  0  0  0  0  0
    5.5730   -2.3042   37.7179 C   0  0  2  0  0  0  0  0  0  0  0  0
    5.9877   -3.5779   38.1873 O   0  0  0  0  0  0  0  0  0  0  0  0
    6.7325   -1.3029   37.7980 C   0  0  0  0  0  0  0  0  0  0  0  0
    6.2400    0.0236   37.6790 O   0  0  0  0  0  0  0  0  0  0  0  0
    1.9067    0.4048   41.8190 C   0  0  1  0  0  0  0  0  0  0  0  0
    3.0220    0.0004   42.6109 O   0  0  0  0  0  0  0  0  0  0  0  0
    2.3554    1.5109   40.8236 C   0  0  2  0  0  0  0  0  0  0  0  0
    1.1933    2.1604   40.3134 O   0  0  0  0  0  0  0  0  0  0  0  0
    3.2247    1.0173   39.6209 C   0  0  1  0  0  0  0  0  0  0  0  0
    4.6497    0.9441   40.0120 N   0  3  0  0  0  0  0  0  0  0  0  0
    2.6941   -0.3170   39.0335 C   0  0  1  0  0  0  0  0  0  0  0  0
    3.5791   -0.9279   38.0627 O   0  0  0  0  0  0  0  0  0  0  0  0
    1.3373   -0.8047   41.0357 C   0  0  1  0  0  0  0  0  0  0  0  0
    2.3654   -1.2561   40.1121 O   0  0  0  0  0  0  0  0  0  0  0  0
    0.8586   -1.9598   41.9350 C   0  0  0  0  0  0  0  0  0  0  0  0
   -0.1949   -1.5459   42.8822 N   0  3  0  0  0  0  0  0  0  0  0  0
  1  2  1  1  0  0  0
  1  3  1  0  0  0  0
  1 10  1  0  0  0  0
  3  4  1  6  0  0  0
  3  5  1  0  0  0  0
  5  6  1  6  0  0  0
  5  7  1  0  0  0  0
  7  8  1  1  0  0  0
  7  9  1  0  0  0  0
  9 10  1  0  0  0  0
  9 11  1  1  0  0  0
 11 12  1  0  0  0  0
 13 14  1  1  0  0  0
 13 15  1  0  0  0  0
 13 22  1  0  0  0  0
 15 16  1  6  0  0  0
 15 17  1  0  0  0  0
 17 18  1  1  0  0  0
 17 19  1  0  0  0  0
 19  2  1  6  0  0  0
 19 20  1  0  0  0  0
 20 21  1  1  0  0  0
 20 22  1  0  0  0  0
 23 18  1  1  0  0  0
 23 24  1  0  0  0  0
 23 28  1  0  0  0  0
 24 25  1  6  0  0  0
 24 26  1  0  0  0  0
 26 27  1  0  0  0  0
 26 38  1  6  0  0  0
 27 28  1  0  0  0  0
 27 29  1  1  0  0  0
 29 30  1  0  0  0  0
 31 32  1  6  0  0  0
 31 33  1  0  0  0  0
 31 39  1  0  0  0  0
 33 34  1  6  0  0  0
 33 35  1  0  0  0  0
 35 36  1  1  0  0  0
 35 37  1  0  0  0  0
 37 38  1  6  0  0  0
 37 40  1  0  0  0  0
 39 40  1  0  0  0  0
 39 41  1  1  0  0  0
 41 42  1  0  0  0  0
M  CHG  5   4   1  14   1  21   1  36   1  42   1
M  END
>  <CHROM.1>
-179.84602006,77.21235454,56.97686843,-62.43797253,-65.76469674,-61.55817372
169.66029645,-64.60269107,-57.42115648,-66.77043494,147.03585749,-63.66944209
65.55285037,81.78650050,-49.26533130,175.66807771,-61.92282021,67.40219580
-33.19625641,99.35538144,58.77877264,-160.91160918,5.14849445,-2.65774441
41.34193326,-0.50576146,-0.79710443,0.31459462

>  <Name>
1pbr

>  <RI>
0

>  <Rbt.Current_Directory>
/home/itssahil/PROJECTS/Mol_Feturizer/New_Systems/rnas/1pbr

>  <Rbt.Executable>
rbdock ($Id: //depot/dev/client3/rdock/2013.1/src/exe/rbdock.cxx#4 $)

>  <Rbt.Library>
libRbt.so (2013.1, Build901 2013/11/27)

>  <Rbt.Parameter_File>
/export/apps/rDock/src/rDock_2013.1_src/data/scripts/dock_solv.prm

>  <Rbt.Receptor>
prm/pocket_docking_6.prm

>  <SCORE>
-18.1764

>  <SCORE.INTER>
-12.8953

>  <SCORE.INTER.CONST>
1

>  <SCORE.INTER.POLAR>
-2.77836

>  <SCORE.INTER.ROT>
9

>  <SCORE.INTER.SOLV>
10.8661

>  <SCORE.INTER.VDW>
-12.5577

>  <SCORE.INTER.norm>
-0.30703

>  <SCORE.INTRA>
-5.5656

>  <SCORE.INTRA.DIHEDRAL>
-11.6834

>  <SCORE.INTRA.DIHEDRAL.0>
29.7866

>  <SCORE.INTRA.POLAR>
-0.153373

>  <SCORE.INTRA.POLAR.0>
-0.984091

>  <SCORE.INTRA.REPUL>
-0.195918

>  <SCORE.INTRA.REPUL.0>
0.274115

>  <SCORE.INTRA.SOLV>
1.11086

>  <SCORE.INTRA.SOLV.lig_0>
-152.978

>  <SCORE.INTRA.VDW>
1.22175

>  <SCORE.INTRA.VDW.0>
-6.10719

>  <SCORE.INTRA.norm>
-0.132514

>  <SCORE.RESTR>
0.28449

>  <SCORE.RESTR.CAVITY>
0.28449

>  <SCORE.RESTR.norm>
0.00677357

>  <SCORE.SYSTEM>
0

>  <SCORE.SYSTEM.CONST>
0

>  <SCORE.SYSTEM.DIHEDRAL>
0

>  <SCORE.SYSTEM.SOLV>
0

>  <SCORE.SYSTEM.norm>
0

>  <SCORE.heavy>
42

>  <SCORE.norm>
-0.432771

>  <RMSD>
5.485

$$$$
1pbr
 OpenBabel11021811403D
libRbt.so/2013.1/901 2013/11/27
 42 45  0  0  0  0  0  0  0  0999 V2000
    3.0478   -2.5166   40.2715 C   0  0  2  0  0  0  0  0  0  0  0  0
    3.0536   -3.4935   41.3433 O   0  0  0  0  0  0  0  0  0  0  0  0
    2.4972   -3.1504   38.9399 C   0  0  2  0  0  0  0  0  0  0  0  0
    1.3245   -4.0448   39.1221 N   0  3  0  0  0  0  0  0  0  0  0  0
    3.5724   -3.9897   38.2242 C   0  0  1  0  0  0  0  0  0  0  0  0
    3.1512   -4.3341   36.9061 O   0  0  0  0  0  0  0  0  0  0  0  0
    4.9066   -3.2318   38.1522 C   0  0  2  0  0  0  0  0  0  0  0  0
    5.8749   -4.0044   37.4497 O   0  0  0  0  0  0  0  0  0  0  0  0
    5.3835   -2.8279   39.5650 C   0  0  2  0  0  0  0  0  0  0  0  0
    4.3773   -1.9490   40.1114 O   0  0  0  0  0  0  0  0  0  0  0  0
    6.7184   -2.0852   39.5879 C   0  0  0  0  0  0  0  0  0  0  0  0
    7.7402   -2.8426   38.9533 O   0  0  0  0  0  0  0  0  0  0  0  0
    0.3541   -4.1233   44.5874 C   0  0  1  0  0  0  0  0  0  0  0  0
   -0.4696   -4.0348   45.8070 N   0  3  0  0  0  0  0  0  0  0  0  0
   -0.0926   -3.1022   43.4977 C   0  0  2  0  0  0  0  0  0  0  0  0
   -1.4535   -3.3245   43.1355 O   0  0  0  0  0  0  0  0  0  0  0  0
    0.7831   -3.2237   42.2163 C   0  0  1  0  0  0  0  0  0  0  0  0
    0.4322   -2.1383   41.3075 O   0  0  0  0  0  0  0  0  0  0  0  0
    2.3114   -3.1568   42.5401 C   0  0  1  0  0  0  0  0  0  0  0  0
    2.7356   -4.1465   43.6719 C   0  0  1  0  0  0  0  0  0  0  0  0
    4.1641   -3.9902   44.0246 N   0  3  0  0  0  0  0  0  0  0  0  0
    1.8604   -3.9400   44.9352 C   0  0  0  0  0  0  0  0  0  0  0  0
    0.4838   -0.7511   41.7708 C   0  0  1  0  0  0  0  0  0  0  0  0
    1.8926   -0.1919   41.4974 C   0  0  2  0  0  0  0  0  0  0  0  0
    2.2035    0.8725   42.3922 O   0  0  0  0  0  0  0  0  0  0  0  0
    1.6812    0.3010   40.0579 C   0  0  1  0  0  0  0  0  0  0  0  0
    0.3135    0.9589   40.1373 C   0  0  2  0  0  0  0  0  0  0  0  0
   -0.3980    0.0712   40.9861 O   0  0  0  0  0  0  0  0  0  0  0  0
   -0.4158    1.1140   38.7965 C   0  0  0  0  0  0  0  0  0  0  0  0
   -1.5698    1.9249   38.9604 O   0  0  0  0  0  0  0  0  0  0  0  0
    2.5873    3.3665   35.7996 C   0  0  1  0  0  0  0  0  0  0  0  0
    3.0952    4.5901   36.3283 O   0  0  0  0  0  0  0  0  0  0  0  0
    3.6636    2.2551   35.9474 C   0  0  2  0  0  0  0  0  0  0  0  0
    3.3081    1.1641   35.1012 O   0  0  0  0  0  0  0  0  0  0  0  0
    3.8755    1.7165   37.4002 C   0  0  1  0  0  0  0  0  0  0  0  0
    4.8244    2.5810   38.1360 N   0  3  0  0  0  0  0  0  0  0  0  0
    2.5298    1.5289   38.1490 C   0  0  1  0  0  0  0  0  0  0  0  0
    2.6753    1.2387   39.5610 O   0  0  0  0  0  0  0  0  0  0  0  0
    1.2983    2.9504   36.5520 C   0  0  1  0  0  0  0  0  0  0  0  0
    1.6594    2.6910   37.9362 O   0  0  0  0  0  0  0  0  0  0  0  0
    0.1630    3.9873   36.4636 C   0  0  0  0  0  0  0  0  0  0  0  0
   -0.2314    4.5148   37.7845 N   0  3  0  0  0  0  0  0  0  0  0  0
  1  2  1  1  0  0  0
  1  3  1  0  0  0  0
  1 10  1  0  0  0  0
  3  4  1  1  0  0  0
  3  5  1  0  0  0  0
  5  6  1  6  0  0  0
  5  7  1  0  0  0  0
  7  8  1  1  0  0  0
  7  9  1  0  0  0  0
  9 10  1  0  0  0  0
  9 11  1  6  0  0  0
 11 12  1  0  0  0  0
 13 14  1  1  0  0  0
 13 15  1  0  0  0  0
 13 22  1  0  0  0  0
 15 16  1  6  0  0  0
 15 17  1  0  0  0  0
 17 18  1  6  0  0  0
 17 19  1  0  0  0  0
 19  2  1  6  0  0  0
 19 20  1  0  0  0  0
 20 21  1  1  0  0  0
 20 22  1  0  0  0  0
 23 18  1  6  0  0  0
 23 24  1  0  0  0  0
 23 28  1  0  0  0  0
 24 25  1  1  0  0  0
 24 26  1  0  0  0  0
 26 27  1  0  0  0  0
 26 38  1  1  0  0  0
 27 28  1  0  0  0  0
 27 29  1  6  0  0  0
 29 30  1  0  0  0  0
 31 32  1  1  0  0  0
 31 33  1  0  0  0  0
 31 39  1  0  0  0  0
 33 34  1  6  0  0  0
 33 35  1  0  0  0  0
 35 36  1  1  0  0  0
 35 37  1  0  0  0  0
 37 38  1  1  0  0  0
 37 40  1  0  0  0  0
 39 40  1  0  0  0  0
 39 41  1  1  0  0  0
 41 42  1  0  0  0  0
M  CHG  5   4   1  14   1  21   1  36   1  42   1
M  END
>  <CHROM.1>
-122.90065133,71.17403299,166.33514544,-65.85406788,-179.53759257,-56.06589951
-175.51007919,173.07759304,69.14999821,54.69561978,90.04841226,-51.62279617
174.78735626,172.16973951,-170.63350895,-67.37389273,72.98236678,154.24149324
158.78665210,-143.58613881,-118.66338744,43.44876906,2.29116789,-0.85891820
39.84963956,-1.63870475,0.60266312,-0.71219161

>  <Name>
1pbr

>  <RI>
0

>  <Rbt.Current_Directory>
/home/itssahil/PROJECTS/Mol_Feturizer/New_Systems/rnas/1pbr

>  <Rbt.Executable>
rbdock ($Id: //depot/dev/client3/rdock/2013.1/src/exe/rbdock.cxx#4 $)

>  <Rbt.Library>
libRbt.so (2013.1, Build901 2013/11/27)

>  <Rbt.Parameter_File>
/export/apps/rDock/src/rDock_2013.1_src/data/scripts/dock_solv.prm

>  <Rbt.Receptor>
prm/pocket_docking_4.prm

>  <SCORE>
-45.8971

>  <SCORE.INTER>
-40.7769

>  <SCORE.INTER.CONST>
1

>  <SCORE.INTER.POLAR>
-6.52597

>  <SCORE.INTER.ROT>
9

>  <SCORE.INTER.SOLV>
32.5887

>  <SCORE.INTER.VDW>
-25.8943

>  <SCORE.INTER.norm>
-0.970878

>  <SCORE.INTRA>
-5.12017

>  <SCORE.INTRA.DIHEDRAL>
0.161083

>  <SCORE.INTRA.DIHEDRAL.0>
29.7866

>  <SCORE.INTRA.POLAR>
-1.90001

>  <SCORE.INTRA.POLAR.0>
-0.984091

>  <SCORE.INTRA.REPUL>
-0.274115

>  <SCORE.INTRA.REPUL.0>
0.274115

>  <SCORE.INTRA.SOLV>
2.73631

>  <SCORE.INTRA.SOLV.lig_0>
-152.978

>  <SCORE.INTRA.VDW>
1.26174

>  <SCORE.INTRA.VDW.0>
-6.10719

>  <SCORE.INTRA.norm>
-0.121909

>  <SCORE.RESTR>
0

>  <SCORE.RESTR.CAVITY>
0

>  <SCORE.RESTR.norm>
0

>  <SCORE.SYSTEM>
0

>  <SCORE.SYSTEM.CONST>
0

>  <SCORE.SYSTEM.DIHEDRAL>
0

>  <SCORE.SYSTEM.SOLV>
0

>  <SCORE.SYSTEM.norm>
0

>  <SCORE.heavy>
42

>  <SCORE.norm>
-1.09279

>  <RMSD>
5.504

$$$$
1pbr
 OpenBabel11021811403D
libRbt.so/2013.1/901 2013/11/27
 42 45  0  0  0  0  0  0  0  0999 V2000
    2.2334   -2.8785   41.7876 C   0  0  2  0  0  0  0  0  0  0  0  0
    2.4429   -2.9966   43.2177 O   0  0  0  0  0  0  0  0  0  0  0  0
    1.0366   -3.7883   41.3205 C   0  0  2  0  0  0  0  0  0  0  0  0
   -0.1346   -3.7834   42.2352 N   0  3  0  0  0  0  0  0  0  0  0  0
    1.4657   -5.2608   41.1774 C   0  0  1  0  0  0  0  0  0  0  0  0
    0.4599   -6.0181   40.5080 O   0  0  0  0  0  0  0  0  0  0  0  0
    2.7898   -5.3773   40.4076 C   0  0  2  0  0  0  0  0  0  0  0  0
    3.1478   -6.7464   40.2473 O   0  0  0  0  0  0  0  0  0  0  0  0
    3.8988   -4.5527   41.0980 C   0  0  2  0  0  0  0  0  0  0  0  0
    3.4690   -3.1749   41.0798 O   0  0  0  0  0  0  0  0  0  0  0  0
    5.2595   -4.6293   40.4076 C   0  0  0  0  0  0  0  0  0  0  0  0
    5.1598   -4.2819   39.0329 O   0  0  0  0  0  0  0  0  0  0  0  0
    3.4375   -0.2763   46.3511 C   0  0  1  0  0  0  0  0  0  0  0  0
    4.0348    0.7501   47.2250 N   0  3  0  0  0  0  0  0  0  0  0  0
    2.7924    0.3395   45.0727 C   0  0  2  0  0  0  0  0  0  0  0  0
    1.7740    1.2716   45.4288 O   0  0  0  0  0  0  0  0  0  0  0  0
    2.1580   -0.7615   44.1733 C   0  0  1  0  0  0  0  0  0  0  0  0
    1.7256   -0.1492   42.9222 O   0  0  0  0  0  0  0  0  0  0  0  0
    3.1623   -1.9197   43.8652 C   0  0  1  0  0  0  0  0  0  0  0  0
    3.8425   -2.4908   45.1504 C   0  0  1  0  0  0  0  0  0  0  0  0
    4.8586   -3.5144   44.8196 N   0  3  0  0  0  0  0  0  0  0  0  0
    4.4977   -1.3522   45.9743 C   0  0  0  0  0  0  0  0  0  0  0  0
    2.6065    0.7880   42.2240 C   0  0  1  0  0  0  0  0  0  0  0  0
    3.5029   -0.0060   41.2554 C   0  0  2  0  0  0  0  0  0  0  0  0
    4.7169    0.6921   40.9925 O   0  0  0  0  0  0  0  0  0  0  0  0
    2.5718   -0.0346   40.0339 C   0  0  1  0  0  0  0  0  0  0  0  0
    2.0331    1.3861   40.0026 C   0  0  2  0  0  0  0  0  0  0  0  0
    1.8371    1.6635   41.3807 O   0  0  0  0  0  0  0  0  0  0  0  0
    0.7207    1.5703   39.2297 C   0  0  0  0  0  0  0  0  0  0  0  0
    0.1487    2.8337   39.5348 O   0  0  0  0  0  0  0  0  0  0  0  0
    3.0194    2.1544   35.2675 C   0  0  1  0  0  0  0  0  0  0  0  0
    4.4320    2.2269   35.0827 O   0  0  0  0  0  0  0  0  0  0  0  0
    2.5513    0.6829   35.0908 C   0  0  2  0  0  0  0  0  0  0  0  0
    1.1378    0.6759   34.9050 O   0  0  0  0  0  0  0  0  0  0  0  0
    2.9084   -0.2799   36.2702 C   0  0  1  0  0  0  0  0  0  0  0  0
    4.2793   -0.8110   36.1037 N   0  3  0  0  0  0  0  0  0  0  0  0
    2.6884    0.3917   37.6513 C   0  0  1  0  0  0  0  0  0  0  0  0
    3.2033   -0.3737   38.7686 O   0  0  0  0  0  0  0  0  0  0  0  0
    2.6360    2.6596   36.6811 C   0  0  1  0  0  0  0  0  0  0  0  0
    3.2324    1.7545   37.6501 O   0  0  0  0  0  0  0  0  0  0  0  0
    3.0543    4.1159   36.9570 C   0  0  0  0  0  0  0  0  0  0  0  0
    1.8989    5.0188   37.1252 N   0  3  0  0  0  0  0  0  0  0  0  0
  1  2  1  1  0  0  0
  1  3  1  0  0  0  0
  1 10  1  0  0  0  0
  3  4  1  1  0  0  0
  3  5  1  0  0  0  0
  5  6  1  6  0  0  0
  5  7  1  0  0  0  0
  7  8  1  1  0  0  0
  7  9  1  0  0  0  0
  9 10  1  0  0  0  0
  9 11  1  6  0  0  0
 11 12  1  0  0  0  0
 13 14  1  6  0  0  0
 13 15  1  0  0  0  0
 13 22  1  0  0  0  0
 15 16  1  1  0  0  0
 15 17  1  0  0  0  0
 17 18  1  6  0  0  0
 17 19  1  0  0  0  0
 19  2  1  1  0  0  0
 19 20  1  0  0  0  0
 20 21  1  6  0  0  0
 20 22  1  0  0  0  0
 23 18  1  6  0  0  0
 23 24  1  0  0  0  0
 23 28  1  0  0  0  0
 24 25  1  6  0  0  0
 24 26  1  0  0  0  0
 26 27  1  0  0  0  0
 26 38  1  6  0  0  0
 27 28  1  0  0  0  0
 27 29  1  6  0  0  0
 29 30  1  0  0  0  0
 31 32  1  1  0  0  0
 31 33  1  0  0  0  0
 31 39  1  0  0  0  0
 33 34  1  1  0  0  0
 33 35  1  0  0  0  0
 35 36  1  6  0  0  0
 35 37  1  0  0  0  0
 37 38  1  1  0  0  0
 37 40  1  0  0  0  0
 39 40  1  0  0  0  0
 39 41  1  1  0  0  0
 41 42  1  0  0  0  0
M  CHG  5   4   1  14   1  21   1  36   1  42   1
M  END
>  <CHROM.1>
-159.23704653,82.97292482,-155.73283119,-81.36694900,171.99042800,53.88949603
-162.69893933,-53.47534414,-51.41457392,44.82599552,89.33469477,62.18019795
171.48638801,-141.48186073,165.82075167,41.19241394,51.65212695,59.25268676
167.19872983,-157.70039450,113.83562837,-46.28287367,2.78076651,-0.81564018
40.58753621,-0.77088059,1.50809817,-1.81030251

>  <Name>
1pbr

>  <RI>
0

>  <Rbt.Current_Directory>
/home/itssahil/PROJECTS/Mol_Feturizer/New_Systems/rnas/1pbr

>  <Rbt.Executable>
rbdock ($Id: //depot/dev/client3/rdock/2013.1/src/exe/rbdock.cxx#4 $)

>  <Rbt.Library>
libRbt.so (2013.1, Build901 2013/11/27)

>  <Rbt.Parameter_File>
/export/apps/rDock/src/rDock_2013.1_src/data/scripts/dock_solv.prm

>  <Rbt.Receptor>
prm/pocket_docking_3.prm

>  <SCORE>
-35.0406

>  <SCORE.INTER>
-42.8687

>  <SCORE.INTER.CONST>
1

>  <SCORE.INTER.POLAR>
-6.44082

>  <SCORE.INTER.ROT>
9

>  <SCORE.INTER.SOLV>
27.8714

>  <SCORE.INTER.VDW>
-26.0002

>  <SCORE.INTER.norm>
-1.02068

>  <SCORE.INTRA>
7.82808

>  <SCORE.INTRA.DIHEDRAL>
1.68425

>  <SCORE.INTRA.DIHEDRAL.0>
29.7866

>  <SCORE.INTRA.POLAR>
0.864546

>  <SCORE.INTRA.POLAR.0>
-0.984091

>  <SCORE.INTRA.REPUL>
-0.0382439

>  <SCORE.INTRA.REPUL.0>
0.274115

>  <SCORE.INTRA.SOLV>
-2.6171

>  <SCORE.INTRA.SOLV.lig_0>
-152.978

>  <SCORE.INTRA.VDW>
5.54627

>  <SCORE.INTRA.VDW.0>
-6.10719

>  <SCORE.INTRA.norm>
0.186383

>  <SCORE.RESTR>
0

>  <SCORE.RESTR.CAVITY>
0

>  <SCORE.RESTR.norm>
0

>  <SCORE.SYSTEM>
0

>  <SCORE.SYSTEM.CONST>
0

>  <SCORE.SYSTEM.DIHEDRAL>
0

>  <SCORE.SYSTEM.SOLV>
0

>  <SCORE.SYSTEM.norm>
0

>  <SCORE.heavy>
42

>  <SCORE.norm>
-0.8343

>  <RMSD>
5.526

$$$$
1pbr
 OpenBabel11021811403D
libRbt.so/2013.1/901 2013/11/27
 42 45  0  0  0  0  0  0  0  0999 V2000
    0.6563   -3.0721   43.2965 C   0  0  2  0  0  0  0  0  0  0  0  0
    1.4157   -3.4475   44.4735 O   0  0  0  0  0  0  0  0  0  0  0  0
   -0.8228   -3.6025   43.3926 C   0  0  2  0  0  0  0  0  0  0  0  0
   -1.4404   -3.4655   44.7372 N   0  3  0  0  0  0  0  0  0  0  0  0
   -0.9149   -5.0957   43.0260 C   0  0  1  0  0  0  0  0  0  0  0  0
   -2.2742   -5.4932   42.8599 O   0  0  0  0  0  0  0  0  0  0  0  0
   -0.1339   -5.3969   41.7379 C   0  0  2  0  0  0  0  0  0  0  0  0
   -0.2665   -6.7719   41.3913 O   0  0  0  0  0  0  0  0  0  0  0  0
    1.3417   -4.9616   41.8781 C   0  0  2  0  0  0  0  0  0  0  0  0
    1.3385   -3.5351   42.0983 O   0  0  0  0  0  0  0  0  0  0  0  0
    2.1990   -5.2446   40.6457 C   0  0  0  0  0  0  0  0  0  0  0  0
    3.5673   -4.9478   40.8908 O   0  0  0  0  0  0  0  0  0  0  0  0
    4.8262   -1.4631   46.0980 C   0  0  1  0  0  0  0  0  0  0  0  0
    6.1658   -0.9267   46.4004 N   0  3  0  0  0  0  0  0  0  0  0  0
    4.2351   -0.8691   44.7837 C   0  0  2  0  0  0  0  0  0  0  0  0
    4.1378    0.5500   44.8786 O   0  0  0  0  0  0  0  0  0  0  0  0
    2.8165   -1.4406   44.4930 C   0  0  1  0  0  0  0  0  0  0  0  0
    2.3909   -0.9832   43.1752 O   0  0  0  0  0  0  0  0  0  0  0  0
    2.7927   -3.0036   44.5333 C   0  0  1  0  0  0  0  0  0  0  0  0
    3.4374   -3.5869   45.8313 C   0  0  1  0  0  0  0  0  0  0  0  0
    3.4904   -5.0652   45.7959 N   0  3  0  0  0  0  0  0  0  0  0  0
    4.8655   -3.0181   46.0355 C   0  0  0  0  0  0  0  0  0  0  0  0
    2.4582    0.4393   42.8379 C   0  0  1  0  0  0  0  0  0  0  0  0
    3.4835    0.6294   41.7044 C   0  0  2  0  0  0  0  0  0  0  0  0
    4.0236    1.9479   41.7183 O   0  0  0  0  0  0  0  0  0  0  0  0
    2.5589    0.3920   40.5008 C   0  0  1  0  0  0  0  0  0  0  0  0
    1.3093    1.1622   40.8941 C   0  0  2  0  0  0  0  0  0  0  0  0
    1.2073    0.8810   42.2816 O   0  0  0  0  0  0  0  0  0  0  0  0
    0.0255    0.7391   40.1684 C   0  0  0  0  0  0  0  0  0  0  0  0
   -0.9119    1.8057   40.1744 O   0  0  0  0  0  0  0  0  0  0  0  0
    4.0588   -1.5216   35.7450 C   0  0  1  0  0  0  0  0  0  0  0  0
    5.3117   -0.8839   35.5034 O   0  0  0  0  0  0  0  0  0  0  0  0
    4.1051   -2.2440   37.1205 C   0  0  2  0  0  0  0  0  0  0  0  0
    3.0208   -3.1674   37.1844 O   0  0  0  0  0  0  0  0  0  0  0  0
    4.0427   -1.3075   38.3714 C   0  0  1  0  0  0  0  0  0  0  0  0
    5.3945   -0.8106   38.7099 N   0  3  0  0  0  0  0  0  0  0  0  0
    3.0115   -0.1633   38.1859 C   0  0  1  0  0  0  0  0  0  0  0  0
    3.0649    0.8525   39.2176 O   0  0  0  0  0  0  0  0  0  0  0  0
    2.9146   -0.4770   35.7405 C   0  0  1  0  0  0  0  0  0  0  0  0
    3.1430    0.4327   36.8514 O   0  0  0  0  0  0  0  0  0  0  0  0
    2.7810    0.2950   34.4146 C   0  0  0  0  0  0  0  0  0  0  0  0
    2.3267    1.6860   34.6080 N   0  3  0  0  0  0  0  0  0  0  0  0
  1  2  1  1  0  0  0
  1  3  1  0  0  0  0
  1 10  1  0  0  0  0
  3  4  1  1  0  0  0
  3  5  1  0  0  0  0
  5  6  1  6  0  0  0
  5  7  1  0  0  0  0
  7  8  1  1  0  0  0
  7  9  1  0  0  0  0
  9 10  1  0  0  0  0
  9 11  1  6  0  0  0
 11 12  1  0  0  0  0
 13 14  1  6  0  0  0
 13 15  1  0  0  0  0
 13 22  1  0  0  0  0
 15 16  1  1  0  0  0
 15 17  1  0  0  0  0
 17 18  1  6  0  0  0
 17 19  1  0  0  0  0
 19  2  1  1  0  0  0
 19 20  1  0  0  0  0
 20 21  1  6  0  0  0
 20 22  1  0  0  0  0
 23 18  1  6  0  0  0
 23 24  1  0  0  0  0
 23 28  1  0  0  0  0
 24 25  1  6  0  0  0
 24 26  1  0  0  0  0
 26 27  1  0  0  0  0
 26 38  1  6  0  0  0
 27 28  1  0  0  0  0
 27 29  1  6  0  0  0
 29 30  1  0  0  0  0
 31 32  1  1  0  0  0
 31 33  1  0  0  0  0
 31 39  1  0  0  0  0
 33 34  1  6  0  0  0
 33 35  1  0  0  0  0
 35 36  1  6  0  0  0
 35 37  1  0  0  0  0
 37 38  1  1  0  0  0
 37 40  1  0  0  0  0
 39 40  1  0  0  0  0
 39 41  1  6  0  0  0
 41 42  1  0  0  0  0
M  CHG  5   4   1  14   1  21   1  36   1  42   1
M  END
>  <CHROM.1>
-178.90631587,60.48736615,164.97096248,-51.27556192,-59.55778123,-173.99665559
57.61353730,116.59187267,62.99186533,-51.10719931,115.20218610,61.83169822
-179.48486002,128.69459735,-156.34879011,-45.22920411,63.91238614,70.14628164
-59.62699592,-71.37415843,-146.82576607,78.95130523,2.41388302,-1.76059143
41.28310974,1.82158247,0.91995307,1.78045111

>  <Name>
1pbr

>  <RI>
0

>  <Rbt.Current_Directory>
/home/itssahil/PROJECTS/Mol_Feturizer/New_Systems/rnas/1pbr

>  <Rbt.Executable>
rbdock ($Id: //depot/dev/client3/rdock/2013.1/src/exe/rbdock.cxx#4 $)

>  <Rbt.Library>
libRbt.so (2013.1, Build901 2013/11/27)

>  <Rbt.Parameter_File>
/export/apps/rDock/src/rDock_2013.1_src/data/scripts/dock_solv.prm

>  <Rbt.Receptor>
prm/pocket_docking_4.prm

>  <SCORE>
-30.8337

>  <SCORE.INTER>
-33.0484

>  <SCORE.INTER.CONST>
1

>  <SCORE.INTER.POLAR>
-4.45894

>  <SCORE.INTER.ROT>
9

>  <SCORE.INTER.SOLV>
23.6135

>  <SCORE.INTER.VDW>
-24.6403

>  <SCORE.INTER.norm>
-0.786866

>  <SCORE.INTRA>
2.21472

>  <SCORE.INTRA.DIHEDRAL>
-2.08033

>  <SCORE.INTRA.DIHEDRAL.0>
29.7866

>  <SCORE.INTRA.POLAR>
0.984091

>  <SCORE.INTRA.POLAR.0>
-0.984091

>  <SCORE.INTRA.REPUL>
-0.274064

>  <SCORE.INTRA.REPUL.0>
0.274115

>  <SCORE.INTRA.SOLV>
-3.78876

>  <SCORE.INTRA.SOLV.lig_0>
-152.978

>  <SCORE.INTRA.VDW>
3.17369

>  <SCORE.INTRA.VDW.0>
-6.10719

>  <SCORE.INTRA.norm>
0.0527315

>  <SCORE.RESTR>
0

>  <SCORE.RESTR.CAVITY>
0

>  <SCORE.RESTR.norm>
0

>  <SCORE.SYSTEM>
0

>  <SCORE.SYSTEM.CONST>
0

>  <SCORE.SYSTEM.DIHEDRAL>
0

>  <SCORE.SYSTEM.SOLV>
0

>  <SCORE.SYSTEM.norm>
0

>  <SCORE.heavy>
42

>  <SCORE.norm>
-0.734135

>  <RMSD>
5.527

$$$$
1pbr
 OpenBabel11021811403D
libRbt.so/2013.1/901 2013/11/27
 42 45  0  0  0  0  0  0  0  0999 V2000
   -0.0385   -4.2338   44.9899 C   0  0  2  0  0  0  0  0  0  0  0  0
   -0.0940   -4.9964   43.7576 O   0  0  0  0  0  0  0  0  0  0  0  0
   -0.2794   -2.7032   44.7117 C   0  0  2  0  0  0  0  0  0  0  0  0
   -1.3498   -2.4179   43.7212 N   0  3  0  0  0  0  0  0  0  0  0  0
    0.9930   -2.0160   44.1812 C   0  0  1  0  0  0  0  0  0  0  0  0
    0.8418   -0.5981   44.1858 O   0  0  0  0  0  0  0  0  0  0  0  0
    2.2197   -2.4014   45.0218 C   0  0  2  0  0  0  0  0  0  0  0  0
    3.3773   -1.7233   44.5440 O   0  0  0  0  0  0  0  0  0  0  0  0
    2.4025   -3.9351   45.0519 C   0  0  2  0  0  0  0  0  0  0  0  0
    1.2211   -4.4856   45.6720 O   0  0  0  0  0  0  0  0  0  0  0  0
    3.6158   -4.4065   45.8518 C   0  0  0  0  0  0  0  0  0  0  0  0
    4.8266   -3.9301   45.2796 O   0  0  0  0  0  0  0  0  0  0  0  0
   -0.0406   -8.7742   45.7407 C   0  0  1  0  0  0  0  0  0  0  0  0
   -0.1328  -10.1944   46.1261 N   0  3  0  0  0  0  0  0  0  0  0  0
    1.0929   -8.5166   44.7023 C   0  0  2  0  0  0  0  0  0  0  0  0
    2.3539   -8.9193   45.2318 O   0  0  0  0  0  0  0  0  0  0  0  0
    1.1786   -7.0097   44.3212 C   0  0  1  0  0  0  0  0  0  0  0  0
    2.1337   -6.8586   43.2294 O   0  0  0  0  0  0  0  0  0  0  0  0
   -0.2076   -6.4345   43.8822 C   0  0  1  0  0  0  0  0  0  0  0  0
   -1.3458   -6.7471   44.9057 C   0  0  1  0  0  0  0  0  0  0  0  0
   -2.6614   -6.2784   44.4169 N   0  3  0  0  0  0  0  0  0  0  0  0
   -1.4110   -8.2675   45.2034 C   0  0  0  0  0  0  0  0  0  0  0  0
    2.5867   -5.5246   42.8334 C   0  0  1  0  0  0  0  0  0  0  0  0
    3.9613   -5.6529   42.1506 C   0  0  2  0  0  0  0  0  0  0  0  0
    4.7039   -4.4422   42.2631 O   0  0  0  0  0  0  0  0  0  0  0  0
    3.4920   -5.9162   40.7117 C   0  0  1  0  0  0  0  0  0  0  0  0
    2.3563   -4.9190   40.5527 C   0  0  2  0  0  0  0  0  0  0  0  0
    1.7209   -4.9828   41.8203 O   0  0  0  0  0  0  0  0  0  0  0  0
    1.3541   -5.2425   39.4371 C   0  0  0  0  0  0  0  0  0  0  0  0
    1.9847   -5.1349   38.1693 O   0  0  0  0  0  0  0  0  0  0  0  0
    6.6776   -2.0864   38.8431 C   0  0  1  0  0  0  0  0  0  0  0  0
    7.9275   -2.7331   38.6100 O   0  0  0  0  0  0  0  0  0  0  0  0
    5.6515   -2.5459   37.7699 C   0  0  2  0  0  0  0  0  0  0  0  0
    4.5516   -1.6389   37.7763 O   0  0  0  0  0  0  0  0  0  0  0  0
    5.1050   -4.0007   37.9451 C   0  0  1  0  0  0  0  0  0  0  0  0
    6.0277   -4.9753   37.3225 N   0  3  0  0  0  0  0  0  0  0  0  0
    4.7987   -4.3280   39.4303 C   0  0  1  0  0  0  0  0  0  0  0  0
    4.4952   -5.7231   39.6769 O   0  0  0  0  0  0  0  0  0  0  0  0
    6.1479   -2.4348   40.2568 C   0  0  1  0  0  0  0  0  0  0  0  0
    5.8925   -3.8657   40.2923 O   0  0  0  0  0  0  0  0  0  0  0  0
    7.0940   -2.0154   41.3975 C   0  0  0  0  0  0  0  0  0  0  0  0
    7.3379   -0.5601   41.4298 N   0  3  0  0  0  0  0  0  0  0  0  0
  1  2  1  6  0  0  0
  1  3  1  0  0  0  0
  1 10  1  0  0  0  0
  3  4  1  6  0  0  0
  3  5  1  0  0  0  0
  5  6  1  1  0  0  0
  5  7  1  0  0  0  0
  7  8  1  6  0  0  0
  7  9  1  0  0  0  0
  9 10  1  0  0  0  0
  9 11  1  1  0  0  0
 11 12  1  0  0  0  0
 13 14  1  6  0  0  0
 13 15  1  0  0  0  0
 13 22  1  0  0  0  0
 15 16  1  1  0  0  0
 15 17  1  0  0  0  0
 17 18  1  6  0  0  0
 17 19  1  0  0  0  0
 19  2  1  1  0  0  0
 19 20  1  0  0  0  0
 20 21  1  6  0  0  0
 20 22  1  0  0  0  0
 23 18  1  6  0  0  0
 23 24  1  0  0  0  0
 23 28  1  0  0  0  0
 24 25  1  6  0  0  0
 24 26  1  0  0  0  0
 26 27  1  0  0  0  0
 26 38  1  6  0  0  0
 27 28  1  0  0  0  0
 27 29  1  6  0  0  0
 29 30  1  0  0  0  0
 31 32  1  6  0  0  0
 31 33  1  0  0  0  0
 31 39  1  0  0  0  0
 33 34  1  1  0  0  0
 33 35  1  0  0  0  0
 35 36  1  1  0  0  0
 35 37  1  0  0  0  0
 37 38  1  6  0  0  0
 37 40  1  0  0  0  0
 39 40  1  0  0  0  0
 39 41  1  1  0  0  0
 41 42  1  0  0  0  0
M  CHG  5   4   1  14   1  21   1  36   1  42   1
M  END
>  <CHROM.1>
-165.78884717,-74.65338185,-175.41690403,-70.79756856,-60.30364394,-62.79063758
-57.82808071,-59.72622708,-65.69379756,-169.11078721,155.66673452,59.88067996
-172.90801182,-73.16491999,-66.78800886,-172.31258786,44.10037798,173.54545002
-133.89265886,-144.69862094,60.56942402,-179.03680326,2.70566162,-4.60756713
42.43581418,3.10263500,-0.85455922,-2.63549679

>  <Name>
1pbr

>  <RI>
0

>  <Rbt.Current_Directory>
/home/itssahil/PROJECTS/Mol_Feturizer/New_Systems/rnas/1pbr

>  <Rbt.Executable>
rbdock ($Id: //depot/dev/client3/rdock/2013.1/src/exe/rbdock.cxx#4 $)

>  <Rbt.Library>
libRbt.so (2013.1, Build901 2013/11/27)

>  <Rbt.Parameter_File>
/export/apps/rDock/src/rDock_2013.1_src/data/scripts/dock_solv.prm

>  <Rbt.Receptor>
prm/pocket_docking_8.prm

>  <SCORE>
-33.178

>  <SCORE.INTER>
-29.3644

>  <SCORE.INTER.CONST>
1

>  <SCORE.INTER.POLAR>
-5.94097

>  <SCORE.INTER.ROT>
9

>  <SCORE.INTER.SOLV>
23.2898

>  <SCORE.INTER.VDW>
-17.1363

>  <SCORE.INTER.norm>
-0.699153

>  <SCORE.INTRA>
-3.8136

>  <SCORE.INTRA.DIHEDRAL>
-12.5436

>  <SCORE.INTRA.DIHEDRAL.0>
29.7866

>  <SCORE.INTRA.POLAR>
-0.59596

>  <SCORE.INTRA.POLAR.0>
-0.984091

>  <SCORE.INTRA.REPUL>
0.0272824

>  <SCORE.INTRA.REPUL.0>
0.274115

>  <SCORE.INTRA.SOLV>
1.27082

>  <SCORE.INTRA.SOLV.lig_0>
-152.978

>  <SCORE.INTRA.VDW>
3.71265

>  <SCORE.INTRA.VDW.0>
-6.10719

>  <SCORE.INTRA.norm>
-0.0908001

>  <SCORE.RESTR>
0

>  <SCORE.RESTR.CAVITY>
0

>  <SCORE.RESTR.norm>
0

>  <SCORE.SYSTEM>
0

>  <SCORE.SYSTEM.CONST>
0

>  <SCORE.SYSTEM.DIHEDRAL>
0

>  <SCORE.SYSTEM.SOLV>
0

>  <SCORE.SYSTEM.norm>
0

>  <SCORE.heavy>
42

>  <SCORE.norm>
-0.789953

>  <RMSD>
5.532

$$$$
1pbr
 OpenBabel11021811403D
libRbt.so/2013.1/901 2013/11/27
 42 45  0  0  0  0  0  0  0  0999 V2000
    5.5387   -2.7390   44.2270 C   0  0  2  0  0  0  0  0  0  0  0  0
    4.8902   -2.2112   45.4119 O   0  0  0  0  0  0  0  0  0  0  0  0
    6.1647   -4.1544   44.5154 C   0  0  2  0  0  0  0  0  0  0  0  0
    5.3135   -5.0474   45.3439 N   0  3  0  0  0  0  0  0  0  0  0  0
    7.5127   -4.0390   45.2516 C   0  0  1  0  0  0  0  0  0  0  0  0
    8.1882   -5.2946   45.2703 O   0  0  0  0  0  0  0  0  0  0  0  0
    8.4136   -2.9843   44.5914 C   0  0  2  0  0  0  0  0  0  0  0  0
    9.6705   -2.9228   45.2581 O   0  0  0  0  0  0  0  0  0  0  0  0
    7.7036   -1.6133   44.5393 C   0  0  2  0  0  0  0  0  0  0  0  0
    6.5192   -1.7854   43.7325 O   0  0  0  0  0  0  0  0  0  0  0  0
    8.5394   -0.4975   43.9145 C   0  0  0  0  0  0  0  0  0  0  0  0
    9.6733   -0.1929   44.7158 O   0  0  0  0  0  0  0  0  0  0  0  0
    1.2585   -0.0336   45.9377 C   0  0  1  0  0  0  0  0  0  0  0  0
    0.1622    0.9523   45.9304 N   0  3  0  0  0  0  0  0  0  0  0  0
    1.4961   -0.6627   44.5315 C   0  0  2  0  0  0  0  0  0  0  0  0
    0.3135   -1.3121   44.0706 O   0  0  0  0  0  0  0  0  0  0  0  0
    2.6486   -1.7086   44.5676 C   0  0  1  0  0  0  0  0  0  0  0  0
    2.9357   -2.1330   43.2021 O   0  0  0  0  0  0  0  0  0  0  0  0
    3.9483   -1.1291   45.2158 C   0  0  1  0  0  0  0  0  0  0  0  0
    3.6866   -0.4532   46.5997 C   0  0  1  0  0  0  0  0  0  0  0  0
    4.9137    0.1720   47.1410 N   0  3  0  0  0  0  0  0  0  0  0  0
    2.5653    0.6117   46.4847 C   0  0  0  0  0  0  0  0  0  0  0  0
    1.8508   -2.6007   42.3383 C   0  0  1  0  0  0  0  0  0  0  0  0
    1.3858   -1.4296   41.4527 C   0  0  2  0  0  0  0  0  0  0  0  0
    0.0341   -1.6065   41.0381 O   0  0  0  0  0  0  0  0  0  0  0  0
    2.3773   -1.5973   40.2913 C   0  0  1  0  0  0  0  0  0  0  0  0
    2.3821   -3.1027   40.0829 C   0  0  2  0  0  0  0  0  0  0  0  0
    2.3382   -3.5905   41.4151 O   0  0  0  0  0  0  0  0  0  0  0  0
    3.6119   -3.6572   39.3523 C   0  0  0  0  0  0  0  0  0  0  0  0
    4.7859   -3.3968   40.1074 O   0  0  0  0  0  0  0  0  0  0  0  0
    4.8089    0.8311   36.2458 C   0  0  1  0  0  0  0  0  0  0  0  0
    4.1548    0.3250   35.0836 O   0  0  0  0  0  0  0  0  0  0  0  0
    3.8585    1.8138   36.9853 C   0  0  2  0  0  0  0  0  0  0  0  0
    4.6288    2.5835   37.9055 O   0  0  0  0  0  0  0  0  0  0  0  0
    2.6730    1.1464   37.7565 C   0  0  1  0  0  0  0  0  0  0  0  0
    1.5349    0.9060   36.8422 N   0  3  0  0  0  0  0  0  0  0  0  0
    3.1206   -0.1350   38.5077 C   0  0  1  0  0  0  0  0  0  0  0  0
    2.0268   -0.9083   39.0596 O   0  0  0  0  0  0  0  0  0  0  0  0
    5.1987   -0.3321   37.1923 C   0  0  1  0  0  0  0  0  0  0  0  0
    3.9698   -0.9639   37.6445 O   0  0  0  0  0  0  0  0  0  0  0  0
    6.1462   -1.3645   36.5532 C   0  0  0  0  0  0  0  0  0  0  0  0
    5.6337   -1.8937   35.2742 N   0  3  0  0  0  0  0  0  0  0  0  0
  1  2  1  1  0  0  0
  1  3  1  0  0  0  0
  1 10  1  0  0  0  0
  3  4  1  1  0  0  0
  3  5  1  0  0  0  0
  5  6  1  6  0  0  0
  5  7  1  0  0  0  0
  7  8  1  1  0  0  0
  7  9  1  0  0  0  0
  9 10  1  0  0  0  0
  9 11  1  6  0  0  0
 11 12  1  0  0  0  0
 13 14  1  6  0  0  0
 13 15  1  0  0  0  0
 13 22  1  0  0  0  0
 15 16  1  1  0  0  0
 15 17  1  0  0  0  0
 17 18  1  6  0  0  0
 17 19  1  0  0  0  0
 19  2  1  1  0  0  0
 19 20  1  0  0  0  0
 20 21  1  6  0  0  0
 20 22  1  0  0  0  0
 23 18  1  1  0  0  0
 23 24  1  0  0  0  0
 23 28  1  0  0  0  0
 24 25  1  6  0  0  0
 24 26  1  0  0  0  0
 26 27  1  0  0  0  0
 26 38  1  6  0  0  0
 27 28  1  0  0  0  0
 27 29  1  1  0  0  0
 29 30  1  0  0  0  0
 31 32  1  6  0  0  0
 31 33  1  0  0  0  0
 31 39  1  0  0  0  0
 33 34  1  1  0  0  0
 33 35  1  0  0  0  0
 35 36  1  6  0  0  0
 35 37  1  0  0  0  0
 37 38  1  6  0  0  0
 37 40  1  0  0  0  0
 39 40  1  0  0  0  0
 39 41  1  6  0  0  0
 41 42  1  0  0  0  0
M  CHG  5   4   1  14   1  21   1  36   1  42   1
M  END
>  <CHROM.1>
-162.40276364,73.03723534,52.79122244,-171.12379019,-55.45277982,-66.10606514
-67.51151115,77.98437146,62.63827048,-51.81173990,96.83755035,85.47703912
66.59773959,131.26926989,62.06418494,176.16597749,68.27145914,-41.89043008
-58.60620215,-147.83582051,-53.33829502,48.15130534,4.26615143,-1.38950781
41.92926326,-1.31104796,0.28480712,-1.41703298

>  <Name>
1pbr

>  <RI>
0

>  <Rbt.Current_Directory>
/home/itssahil/PROJECTS/Mol_Feturizer/New_Systems/rnas/1pbr

>  <Rbt.Executable>
rbdock ($Id: //depot/dev/client3/rdock/2013.1/src/exe/rbdock.cxx#4 $)

>  <Rbt.Library>
libRbt.so (2013.1, Build901 2013/11/27)

>  <Rbt.Parameter_File>
/export/apps/rDock/src/rDock_2013.1_src/data/scripts/dock_solv.prm

>  <Rbt.Receptor>
prm/pocket_docking_8.prm

>  <SCORE>
-33.8489

>  <SCORE.INTER>
-32.9476

>  <SCORE.INTER.CONST>
1

>  <SCORE.INTER.POLAR>
-5.3922

>  <SCORE.INTER.ROT>
9

>  <SCORE.INTER.SOLV>
28.8505

>  <SCORE.INTER.VDW>
-23.2079

>  <SCORE.INTER.norm>
-0.784466

>  <SCORE.INTRA>
-0.901342

>  <SCORE.INTRA.DIHEDRAL>
-5.53478

>  <SCORE.INTRA.DIHEDRAL.0>
29.7866

>  <SCORE.INTRA.POLAR>
0.175716

>  <SCORE.INTRA.POLAR.0>
-0.984091

>  <SCORE.INTRA.REPUL>
-0.104232

>  <SCORE.INTRA.REPUL.0>
0.274115

>  <SCORE.INTRA.SOLV>
-0.0170385

>  <SCORE.INTRA.SOLV.lig_0>
-152.978

>  <SCORE.INTRA.VDW>
1.79829

>  <SCORE.INTRA.VDW.0>
-6.10719

>  <SCORE.INTRA.norm>
-0.0214605

>  <SCORE.RESTR>
0

>  <SCORE.RESTR.CAVITY>
0

>  <SCORE.RESTR.norm>
0

>  <SCORE.SYSTEM>
0

>  <SCORE.SYSTEM.CONST>
0

>  <SCORE.SYSTEM.DIHEDRAL>
0

>  <SCORE.SYSTEM.SOLV>
0

>  <SCORE.SYSTEM.norm>
0

>  <SCORE.heavy>
42

>  <SCORE.norm>
-0.805927

>  <RMSD>
5.565

$$$$
1pbr
 OpenBabel11021811403D
libRbt.so/2013.1/901 2013/11/27
 42 45  0  0  0  0  0  0  0  0999 V2000
    4.0158   -3.2448   39.8455 C   0  0  2  0  0  0  0  0  0  0  0  0
    2.9515   -4.0611   40.3969 O   0  0  0  0  0  0  0  0  0  0  0  0
    4.5052   -3.8219   38.4650 C   0  0  2  0  0  0  0  0  0  0  0  0
    3.4151   -4.3021   37.5765 N   0  3  0  0  0  0  0  0  0  0  0  0
    5.4624   -5.0136   38.6556 C   0  0  1  0  0  0  0  0  0  0  0  0
    6.0990   -5.3531   37.4257 O   0  0  0  0  0  0  0  0  0  0  0  0
    6.5307   -4.6994   39.7138 C   0  0  2  0  0  0  0  0  0  0  0  0
    7.4316   -5.7946   39.8448 O   0  0  0  0  0  0  0  0  0  0  0  0
    5.8733   -4.3101   41.0565 C   0  0  2  0  0  0  0  0  0  0  0  0
    5.0952   -3.1192   40.8121 O   0  0  0  0  0  0  0  0  0  0  0  0
    6.8669   -4.0006   42.1749 C   0  0  0  0  0  0  0  0  0  0  0  0
    6.1988   -3.7701   43.4082 O   0  0  0  0  0  0  0  0  0  0  0  0
    0.6278   -3.6772   43.9551 C   0  0  1  0  0  0  0  0  0  0  0  0
    0.1252   -3.5845   45.3381 N   0  3  0  0  0  0  0  0  0  0  0  0
    1.5114   -2.4538   43.5648 C   0  0  2  0  0  0  0  0  0  0  0  0
    0.7689   -1.2433   43.6908 O   0  0  0  0  0  0  0  0  0  0  0  0
    2.0191   -2.5683   42.0976 C   0  0  1  0  0  0  0  0  0  0  0  0
    2.9707   -1.4916   41.8483 O   0  0  0  0  0  0  0  0  0  0  0  0
    2.7071   -3.9447   41.8193 C   0  0  1  0  0  0  0  0  0  0  0  0
    1.8336   -5.1607   42.2654 C   0  0  1  0  0  0  0  0  0  0  0  0
    2.5503   -6.4422   42.0819 N   0  3  0  0  0  0  0  0  0  0  0  0
    1.4039   -5.0107   43.7478 C   0  0  0  0  0  0  0  0  0  0  0  0
    2.6457   -0.1215   42.2472 C   0  0  1  0  0  0  0  0  0  0  0  0
    3.4991    0.8510   41.4118 C   0  0  2  0  0  0  0  0  0  0  0  0
    3.6829    2.0876   42.0953 O   0  0  0  0  0  0  0  0  0  0  0  0
    2.5778    0.9923   40.1908 C   0  0  1  0  0  0  0  0  0  0  0  0
    1.2060    1.1216   40.8319 C   0  0  2  0  0  0  0  0  0  0  0  0
    1.2849    0.1906   41.9005 O   0  0  0  0  0  0  0  0  0  0  0  0
    0.0223    0.7835   39.9164 C   0  0  0  0  0  0  0  0  0  0  0  0
   -1.2011    1.0958   40.5662 O   0  0  0  0  0  0  0  0  0  0  0  0
    4.1893    1.2441   35.3110 C   0  0  1  0  0  0  0  0  0  0  0  0
    2.9353    1.5201   34.6896 O   0  0  0  0  0  0  0  0  0  0  0  0
    4.7404    2.5446   35.9597 C   0  0  2  0  0  0  0  0  0  0  0  0
    6.1259    2.3595   36.2404 O   0  0  0  0  0  0  0  0  0  0  0  0
    4.0177    2.9975   37.2706 C   0  0  1  0  0  0  0  0  0  0  0  0
    2.8170    3.7985   36.9455 N   0  3  0  0  0  0  0  0  0  0  0  0
    3.7045    1.7971   38.2021 C   0  0  1  0  0  0  0  0  0  0  0  0
    2.8501    2.1281   39.3244 O   0  0  0  0  0  0  0  0  0  0  0  0
    4.0226    0.1487   36.3940 C   0  0  1  0  0  0  0  0  0  0  0  0
    3.1502    0.6801   37.4286 O   0  0  0  0  0  0  0  0  0  0  0  0
    3.4830   -1.1876   35.8507 C   0  0  0  0  0  0  0  0  0  0  0  0
    4.4553   -1.8864   34.9878 N   0  3  0  0  0  0  0  0  0  0  0  0
  1  2  1  1  0  0  0
  1  3  1  0  0  0  0
  1 10  1  0  0  0  0
  3  4  1  6  0  0  0
  3  5  1  0  0  0  0
  5  6  1  6  0  0  0
  5  7  1  0  0  0  0
  7  8  1  1  0  0  0
  7  9  1  0  0  0  0
  9 10  1  0  0  0  0
  9 11  1  1  0  0  0
 11 12  1  0  0  0  0
 13 14  1  1  0  0  0
 13 15  1  0  0  0  0
 13 22  1  0  0  0  0
 15 16  1  6  0  0  0
 15 17  1  0  0  0  0
 17 18  1  1  0  0  0
 17 19  1  0  0  0  0
 19  2  1  6  0  0  0
 19 20  1  0  0  0  0
 20 21  1  1  0  0  0
 20 22  1  0  0  0  0
 23 18  1  6  0  0  0
 23 24  1  0  0  0  0
 23 28  1  0  0  0  0
 24 25  1  1  0  0  0
 24 26  1  0  0  0  0
 26 27  1  0  0  0  0
 26 38  1  1  0  0  0
 27 28  1  0  0  0  0
 27 29  1  6  0  0  0
 29 30  1  0  0  0  0
 31 32  1  1  0  0  0
 31 33  1  0  0  0  0
 31 39  1  0  0  0  0
 33 34  1  1  0  0  0
 33 35  1  0  0  0  0
 35 36  1  6  0  0  0
 35 37  1  0  0  0  0
 37 38  1  1  0  0  0
 37 40  1  0  0  0  0
 39 40  1  0  0  0  0
 39 41  1  6  0  0  0
 41 42  1  0  0  0  0
M  CHG  5   4   1  14   1  21   1  36   1  42   1
M  END
>  <CHROM.1>
159.85911723,72.82823188,-169.95620407,66.02310314,174.70291465,-174.68036672
174.56742399,-46.60839204,85.46542966,-47.18502475,-157.92388536,55.61310304
-46.47781417,94.88992363,-172.88109921,178.74934025,-178.59805561,170.51270830
161.89389433,-179.52665445,69.08935342,80.95317104,3.35975003,-1.52136641
39.92803706,-1.67516197,0.86329624,-0.69318353

>  <Name>
1pbr

>  <RI>
0

>  <Rbt.Current_Directory>
/home/itssahil/PROJECTS/Mol_Feturizer/New_Systems/rnas/1pbr

>  <Rbt.Executable>
rbdock ($Id: //depot/dev/client3/rdock/2013.1/src/exe/rbdock.cxx#4 $)

>  <Rbt.Library>
libRbt.so (2013.1, Build901 2013/11/27)

>  <Rbt.Parameter_File>
/export/apps/rDock/src/rDock_2013.1_src/data/scripts/dock_solv.prm

>  <Rbt.Receptor>
prm/pocket_docking_5.prm

>  <SCORE>
-39.0295

>  <SCORE.INTER>
-38.7694

>  <SCORE.INTER.CONST>
1

>  <SCORE.INTER.POLAR>
-6.08408

>  <SCORE.INTER.ROT>
9

>  <SCORE.INTER.SOLV>
28.7682

>  <SCORE.INTER.VDW>
-24.7554

>  <SCORE.INTER.norm>
-0.923081

>  <SCORE.INTRA>
-0.260058

>  <SCORE.INTRA.DIHEDRAL>
-11.2494

>  <SCORE.INTRA.DIHEDRAL.0>
29.7866

>  <SCORE.INTRA.POLAR>
0.803231

>  <SCORE.INTRA.POLAR.0>
-0.984091

>  <SCORE.INTRA.REPUL>
0.0273421

>  <SCORE.INTRA.REPUL.0>
0.274115

>  <SCORE.INTRA.SOLV>
-1.5438

>  <SCORE.INTRA.SOLV.lig_0>
-152.978

>  <SCORE.INTRA.VDW>
3.26883

>  <SCORE.INTRA.VDW.0>
-6.10719

>  <SCORE.INTRA.norm>
-0.00619185

>  <SCORE.RESTR>
0

>  <SCORE.RESTR.CAVITY>
0

>  <SCORE.RESTR.norm>
0

>  <SCORE.SYSTEM>
0

>  <SCORE.SYSTEM.CONST>
0

>  <SCORE.SYSTEM.DIHEDRAL>
0

>  <SCORE.SYSTEM.SOLV>
0

>  <SCORE.SYSTEM.norm>
0

>  <SCORE.heavy>
42

>  <SCORE.norm>
-0.929273

>  <RMSD>
5.573

$$$$
1pbr
 OpenBabel11021811403D
libRbt.so/2013.1/901 2013/11/27
 42 45  0  0  0  0  0  0  0  0999 V2000
    4.2309   -2.4345   43.9855 C   0  0  2  0  0  0  0  0  0  0  0  0
    4.7073   -1.1437   44.4439 O   0  0  0  0  0  0  0  0  0  0  0  0
    4.4784   -3.5418   45.0768 C   0  0  2  0  0  0  0  0  0  0  0  0
    4.1945   -3.1086   46.4697 N   0  3  0  0  0  0  0  0  0  0  0  0
    5.9388   -4.0315   45.0669 C   0  0  1  0  0  0  0  0  0  0  0  0
    6.0847   -5.2042   45.8648 O   0  0  0  0  0  0  0  0  0  0  0  0
    6.4126   -4.3255   43.6356 C   0  0  2  0  0  0  0  0  0  0  0  0
    7.7488   -4.8181   43.6502 O   0  0  0  0  0  0  0  0  0  0  0  0
    6.2514   -3.0781   42.7386 C   0  0  2  0  0  0  0  0  0  0  0  0
    4.8432   -2.7633   42.7079 O   0  0  0  0  0  0  0  0  0  0  0  0
    6.7199   -3.2766   41.2981 C   0  0  0  0  0  0  0  0  0  0  0  0
    6.6150   -2.0714   40.5517 O   0  0  0  0  0  0  0  0  0  0  0  0
    0.9883    0.3555   45.9030 C   0  0  1  0  0  0  0  0  0  0  0  0
   -0.1577    1.1754   46.3371 N   0  3  0  0  0  0  0  0  0  0  0  0
    1.2064    0.4152   44.3607 C   0  0  2  0  0  0  0  0  0  0  0  0
    0.0433   -0.0433   43.6755 O   0  0  0  0  0  0  0  0  0  0  0  0
    2.4128   -0.4676   43.9259 C   0  0  1  0  0  0  0  0  0  0  0  0
    2.6711   -0.2385   42.5090 O   0  0  0  0  0  0  0  0  0  0  0  0
    3.7033   -0.1457   44.7481 C   0  0  1  0  0  0  0  0  0  0  0  0
    3.4578   -0.1551   46.2909 C   0  0  1  0  0  0  0  0  0  0  0  0
    4.6696    0.2497   47.0375 N   0  3  0  0  0  0  0  0  0  0  0  0
    2.2788    0.7809   46.6627 C   0  0  0  0  0  0  0  0  0  0  0  0
    3.0779    1.0886   42.0450 C   0  0  1  0  0  0  0  0  0  0  0  0
    3.9846    0.9231   40.8111 C   0  0  2  0  0  0  0  0  0  0  0  0
    4.8551    2.0413   40.6618 O   0  0  0  0  0  0  0  0  0  0  0  0
    2.9028    0.8783   39.7214 C   0  0  1  0  0  0  0  0  0  0  0  0
    1.9556    1.9836   40.1581 C   0  0  2  0  0  0  0  0  0  0  0  0
    1.9366    1.8231   41.5683 O   0  0  0  0  0  0  0  0  0  0  0  0
    0.5332    1.8871   39.5912 C   0  0  0  0  0  0  0  0  0  0  0  0
    0.5493    2.1252   38.1915 O   0  0  0  0  0  0  0  0  0  0  0  0
    5.9671   -1.5693   36.1787 C   0  0  1  0  0  0  0  0  0  0  0  0
    5.1539   -1.6165   35.0076 O   0  0  0  0  0  0  0  0  0  0  0  0
    6.4801   -0.1177   36.3917 C   0  0  2  0  0  0  0  0  0  0  0  0
    7.5653   -0.1513   37.3156 O   0  0  0  0  0  0  0  0  0  0  0  0
    5.4118    0.9015   36.9072 C   0  0  1  0  0  0  0  0  0  0  0  0
    4.6412    1.4569   35.7729 N   0  3  0  0  0  0  0  0  0  0  0  0
    4.5050    0.2832   38.0036 C   0  0  1  0  0  0  0  0  0  0  0  0
    3.3679    1.1062   38.3625 O   0  0  0  0  0  0  0  0  0  0  0  0
    5.1533   -2.0239   37.4163 C   0  0  1  0  0  0  0  0  0  0  0  0
    4.0779   -1.0656   37.6138 O   0  0  0  0  0  0  0  0  0  0  0  0
    4.6009   -3.4573   37.3066 C   0  0  0  0  0  0  0  0  0  0  0  0
    5.6666   -4.4778   37.2701 N   0  3  0  0  0  0  0  0  0  0  0  0
  1  2  1  1  0  0  0
  1  3  1  0  0  0  0
  1 10  1  0  0  0  0
  3  4  1  1  0  0  0
  3  5  1  0  0  0  0
  5  6  1  1  0  0  0
  5  7  1  0  0  0  0
  7  8  1  1  0  0  0
  7  9  1  0  0  0  0
  9 10  1  0  0  0  0
  9 11  1  6  0  0  0
 11 12  1  0  0  0  0
 13 14  1  6  0  0  0
 13 15  1  0  0  0  0
 13 22  1  0  0  0  0
 15 16  1  6  0  0  0
 15 17  1  0  0  0  0
 17 18  1  6  0  0  0
 17 19  1  0  0  0  0
 19  2  1  1  0  0  0
 19 20  1  0  0  0  0
 20 21  1  1  0  0  0
 20 22  1  0  0  0  0
 23 18  1  6  0  0  0
 23 24  1  0  0  0  0
 23 28  1  0  0  0  0
 24 25  1  6  0  0  0
 24 26  1  0  0  0  0
 26 27  1  0  0  0  0
 26 38  1  6  0  0  0
 27 28  1  0  0  0  0
 27 29  1  6  0  0  0
 29 30  1  0  0  0  0
 31 32  1  6  0  0  0
 31 33  1  0  0  0  0
 31 39  1  0  0  0  0
 33 34  1  1  0  0  0
 33 35  1  0  0  0  0
 35 36  1  6  0  0  0
 35 37  1  0  0  0  0
 37 38  1  6  0  0  0
 37 40  1  0  0  0  0
 39 40  1  0  0  0  0
 39 41  1  6  0  0  0
 41 42  1  0  0  0  0
M  CHG  5   4   1  14   1  21   1  36   1  42   1
M  END
>  <CHROM.1>
-110.17337882,-25.12066688,-171.46146768,177.79667304,178.36582214,-176.64694407
-174.68989767,57.57394801,-61.05736102,63.21720821,149.32570948,-46.22003938
61.14376258,50.16676383,-68.27269826,-61.22773781,178.37378543,-167.54737739
147.89354866,-153.21215341,65.30883049,-152.52765952,4.10658245,-0.86199416
41.48425011,-1.81594229,0.80411399,-1.29565475

>  <Name>
1pbr

>  <RI>
0

>  <Rbt.Current_Directory>
/home/itssahil/PROJECTS/Mol_Feturizer/New_Systems/rnas/1pbr

>  <Rbt.Executable>
rbdock ($Id: //depot/dev/client3/rdock/2013.1/src/exe/rbdock.cxx#4 $)

>  <Rbt.Library>
libRbt.so (2013.1, Build901 2013/11/27)

>  <Rbt.Parameter_File>
/export/apps/rDock/src/rDock_2013.1_src/data/scripts/dock_solv.prm

>  <Rbt.Receptor>
prm/pocket_docking_7.prm

>  <SCORE>
-42.8919

>  <SCORE.INTER>
-45.1484

>  <SCORE.INTER.CONST>
1

>  <SCORE.INTER.POLAR>
-6.04706

>  <SCORE.INTER.ROT>
9

>  <SCORE.INTER.SOLV>
30.3701

>  <SCORE.INTER.VDW>
-29.6654

>  <SCORE.INTER.norm>
-1.07496

>  <SCORE.INTRA>
2.25648

>  <SCORE.INTRA.DIHEDRAL>
-4.94184

>  <SCORE.INTRA.DIHEDRAL.0>
29.7866

>  <SCORE.INTRA.POLAR>
0.785102

>  <SCORE.INTRA.POLAR.0>
-0.984091

>  <SCORE.INTRA.REPUL>
-0.274115

>  <SCORE.INTRA.REPUL.0>
0.274115

>  <SCORE.INTRA.SOLV>
0.847555

>  <SCORE.INTRA.SOLV.lig_0>
-152.978

>  <SCORE.INTRA.VDW>
3.00485

>  <SCORE.INTRA.VDW.0>
-6.10719

>  <SCORE.INTRA.norm>
0.0537257

>  <SCORE.RESTR>
0

>  <SCORE.RESTR.CAVITY>
0

>  <SCORE.RESTR.norm>
0

>  <SCORE.SYSTEM>
0

>  <SCORE.SYSTEM.CONST>
0

>  <SCORE.SYSTEM.DIHEDRAL>
0

>  <SCORE.SYSTEM.SOLV>
0

>  <SCORE.SYSTEM.norm>
0

>  <SCORE.heavy>
42

>  <SCORE.norm>
-1.02124

>  <RMSD>
5.589

$$$$
1pbr
 OpenBabel11021811403D
libRbt.so/2013.1/901 2013/11/27
 42 45  0  0  0  0  0  0  0  0999 V2000
    3.8406   -2.4574   44.1260 C   0  0  2  0  0  0  0  0  0  0  0  0
    4.3049   -1.1347   44.4976 O   0  0  0  0  0  0  0  0  0  0  0  0
    4.3359   -3.5353   45.1609 C   0  0  2  0  0  0  0  0  0  0  0  0
    4.2620   -3.1053   46.5814 N   0  3  0  0  0  0  0  0  0  0  0  0
    5.8019   -3.9339   44.9068 C   0  0  1  0  0  0  0  0  0  0  0  0
    6.1524   -5.0866   45.6694 O   0  0  0  0  0  0  0  0  0  0  0  0
    6.0474   -4.2136   43.4164 C   0  0  2  0  0  0  0  0  0  0  0  0
    7.3955   -4.6225   43.2073 O   0  0  0  0  0  0  0  0  0  0  0  0
    5.6607   -2.9884   42.5586 C   0  0  2  0  0  0  0  0  0  0  0  0
    4.2502   -2.7616   42.7640 O   0  0  0  0  0  0  0  0  0  0  0  0
    5.8934   -3.1732   41.0601 C   0  0  0  0  0  0  0  0  0  0  0  0
    7.2520   -3.4878   40.7847 O   0  0  0  0  0  0  0  0  0  0  0  0
    0.8031    0.1461   46.5723 C   0  0  1  0  0  0  0  0  0  0  0  0
   -0.3019    0.8976   47.1953 N   0  3  0  0  0  0  0  0  0  0  0  0
    0.7483    0.1977   45.0154 C   0  0  2  0  0  0  0  0  0  0  0  0
   -0.4832   -0.3432   44.5426 O   0  0  0  0  0  0  0  0  0  0  0  0
    1.9165   -0.6128   44.3815 C   0  0  1  0  0  0  0  0  0  0  0  0
    1.9117   -0.3878   42.9405 O   0  0  0  0  0  0  0  0  0  0  0  0
    3.3057   -0.1982   44.9676 C   0  0  1  0  0  0  0  0  0  0  0  0
    3.3304   -0.2014   46.5297 C   0  0  1  0  0  0  0  0  0  0  0  0
    4.6237    0.2899   47.0547 N   0  3  0  0  0  0  0  0  0  0  0  0
    2.1747    0.6631   47.0966 C   0  0  0  0  0  0  0  0  0  0  0  0
    1.9019    0.9776   42.4137 C   0  0  1  0  0  0  0  0  0  0  0  0
    3.0090    1.1039   41.3504 C   0  0  2  0  0  0  0  0  0  0  0  0
    3.4444    2.4546   41.2225 O   0  0  0  0  0  0  0  0  0  0  0  0
    2.2186    0.6285   40.1219 C   0  0  1  0  0  0  0  0  0  0  0  0
    0.8837    1.3321   40.3022 C   0  0  2  0  0  0  0  0  0  0  0  0
    0.6771    1.2303   41.7027 O   0  0  0  0  0  0  0  0  0  0  0  0
   -0.2929    0.7056   39.5427 C   0  0  0  0  0  0  0  0  0  0  0  0
   -1.3278    0.3559   40.4500 O   0  0  0  0  0  0  0  0  0  0  0  0
    5.2560   -1.7450   36.5145 C   0  0  1  0  0  0  0  0  0  0  0  0
    4.5139   -1.5933   35.3058 O   0  0  0  0  0  0  0  0  0  0  0  0
    5.8942   -0.3819   36.9020 C   0  0  2  0  0  0  0  0  0  0  0  0
    6.9136   -0.6173   37.8705 O   0  0  0  0  0  0  0  0  0  0  0  0
    4.9011    0.6864   37.4665 C   0  0  1  0  0  0  0  0  0  0  0  0
    4.2577    1.4266   36.3588 N   0  3  0  0  0  0  0  0  0  0  0  0
    3.8743    0.0601   38.4464 C   0  0  1  0  0  0  0  0  0  0  0  0
    2.8032    0.9565   38.8314 O   0  0  0  0  0  0  0  0  0  0  0  0
    4.3291   -2.2326   37.6564 C   0  0  1  0  0  0  0  0  0  0  0  0
    3.3422   -1.1928   37.8982 O   0  0  0  0  0  0  0  0  0  0  0  0
    3.6474   -3.5840   37.3713 C   0  0  0  0  0  0  0  0  0  0  0  0
    2.8449   -4.0692   38.5111 N   0  3  0  0  0  0  0  0  0  0  0  0
  1  2  1  1  0  0  0
  1  3  1  0  0  0  0
  1 10  1  0  0  0  0
  3  4  1  1  0  0  0
  3  5  1  0  0  0  0
  5  6  1  1  0  0  0
  5  7  1  0  0  0  0
  7  8  1  1  0  0  0
  7  9  1  0  0  0  0
  9 10  1  0  0  0  0
  9 11  1  6  0  0  0
 11 12  1  0  0  0  0
 13 14  1  1  0  0  0
 13 15  1  0  0  0  0
 13 22  1  0  0  0  0
 15 16  1  6  0  0  0
 15 17  1  0  0  0  0
 17 18  1  6  0  0  0
 17 19  1  0  0  0  0
 19  2  1  6  0  0  0
 19 20  1  0  0  0  0
 20 21  1  6  0  0  0
 20 22  1  0  0  0  0
 23 18  1  6  0  0  0
 23 24  1  0  0  0  0
 23 28  1  0  0  0  0
 24 25  1  6  0  0  0
 24 26  1  0  0  0  0
 26 27  1  0  0  0  0
 26 38  1  6  0  0  0
 27 28  1  0  0  0  0
 27 29  1  6  0  0  0
 29 30  1  0  0  0  0
 31 32  1  6  0  0  0
 31 33  1  0  0  0  0
 31 39  1  0  0  0  0
 33 34  1  1  0  0  0
 33 35  1  0  0  0  0
 35 36  1  6  0  0  0
 35 37  1  0  0  0  0
 37 38  1  6  0  0  0
 37 40  1  0  0  0  0
 39 40  1  0  0  0  0
 39 41  1  6  0  0  0
 41 42  1  0  0  0  0
M  CHG  5   4   1  14   1  21   1  36   1  42   1
M  END
>  <CHROM.1>
-110.06046337,-24.82940233,-179.11390453,-179.03210170,-162.92149453,-57.55654984
-174.00492541,61.24372522,-174.95604419,52.13728638,130.44987351,63.95987612
39.78622498,79.79814606,122.42992608,159.93662131,53.27624222,-168.70058038
172.29889725,-154.42742818,176.04534837,177.48701681,3.49034366,-1.04586770
41.82839015,-1.80989912,0.70811679,-1.39953567

>  <Name>
1pbr

>  <RI>
0

>  <Rbt.Current_Directory>
/home/itssahil/PROJECTS/Mol_Feturizer/New_Systems/rnas/1pbr

>  <Rbt.Executable>
rbdock ($Id: //depot/dev/client3/rdock/2013.1/src/exe/rbdock.cxx#4 $)

>  <Rbt.Library>
libRbt.so (2013.1, Build901 2013/11/27)

>  <Rbt.Parameter_File>
/export/apps/rDock/src/rDock_2013.1_src/data/scripts/dock_solv.prm

>  <Rbt.Receptor>
prm/pocket_docking_5.prm

>  <SCORE>
-41.9278

>  <SCORE.INTER>
-46.6802

>  <SCORE.INTER.CONST>
1

>  <SCORE.INTER.POLAR>
-7.21479

>  <SCORE.INTER.ROT>
9

>  <SCORE.INTER.SOLV>
28.0607

>  <SCORE.INTER.VDW>
-26.0244

>  <SCORE.INTER.norm>
-1.11143

>  <SCORE.INTRA>
4.75237

>  <SCORE.INTRA.DIHEDRAL>
5.07033

>  <SCORE.INTRA.DIHEDRAL.0>
29.7866

>  <SCORE.INTRA.POLAR>
0.00405829

>  <SCORE.INTRA.POLAR.0>
-0.984091

>  <SCORE.INTRA.REPUL>
-0.274115

>  <SCORE.INTRA.REPUL.0>
0.274115

>  <SCORE.INTRA.SOLV>
0.279143

>  <SCORE.INTRA.SOLV.lig_0>
-152.978

>  <SCORE.INTRA.VDW>
3.43441

>  <SCORE.INTRA.VDW.0>
-6.10719

>  <SCORE.INTRA.norm>
0.113152

>  <SCORE.RESTR>
0

>  <SCORE.RESTR.CAVITY>
0

>  <SCORE.RESTR.norm>
0

>  <SCORE.SYSTEM>
0

>  <SCORE.SYSTEM.CONST>
0

>  <SCORE.SYSTEM.DIHEDRAL>
0

>  <SCORE.SYSTEM.SOLV>
0

>  <SCORE.SYSTEM.norm>
0

>  <SCORE.heavy>
42

>  <SCORE.norm>
-0.998281

>  <RMSD>
5.591

$$$$
1pbr
 OpenBabel11021811403D
libRbt.so/2013.1/901 2013/11/27
 42 45  0  0  0  0  0  0  0  0999 V2000
    2.4378   -6.2252   40.5478 C   0  0  2  0  0  0  0  0  0  0  0  0
    1.6360   -6.2623   41.7556 O   0  0  0  0  0  0  0  0  0  0  0  0
    2.3593   -7.5983   39.7819 C   0  0  2  0  0  0  0  0  0  0  0  0
    1.0035   -8.2053   39.7426 N   0  3  0  0  0  0  0  0  0  0  0  0
    3.2861   -8.6540   40.4137 C   0  0  1  0  0  0  0  0  0  0  0  0
    3.4067   -9.7940   39.5657 O   0  0  0  0  0  0  0  0  0  0  0  0
    4.6808   -8.0712   40.6870 C   0  0  2  0  0  0  0  0  0  0  0  0
    5.5357   -9.0725   41.2299 O   0  0  0  0  0  0  0  0  0  0  0  0
    4.5845   -6.8219   41.5906 C   0  0  2  0  0  0  0  0  0  0  0  0
    3.8036   -5.8440   40.8715 O   0  0  0  0  0  0  0  0  0  0  0  0
    5.9324   -6.1884   41.9309 C   0  0  0  0  0  0  0  0  0  0  0  0
    6.5324   -5.6054   40.7816 O   0  0  0  0  0  0  0  0  0  0  0  0
    0.2320   -3.0718   44.2168 C   0  0  1  0  0  0  0  0  0  0  0  0
    0.0760   -1.9361   45.1440 N   0  3  0  0  0  0  0  0  0  0  0  0
    0.9721   -2.6667   42.9061 C   0  0  2  0  0  0  0  0  0  0  0  0
    0.2591   -1.6329   42.2313 O   0  0  0  0  0  0  0  0  0  0  0  0
    1.1131   -3.8784   41.9390 C   0  0  1  0  0  0  0  0  0  0  0  0
    1.9560   -3.4830   40.8164 O   0  0  0  0  0  0  0  0  0  0  0  0
    1.7396   -5.1248   42.6455 C   0  0  1  0  0  0  0  0  0  0  0  0
    1.0226   -5.4867   43.9855 C   0  0  1  0  0  0  0  0  0  0  0  0
    1.6979   -6.6056   44.6794 N   0  3  0  0  0  0  0  0  0  0  0  0
    0.9602   -4.2529   44.9227 C   0  0  0  0  0  0  0  0  0  0  0  0
    3.3472   -3.0923   41.0485 C   0  0  1  0  0  0  0  0  0  0  0  0
    4.0066   -2.7863   39.6907 C   0  0  2  0  0  0  0  0  0  0  0  0
    5.4183   -2.9691   39.7544 O   0  0  0  0  0  0  0  0  0  0  0  0
    3.6168   -1.3060   39.5617 C   0  0  1  0  0  0  0  0  0  0  0  0
    3.8667   -0.7806   40.9656 C   0  0  2  0  0  0  0  0  0  0  0  0
    3.4036   -1.8514   41.7740 O   0  0  0  0  0  0  0  0  0  0  0  0
    3.1249    0.5147   41.3202 C   0  0  0  0  0  0  0  0  0  0  0  0
    3.4997    0.9512   42.6184 O   0  0  0  0  0  0  0  0  0  0  0  0
    3.0975    1.9285   35.2709 C   0  0  1  0  0  0  0  0  0  0  0  0
    4.4058    2.1131   34.7332 O   0  0  0  0  0  0  0  0  0  0  0  0
    2.7207    0.4221   35.2039 C   0  0  2  0  0  0  0  0  0  0  0  0
    1.3118    0.2986   35.3842 O   0  0  0  0  0  0  0  0  0  0  0  0
    3.4432   -0.4961   36.2435 C   0  0  1  0  0  0  0  0  0  0  0  0
    4.7648   -0.9161   35.7278 N   0  3  0  0  0  0  0  0  0  0  0  0
    3.5285    0.1701   37.6420 C   0  0  1  0  0  0  0  0  0  0  0  0
    4.3712   -0.5391   38.5832 O   0  0  0  0  0  0  0  0  0  0  0  0
    3.0472    2.4159   36.7408 C   0  0  1  0  0  0  0  0  0  0  0  0
    3.9420    1.5724   37.5164 O   0  0  0  0  0  0  0  0  0  0  0  0
    3.4025    3.9042   36.9162 C   0  0  0  0  0  0  0  0  0  0  0  0
    2.5557    4.7929   36.0966 N   0  3  0  0  0  0  0  0  0  0  0  0
  1  2  1  1  0  0  0
  1  3  1  0  0  0  0
  1 10  1  0  0  0  0
  3  4  1  1  0  0  0
  3  5  1  0  0  0  0
  5  6  1  6  0  0  0
  5  7  1  0  0  0  0
  7  8  1  1  0  0  0
  7  9  1  0  0  0  0
  9 10  1  0  0  0  0
  9 11  1  6  0  0  0
 11 12  1  0  0  0  0
 13 14  1  1  0  0  0
 13 15  1  0  0  0  0
 13 22  1  0  0  0  0
 15 16  1  6  0  0  0
 15 17  1  0  0  0  0
 17 18  1  6  0  0  0
 17 19  1  0  0  0  0
 19  2  1  6  0  0  0
 19 20  1  0  0  0  0
 20 21  1  1  0  0  0
 20 22  1  0  0  0  0
 23 18  1  6  0  0  0
 23 24  1  0  0  0  0
 23 28  1  0  0  0  0
 24 25  1  1  0  0  0
 24 26  1  0  0  0  0
 26 27  1  0  0  0  0
 26 38  1  6  0  0  0
 27 28  1  0  0  0  0
 27 29  1  1  0  0  0
 29 30  1  0  0  0  0
 31 32  1  1  0  0  0
 31 33  1  0  0  0  0
 31 39  1  0  0  0  0
 33 34  1  1  0  0  0
 33 35  1  0  0  0  0
 35 36  1  6  0  0  0
 35 37  1  0  0  0  0
 37 38  1  1  0  0  0
 37 40  1  0  0  0  0
 39 40  1  0  0  0  0
 39 41  1  6  0  0  0
 41 42  1  0  0  0  0
M  CHG  5   4   1  14   1  21   1  36   1  42   1
M  END
>  <CHROM.1>
172.80176767,67.76256443,50.48679241,-67.68650210,59.47507481,68.14569946
-56.24147551,92.84646169,60.39093424,62.43424317,177.62587575,60.84358227
60.90399906,127.41327821,-176.35694157,-178.97433493,-69.88282084,177.52666908
147.15018942,-103.16618628,55.73828868,36.95357332,3.01742672,-2.90326705
40.10901441,-1.67592054,1.09226831,-0.45555453

>  <Name>
1pbr

>  <RI>
0

>  <Rbt.Current_Directory>
/home/itssahil/PROJECTS/Mol_Feturizer/New_Systems/rnas/1pbr

>  <Rbt.Executable>
rbdock ($Id: //depot/dev/client3/rdock/2013.1/src/exe/rbdock.cxx#4 $)

>  <Rbt.Library>
libRbt.so (2013.1, Build901 2013/11/27)

>  <Rbt.Parameter_File>
/export/apps/rDock/src/rDock_2013.1_src/data/scripts/dock_solv.prm

>  <Rbt.Receptor>
prm/pocket_docking_6.prm

>  <SCORE>
-37.8166

>  <SCORE.INTER>
-31.0257

>  <SCORE.INTER.CONST>
1

>  <SCORE.INTER.POLAR>
-5.5469

>  <SCORE.INTER.ROT>
9

>  <SCORE.INTER.SOLV>
18.8937

>  <SCORE.INTER.VDW>
-18.092

>  <SCORE.INTER.norm>
-0.738707

>  <SCORE.INTRA>
-6.7909

>  <SCORE.INTRA.DIHEDRAL>
-8.91967

>  <SCORE.INTRA.DIHEDRAL.0>
29.7866

>  <SCORE.INTRA.POLAR>
-0.133054

>  <SCORE.INTRA.POLAR.0>
-0.984091

>  <SCORE.INTRA.REPUL>
-0.274115

>  <SCORE.INTRA.REPUL.0>
0.274115

>  <SCORE.INTRA.SOLV>
-2.4945

>  <SCORE.INTRA.SOLV.lig_0>
-152.978

>  <SCORE.INTRA.VDW>
0.739143

>  <SCORE.INTRA.VDW.0>
-6.10719

>  <SCORE.INTRA.norm>
-0.161688

>  <SCORE.RESTR>
0

>  <SCORE.RESTR.CAVITY>
0

>  <SCORE.RESTR.norm>
0

>  <SCORE.SYSTEM>
0

>  <SCORE.SYSTEM.CONST>
0

>  <SCORE.SYSTEM.DIHEDRAL>
0

>  <SCORE.SYSTEM.SOLV>
0

>  <SCORE.SYSTEM.norm>
0

>  <SCORE.heavy>
42

>  <SCORE.norm>
-0.900395

>  <RMSD>
5.605

$$$$
1pbr
 OpenBabel11021811403D
libRbt.so/2013.1/901 2013/11/27
 42 45  0  0  0  0  0  0  0  0999 V2000
    1.6764   -4.1118   41.6620 C   0  0  2  0  0  0  0  0  0  0  0  0
    2.3346   -4.5575   42.8750 O   0  0  0  0  0  0  0  0  0  0  0  0
    0.3282   -4.8931   41.4379 C   0  0  2  0  0  0  0  0  0  0  0  0
   -0.4736   -5.1049   42.6710 N   0  3  0  0  0  0  0  0  0  0  0  0
    0.5753   -6.2905   40.8389 C   0  0  1  0  0  0  0  0  0  0  0  0
   -0.6481   -6.8759   40.3985 O   0  0  0  0  0  0  0  0  0  0  0  0
    1.5604   -6.2203   39.6624 C   0  0  2  0  0  0  0  0  0  0  0  0
    1.7426   -7.5135   39.0943 O   0  0  0  0  0  0  0  0  0  0  0  0
    2.8928   -5.5740   40.1020 C   0  0  2  0  0  0  0  0  0  0  0  0
    2.5850   -4.2312   40.5327 O   0  0  0  0  0  0  0  0  0  0  0  0
    3.9414   -5.4832   38.9946 C   0  0  0  0  0  0  0  0  0  0  0  0
    3.3438   -5.5899   37.7093 O   0  0  0  0  0  0  0  0  0  0  0  0
    5.0100   -2.1903   45.2086 C   0  0  1  0  0  0  0  0  0  0  0  0
    6.1631   -1.4753   45.7859 N   0  3  0  0  0  0  0  0  0  0  0  0
    4.5795   -1.6013   43.8311 C   0  0  2  0  0  0  0  0  0  0  0  0
    4.2313   -0.2253   43.9651 O   0  0  0  0  0  0  0  0  0  0  0  0
    3.3537   -2.3639   43.2486 C   0  0  1  0  0  0  0  0  0  0  0  0
    3.1068   -1.8835   41.8938 O   0  0  0  0  0  0  0  0  0  0  0  0
    3.5836   -3.9103   43.2178 C   0  0  1  0  0  0  0  0  0  0  0  0
    4.0674   -4.4791   44.5900 C   0  0  1  0  0  0  0  0  0  0  0  0
    4.3716   -5.9246   44.5033 N   0  3  0  0  0  0  0  0  0  0  0  0
    5.3187   -3.7114   45.0895 C   0  0  0  0  0  0  0  0  0  0  0  0
    4.1097   -2.0944   40.8491 C   0  0  1  0  0  0  0  0  0  0  0  0
    3.6572   -1.3569   39.5749 C   0  0  2  0  0  0  0  0  0  0  0  0
    4.2199   -1.9545   38.4103 O   0  0  0  0  0  0  0  0  0  0  0  0
    4.2604    0.0249   39.8692 C   0  0  1  0  0  0  0  0  0  0  0  0
    5.6329   -0.3297   40.4171 C   0  0  2  0  0  0  0  0  0  0  0  0
    5.3524   -1.4693   41.2154 O   0  0  0  0  0  0  0  0  0  0  0  0
    6.3010    0.7623   41.2626 C   0  0  0  0  0  0  0  0  0  0  0  0
    5.3546    1.3385   42.1506 O   0  0  0  0  0  0  0  0  0  0  0  0
    1.1167    2.4361   36.3298 C   0  0  1  0  0  0  0  0  0  0  0  0
    1.6372    1.9673   35.0871 O   0  0  0  0  0  0  0  0  0  0  0  0
    0.8013    1.2219   37.2473 C   0  0  2  0  0  0  0  0  0  0  0  0
   -0.0461    1.6616   38.3061 O   0  0  0  0  0  0  0  0  0  0  0  0
    2.0478    0.5070   37.8646 C   0  0  1  0  0  0  0  0  0  0  0  0
    2.5910   -0.4902   36.9161 N   0  3  0  0  0  0  0  0  0  0  0  0
    3.1172    1.5227   38.3456 C   0  0  1  0  0  0  0  0  0  0  0  0
    4.3770    0.9174   38.7271 O   0  0  0  0  0  0  0  0  0  0  0  0
    2.1428    3.3655   37.0256 C   0  0  1  0  0  0  0  0  0  0  0  0
    3.3189    2.5696   37.3372 O   0  0  0  0  0  0  0  0  0  0  0  0
    2.5214    4.6069   36.1964 C   0  0  0  0  0  0  0  0  0  0  0  0
    1.5406    5.7019   36.3291 N   0  3  0  0  0  0  0  0  0  0  0  0
  1  2  1  1  0  0  0
  1  3  1  0  0  0  0
  1 10  1  0  0  0  0
  3  4  1  1  0  0  0
  3  5  1  0  0  0  0
  5  6  1  6  0  0  0
  5  7  1  0  0  0  0
  7  8  1  1  0  0  0
  7  9  1  0  0  0  0
  9 10  1  0  0  0  0
  9 11  1  6  0  0  0
 11 12  1  0  0  0  0
 13 14  1  6  0  0  0
 13 15  1  0  0  0  0
 13 22  1  0  0  0  0
 15 16  1  1  0  0  0
 15 17  1  0  0  0  0
 17 18  1  6  0  0  0
 17 19  1  0  0  0  0
 19  2  1  1  0  0  0
 19 20  1  0  0  0  0
 20 21  1  6  0  0  0
 20 22  1  0  0  0  0
 23 18  1  1  0  0  0
 23 24  1  0  0  0  0
 23 28  1  0  0  0  0
 24 25  1  6  0  0  0
 24 26  1  0  0  0  0
 26 27  1  0  0  0  0
 26 38  1  6  0  0  0
 27 28  1  0  0  0  0
 27 29  1  1  0  0  0
 29 30  1  0  0  0  0
 31 32  1  6  0  0  0
 31 33  1  0  0  0  0
 31 39  1  0  0  0  0
 33 34  1  1  0  0  0
 33 35  1  0  0  0  0
 35 36  1  6  0  0  0
 35 37  1  0  0  0  0
 37 38  1  6  0  0  0
 37 40  1  0  0  0  0
 39 40  1  0  0  0  0
 39 41  1  6  0  0  0
 41 42  1  0  0  0  0
M  CHG  5   4   1  14   1  21   1  36   1  42   1
M  END
>  <CHROM.1>
-179.23450572,53.82065320,-52.25128282,-179.59056709,175.79868861,19.68931798
-175.82180557,-80.54612167,-57.08510506,63.87114699,-173.86444556,-55.94043368
57.52351210,76.99614372,43.40750747,158.54158380,165.57145037,68.39032747
-64.54327263,-63.55473794,82.44075133,5.68723760,3.02887175,-1.74403474,40.37411676
1.46015731,0.95564674,2.60531211

>  <Name>
1pbr

>  <RI>
0

>  <Rbt.Current_Directory>
/home/itssahil/PROJECTS/Mol_Feturizer/New_Systems/rnas/1pbr

>  <Rbt.Executable>
rbdock ($Id: //depot/dev/client3/rdock/2013.1/src/exe/rbdock.cxx#4 $)

>  <Rbt.Library>
libRbt.so (2013.1, Build901 2013/11/27)

>  <Rbt.Parameter_File>
/export/apps/rDock/src/rDock_2013.1_src/data/scripts/dock_solv.prm

>  <Rbt.Receptor>
prm/pocket_docking_6.prm

>  <SCORE>
-29.6484

>  <SCORE.INTER>
-25.1909

>  <SCORE.INTER.CONST>
1

>  <SCORE.INTER.POLAR>
-4.33113

>  <SCORE.INTER.ROT>
9

>  <SCORE.INTER.SOLV>
16.7565

>  <SCORE.INTER.VDW>
-17.5423

>  <SCORE.INTER.norm>
-0.599784

>  <SCORE.INTRA>
-4.45743

>  <SCORE.INTRA.DIHEDRAL>
-11.9545

>  <SCORE.INTRA.DIHEDRAL.0>
29.7866

>  <SCORE.INTRA.POLAR>
-0.367149

>  <SCORE.INTRA.POLAR.0>
-0.984091

>  <SCORE.INTRA.REPUL>
-0.274115

>  <SCORE.INTRA.REPUL.0>
0.274115

>  <SCORE.INTRA.SOLV>
1.20009

>  <SCORE.INTRA.SOLV.lig_0>
-152.978

>  <SCORE.INTRA.VDW>
3.53868

>  <SCORE.INTRA.VDW.0>
-6.10719

>  <SCORE.INTRA.norm>
-0.106129

>  <SCORE.RESTR>
0

>  <SCORE.RESTR.CAVITY>
0

>  <SCORE.RESTR.norm>
0

>  <SCORE.SYSTEM>
0

>  <SCORE.SYSTEM.CONST>
0

>  <SCORE.SYSTEM.DIHEDRAL>
0

>  <SCORE.SYSTEM.SOLV>
0

>  <SCORE.SYSTEM.norm>
0

>  <SCORE.heavy>
42

>  <SCORE.norm>
-0.705913

>  <RMSD>
5.655

$$$$
1pbr
 OpenBabel11021811403D
libRbt.so/2013.1/901 2013/11/27
 42 45  0  0  0  0  0  0  0  0999 V2000
    3.1415   -1.5643   44.0586 C   0  0  2  0  0  0  0  0  0  0  0  0
    3.6307   -1.0127   45.3074 O   0  0  0  0  0  0  0  0  0  0  0  0
    3.2270   -0.4973   42.9043 C   0  0  2  0  0  0  0  0  0  0  0  0
    4.4702    0.3167   42.9083 N   0  3  0  0  0  0  0  0  0  0  0  0
    2.0569    0.5025   42.9683 C   0  0  1  0  0  0  0  0  0  0  0  0
    1.9977    1.2890   41.7803 O   0  0  0  0  0  0  0  0  0  0  0  0
    0.7189   -0.2259   43.1656 C   0  0  2  0  0  0  0  0  0  0  0  0
   -0.3544    0.7101   43.1786 O   0  0  0  0  0  0  0  0  0  0  0  0
    0.7552   -1.1023   44.4372 C   0  0  2  0  0  0  0  0  0  0  0  0
    1.7951   -2.0836   44.2401 O   0  0  0  0  0  0  0  0  0  0  0  0
   -0.5470   -1.8488   44.7219 C   0  0  0  0  0  0  0  0  0  0  0  0
   -1.0215   -2.5180   43.5610 O   0  0  0  0  0  0  0  0  0  0  0  0
    5.3639   -2.7757   48.7853 C   0  0  1  0  0  0  0  0  0  0  0  0
    5.6693   -3.5554   49.9988 N   0  3  0  0  0  0  0  0  0  0  0  0
    5.2993   -3.6694   47.5099 C   0  0  2  0  0  0  0  0  0  0  0  0
    6.5408   -4.3410   47.3094 O   0  0  0  0  0  0  0  0  0  0  0  0
    4.9884   -2.8223   46.2412 C   0  0  1  0  0  0  0  0  0  0  0  0
    4.7729   -3.7273   45.1180 O   0  0  0  0  0  0  0  0  0  0  0  0
    3.7253   -1.9203   46.4316 C   0  0  1  0  0  0  0  0  0  0  0  0
    3.7784   -1.0707   47.7415 C   0  0  1  0  0  0  0  0  0  0  0  0
    2.5289   -0.3045   47.9445 N   0  3  0  0  0  0  0  0  0  0  0  0
    4.0400   -1.9781   48.9715 C   0  0  0  0  0  0  0  0  0  0  0  0
    5.8968   -4.4801   44.5594 C   0  0  1  0  0  0  0  0  0  0  0  0
    5.3824   -5.3380   43.3883 C   0  0  2  0  0  0  0  0  0  0  0  0
    6.2150   -6.4758   43.1828 O   0  0  0  0  0  0  0  0  0  0  0  0
    5.5162   -4.3071   42.2574 C   0  0  1  0  0  0  0  0  0  0  0  0
    6.8670   -3.6758   42.5512 C   0  0  2  0  0  0  0  0  0  0  0  0
    6.8540   -3.5840   43.9676 O   0  0  0  0  0  0  0  0  0  0  0  0
    7.0905   -2.2913   41.9292 C   0  0  0  0  0  0  0  0  0  0  0  0
    8.4050   -1.8357   42.2135 O   0  0  0  0  0  0  0  0  0  0  0  0
    4.9407   -2.5206   37.3038 C   0  0  1  0  0  0  0  0  0  0  0  0
    6.0114   -3.1344   36.5884 O   0  0  0  0  0  0  0  0  0  0  0  0
    3.8529   -3.5856   37.6171 C   0  0  2  0  0  0  0  0  0  0  0  0
    2.6514   -2.9120   37.9847 O   0  0  0  0  0  0  0  0  0  0  0  0
    4.2206   -4.6081   38.7418 C   0  0  1  0  0  0  0  0  0  0  0  0
    5.0029   -5.7313   38.1801 N   0  3  0  0  0  0  0  0  0  0  0  0
    4.9305   -3.9210   39.9379 C   0  0  1  0  0  0  0  0  0  0  0  0
    5.4826   -4.8457   40.9070 O   0  0  0  0  0  0  0  0  0  0  0  0
    5.4627   -1.9012   38.6246 C   0  0  1  0  0  0  0  0  0  0  0  0
    5.9549   -2.9868   39.4570 O   0  0  0  0  0  0  0  0  0  0  0  0
    6.5470   -0.8262   38.4228 C   0  0  0  0  0  0  0  0  0  0  0  0
    7.8296   -1.3903   37.9589 N   0  3  0  0  0  0  0  0  0  0  0  0
  1  2  1  1  0  0  0
  1  3  1  0  0  0  0
  1 10  1  0  0  0  0
  3  4  1  1  0  0  0
  3  5  1  0  0  0  0
  5  6  1  6  0  0  0
  5  7  1  0  0  0  0
  7  8  1  1  0  0  0
  7  9  1  0  0  0  0
  9 10  1  0  0  0  0
  9 11  1  6  0  0  0
 11 12  1  0  0  0  0
 13 14  1  1  0  0  0
 13 15  1  0  0  0  0
 13 22  1  0  0  0  0
 15 16  1  6  0  0  0
 15 17  1  0  0  0  0
 17 18  1  6  0  0  0
 17 19  1  0  0  0  0
 19  2  1  6  0  0  0
 19 20  1  0  0  0  0
 20 21  1  1  0  0  0
 20 22  1  0  0  0  0
 23 18  1  6  0  0  0
 23 24  1  0  0  0  0
 23 28  1  0  0  0  0
 24 25  1  6  0  0  0
 24 26  1  0  0  0  0
 26 27  1  0  0  0  0
 26 38  1  6  0  0  0
 27 28  1  0  0  0  0
 27 29  1  6  0  0  0
 29 30  1  0  0  0  0
 31 32  1  1  0  0  0
 31 33  1  0  0  0  0
 31 39  1  0  0  0  0
 33 34  1  1  0  0  0
 33 35  1  0  0  0  0
 35 36  1  6  0  0  0
 35 37  1  0  0  0  0
 37 38  1  1  0  0  0
 37 40  1  0  0  0  0
 39 40  1  0  0  0  0
 39 41  1  6  0  0  0
 41 42  1  0  0  0  0
M  CHG  5   4   1  14   1  21   1  36   1  42   1
M  END
>  <CHROM.1>
-174.54806706,76.56074818,-36.79203894,57.43614718,54.10687018,48.62100989
-172.38105077,51.03550702,-58.02020433,-69.91295691,-179.58200424,53.35303119
-173.33449861,149.93806314,-177.01343962,179.90073639,63.21078422,57.64367234
-45.98016468,-150.43386444,-70.30814292,-87.39819379,4.33732570,-2.48358146
42.94216829,1.81572370,-0.56881941,1.59150419

>  <Name>
1pbr

>  <RI>
0

>  <Rbt.Current_Directory>
/home/itssahil/PROJECTS/Mol_Feturizer/New_Systems/rnas/1pbr

>  <Rbt.Executable>
rbdock ($Id: //depot/dev/client3/rdock/2013.1/src/exe/rbdock.cxx#4 $)

>  <Rbt.Library>
libRbt.so (2013.1, Build901 2013/11/27)

>  <Rbt.Parameter_File>
/export/apps/rDock/src/rDock_2013.1_src/data/scripts/dock_solv.prm

>  <Rbt.Receptor>
prm/pocket_docking_6.prm

>  <SCORE>
-39.0716

>  <SCORE.INTER>
-30.0155

>  <SCORE.INTER.CONST>
1

>  <SCORE.INTER.POLAR>
-5.0618

>  <SCORE.INTER.ROT>
9

>  <SCORE.INTER.SOLV>
22.6004

>  <SCORE.INTER.VDW>
-20.2711

>  <SCORE.INTER.norm>
-0.714654

>  <SCORE.INTRA>
-9.05612

>  <SCORE.INTRA.DIHEDRAL>
-14.8743

>  <SCORE.INTRA.DIHEDRAL.0>
29.7866

>  <SCORE.INTRA.POLAR>
0.0757359

>  <SCORE.INTRA.POLAR.0>
-0.984091

>  <SCORE.INTRA.REPUL>
-0.274115

>  <SCORE.INTRA.REPUL.0>
0.274115

>  <SCORE.INTRA.SOLV>
-0.974648

>  <SCORE.INTRA.SOLV.lig_0>
-152.978

>  <SCORE.INTRA.VDW>
-0.018563

>  <SCORE.INTRA.VDW.0>
-6.10719

>  <SCORE.INTRA.norm>
-0.215622

>  <SCORE.RESTR>
0

>  <SCORE.RESTR.CAVITY>
0

>  <SCORE.RESTR.norm>
0

>  <SCORE.SYSTEM>
0

>  <SCORE.SYSTEM.CONST>
0

>  <SCORE.SYSTEM.DIHEDRAL>
0

>  <SCORE.SYSTEM.SOLV>
0

>  <SCORE.SYSTEM.norm>
0

>  <SCORE.heavy>
42

>  <SCORE.norm>
-0.930276

>  <RMSD>
5.658

$$$$
1pbr
 OpenBabel11021811403D
libRbt.so/2013.1/901 2013/11/27
 42 45  0  0  0  0  0  0  0  0999 V2000
    4.7137   -3.0776   44.4446 C   0  0  2  0  0  0  0  0  0  0  0  0
    4.5137   -2.3698   45.6946 O   0  0  0  0  0  0  0  0  0  0  0  0
    5.9274   -4.0742   44.5543 C   0  0  2  0  0  0  0  0  0  0  0  0
    5.9984   -4.8199   45.8378 N   0  3  0  0  0  0  0  0  0  0  0  0
    7.2757   -3.3448   44.4044 C   0  0  1  0  0  0  0  0  0  0  0  0
    8.3408   -4.2786   44.2407 O   0  0  0  0  0  0  0  0  0  0  0  0
    7.2522   -2.3821   43.2075 C   0  0  2  0  0  0  0  0  0  0  0  0
    8.5197   -1.7501   43.0585 O   0  0  0  0  0  0  0  0  0  0  0  0
    6.0968   -1.3660   43.3451 C   0  0  2  0  0  0  0  0  0  0  0  0
    4.8697   -2.1259   43.3560 O   0  0  0  0  0  0  0  0  0  0  0  0
    6.0124   -0.3539   42.2037 C   0  0  0  0  0  0  0  0  0  0  0  0
    5.8142   -1.0020   40.9542 O   0  0  0  0  0  0  0  0  0  0  0  0
    1.2921    0.1194   46.9723 C   0  0  1  0  0  0  0  0  0  0  0  0
    0.2962    1.1880   47.1727 N   0  3  0  0  0  0  0  0  0  0  0  0
    1.1104   -0.6084   45.6060 C   0  0  2  0  0  0  0  0  0  0  0  0
   -0.1899   -1.1867   45.5192 O   0  0  0  0  0  0  0  0  0  0  0  0
    2.1644   -1.7395   45.4234 C   0  0  1  0  0  0  0  0  0  0  0  0
    2.0538   -2.2651   44.0675 O   0  0  0  0  0  0  0  0  0  0  0  0
    3.6224   -1.2290   45.6656 C   0  0  1  0  0  0  0  0  0  0  0  0
    3.7780   -0.4540   47.0131 C   0  0  1  0  0  0  0  0  0  0  0  0
    5.1407    0.1014   47.1676 N   0  3  0  0  0  0  0  0  0  0  0  0
    2.7344    0.6888   47.1101 C   0  0  0  0  0  0  0  0  0  0  0  0
    0.7622   -2.2473   43.3794 C   0  0  1  0  0  0  0  0  0  0  0  0
    0.7107   -1.0135   42.4591 C   0  0  2  0  0  0  0  0  0  0  0  0
   -0.6343   -0.6071   42.2224 O   0  0  0  0  0  0  0  0  0  0  0  0
    1.3645   -1.6189   41.2077 C   0  0  1  0  0  0  0  0  0  0  0  0
    0.7079   -2.9871   41.1276 C   0  0  2  0  0  0  0  0  0  0  0  0
    0.6530   -3.3743   42.4920 O   0  0  0  0  0  0  0  0  0  0  0  0
    1.4742   -4.0326   40.3070 C   0  0  0  0  0  0  0  0  0  0  0  0
    0.6061   -5.0937   39.9371 O   0  0  0  0  0  0  0  0  0  0  0  0
    3.8635    1.6166   37.6981 C   0  0  1  0  0  0  0  0  0  0  0  0
    2.8370    2.3749   37.0610 O   0  0  0  0  0  0  0  0  0  0  0  0
    3.8102    1.8634   39.2317 C   0  0  2  0  0  0  0  0  0  0  0  0
    5.0367    1.4174   39.8057 O   0  0  0  0  0  0  0  0  0  0  0  0
    2.6238    1.1724   39.9806 C   0  0  1  0  0  0  0  0  0  0  0  0
    1.4110    2.0172   39.9128 N   0  3  0  0  0  0  0  0  0  0  0  0
    2.3792   -0.2713   39.4680 C   0  0  1  0  0  0  0  0  0  0  0  0
    1.1643   -0.8788   39.9720 O   0  0  0  0  0  0  0  0  0  0  0  0
    3.6770    0.1068   37.4040 C   0  0  1  0  0  0  0  0  0  0  0  0
    2.4179   -0.3071   38.0016 O   0  0  0  0  0  0  0  0  0  0  0  0
    3.7180   -0.2457   35.9053 C   0  0  0  0  0  0  0  0  0  0  0  0
    4.9910   -0.8746   35.5021 N   0  3  0  0  0  0  0  0  0  0  0  0
  1  2  1  1  0  0  0
  1  3  1  0  0  0  0
  1 10  1  0  0  0  0
  3  4  1  1  0  0  0
  3  5  1  0  0  0  0
  5  6  1  6  0  0  0
  5  7  1  0  0  0  0
  7  8  1  1  0  0  0
  7  9  1  0  0  0  0
  9 10  1  0  0  0  0
  9 11  1  6  0  0  0
 11 12  1  0  0  0  0
 13 14  1  6  0  0  0
 13 15  1  0  0  0  0
 13 22  1  0  0  0  0
 15 16  1  1  0  0  0
 15 17  1  0  0  0  0
 17 18  1  6  0  0  0
 17 19  1  0  0  0  0
 19  2  1  1  0  0  0
 19 20  1  0  0  0  0
 20 21  1  6  0  0  0
 20 22  1  0  0  0  0
 23 18  1  6  0  0  0
 23 24  1  0  0  0  0
 23 28  1  0  0  0  0
 24 25  1  6  0  0  0
 24 26  1  0  0  0  0
 26 27  1  0  0  0  0
 26 38  1  6  0  0  0
 27 28  1  0  0  0  0
 27 29  1  6  0  0  0
 29 30  1  0  0  0  0
 31 32  1  6  0  0  0
 31 33  1  0  0  0  0
 31 39  1  0  0  0  0
 33 34  1  1  0  0  0
 33 35  1  0  0  0  0
 35 36  1  6  0  0  0
 35 37  1  0  0  0  0
 37 38  1  6  0  0  0
 37 40  1  0  0  0  0
 39 40  1  0  0  0  0
 39 41  1  6  0  0  0
 41 42  1  0  0  0  0
M  CHG  5   4   1  14   1  21   1  36   1  42   1
M  END
>  <CHROM.1>
167.53031286,68.56929750,176.26078350,-68.12972778,-62.26189948,60.17226965
174.02507575,-171.78105126,69.36631308,-29.99961765,97.65902772,-145.10874554
-39.97250350,111.56694462,-161.19704405,179.36509069,78.59670250,59.68719914
137.45231248,-90.74202424,104.20595273,80.10975940,3.36524548,-1.17174813
42.35777780,-1.44536529,0.27405360,-1.35822048

>  <Name>
1pbr

>  <RI>
0

>  <Rbt.Current_Directory>
/home/itssahil/PROJECTS/Mol_Feturizer/New_Systems/rnas/1pbr

>  <Rbt.Executable>
rbdock ($Id: //depot/dev/client3/rdock/2013.1/src/exe/rbdock.cxx#4 $)

>  <Rbt.Library>
libRbt.so (2013.1, Build901 2013/11/27)

>  <Rbt.Parameter_File>
/export/apps/rDock/src/rDock_2013.1_src/data/scripts/dock_solv.prm

>  <Rbt.Receptor>
prm/pocket_docking_6.prm

>  <SCORE>
-32.9371

>  <SCORE.INTER>
-36.3156

>  <SCORE.INTER.CONST>
1

>  <SCORE.INTER.POLAR>
-5.78893

>  <SCORE.INTER.ROT>
9

>  <SCORE.INTER.SOLV>
28.9937

>  <SCORE.INTER.VDW>
-24.1786

>  <SCORE.INTER.norm>
-0.864658

>  <SCORE.INTRA>
3.3785

>  <SCORE.INTRA.DIHEDRAL>
7.17797

>  <SCORE.INTRA.DIHEDRAL.0>
29.7866

>  <SCORE.INTRA.POLAR>
-0.0654904

>  <SCORE.INTRA.POLAR.0>
-0.984091

>  <SCORE.INTRA.REPUL>
-0.274115

>  <SCORE.INTRA.REPUL.0>
0.274115

>  <SCORE.INTRA.SOLV>
-2.88292

>  <SCORE.INTRA.SOLV.lig_0>
-152.978

>  <SCORE.INTRA.VDW>
2.82422

>  <SCORE.INTRA.VDW.0>
-6.10719

>  <SCORE.INTRA.norm>
0.0804405

>  <SCORE.RESTR>
0

>  <SCORE.RESTR.CAVITY>
0

>  <SCORE.RESTR.norm>
0

>  <SCORE.SYSTEM>
0

>  <SCORE.SYSTEM.CONST>
0

>  <SCORE.SYSTEM.DIHEDRAL>
0

>  <SCORE.SYSTEM.SOLV>
0

>  <SCORE.SYSTEM.norm>
0

>  <SCORE.heavy>
42

>  <SCORE.norm>
-0.784217

>  <RMSD>
5.662

$$$$
1pbr
 OpenBabel11021811403D
libRbt.so/2013.1/901 2013/11/27
 42 45  0  0  0  0  0  0  0  0999 V2000
    3.8895   -3.9606   42.2414 C   0  0  2  0  0  0  0  0  0  0  0  0
    3.8162   -3.9455   43.6897 O   0  0  0  0  0  0  0  0  0  0  0  0
    2.8139   -4.9384   41.6371 C   0  0  2  0  0  0  0  0  0  0  0  0
    1.4865   -4.8817   42.3028 N   0  3  0  0  0  0  0  0  0  0  0  0
    3.2737   -6.4064   41.7165 C   0  0  1  0  0  0  0  0  0  0  0  0
    2.4239   -7.2457   40.9375 O   0  0  0  0  0  0  0  0  0  0  0  0
    4.7236   -6.5575   41.2322 C   0  0  2  0  0  0  0  0  0  0  0  0
    5.1162   -7.9259   41.2715 O   0  0  0  0  0  0  0  0  0  0  0  0
    5.6700   -5.6468   42.0455 C   0  0  2  0  0  0  0  0  0  0  0  0
    5.2418   -4.2874   41.8172 O   0  0  0  0  0  0  0  0  0  0  0  0
    7.1399   -5.7501   41.6423 C   0  0  0  0  0  0  0  0  0  0  0  0
    7.3405   -5.3036   40.3078 O   0  0  0  0  0  0  0  0  0  0  0  0
    3.8316   -0.5449   46.2672 C   0  0  1  0  0  0  0  0  0  0  0  0
    4.1683    0.6358   47.0836 N   0  3  0  0  0  0  0  0  0  0  0  0
    3.9568   -0.2616   44.7395 C   0  0  2  0  0  0  0  0  0  0  0  0
    3.0927    0.8066   44.3590 O   0  0  0  0  0  0  0  0  0  0  0  0
    3.5843   -1.5180   43.8992 C   0  0  1  0  0  0  0  0  0  0  0  0
    3.8826   -1.2466   42.4977 O   0  0  0  0  0  0  0  0  0  0  0  0
    4.3702   -2.7885   44.3612 C   0  0  1  0  0  0  0  0  0  0  0  0
    4.2814   -3.0297   45.9022 C   0  0  1  0  0  0  0  0  0  0  0  0
    5.1143   -4.1784   46.3223 N   0  3  0  0  0  0  0  0  0  0  0  0
    4.7131   -1.7597   46.6802 C   0  0  0  0  0  0  0  0  0  0  0  0
    4.8602   -0.2163   42.1444 C   0  0  1  0  0  0  0  0  0  0  0  0
    5.4897   -0.5787   40.7863 C   0  0  2  0  0  0  0  0  0  0  0  0
    6.7865   -0.0036   40.6533 O   0  0  0  0  0  0  0  0  0  0  0  0
    4.4608    0.0853   39.8588 C   0  0  1  0  0  0  0  0  0  0  0  0
    4.2092    1.4145   40.5514 C   0  0  2  0  0  0  0  0  0  0  0  0
    4.2010    1.0427   41.9212 O   0  0  0  0  0  0  0  0  0  0  0  0
    2.8915    2.1063   40.1788 C   0  0  0  0  0  0  0  0  0  0  0  0
    2.0412    2.1786   41.3136 O   0  0  0  0  0  0  0  0  0  0  0  0
    2.6532    1.4710   34.9814 C   0  0  1  0  0  0  0  0  0  0  0  0
    3.7984    1.8006   34.1975 O   0  0  0  0  0  0  0  0  0  0  0  0
    2.6774   -0.0465   35.3166 C   0  0  2  0  0  0  0  0  0  0  0  0
    1.3793   -0.4335   35.7614 O   0  0  0  0  0  0  0  0  0  0  0  0
    3.7272   -0.4782   36.3924 C   0  0  1  0  0  0  0  0  0  0  0  0
    5.0456   -0.7081   35.7614 N   0  3  0  0  0  0  0  0  0  0  0  0
    3.7933    0.5275   37.5717 C   0  0  1  0  0  0  0  0  0  0  0  0
    4.8926    0.2939   38.4860 O   0  0  0  0  0  0  0  0  0  0  0  0
    2.6438    2.2967   36.2924 C   0  0  1  0  0  0  0  0  0  0  0  0
    3.8095    1.9059   37.0685 O   0  0  0  0  0  0  0  0  0  0  0  0
    2.6160    3.8203   36.0690 C   0  0  0  0  0  0  0  0  0  0  0  0
    2.8020    4.5832   37.3187 N   0  3  0  0  0  0  0  0  0  0  0  0
  1  2  1  1  0  0  0
  1  3  1  0  0  0  0
  1 10  1  0  0  0  0
  3  4  1  1  0  0  0
  3  5  1  0  0  0  0
  5  6  1  6  0  0  0
  5  7  1  0  0  0  0
  7  8  1  1  0  0  0
  7  9  1  0  0  0  0
  9 10  1  0  0  0  0
  9 11  1  6  0  0  0
 11 12  1  0  0  0  0
 13 14  1  1  0  0  0
 13 15  1  0  0  0  0
 13 22  1  0  0  0  0
 15 16  1  6  0  0  0
 15 17  1  0  0  0  0
 17 18  1  6  0  0  0
 17 19  1  0  0  0  0
 19  2  1  6  0  0  0
 19 20  1  0  0  0  0
 20 21  1  1  0  0  0
 20 22  1  0  0  0  0
 23 18  1  6  0  0  0
 23 24  1  0  0  0  0
 23 28  1  0  0  0  0
 24 25  1  1  0  0  0
 24 26  1  0  0  0  0
 26 27  1  0  0  0  0
 26 38  1  6  0  0  0
 27 28  1  0  0  0  0
 27 29  1  6  0  0  0
 29 30  1  0  0  0  0
 31 32  1  6  0  0  0
 31 33  1  0  0  0  0
 31 39  1  0  0  0  0
 33 34  1  1  0  0  0
 33 35  1  0  0  0  0
 35 36  1  6  0  0  0
 35 37  1  0  0  0  0
 37 38  1  6  0  0  0
 37 40  1  0  0  0  0
 39 40  1  0  0  0  0
 39 41  1  6  0  0  0
 41 42  1  0  0  0  0
M  CHG  5   4   1  14   1  21   1  36   1  42   1
M  END
>  <CHROM.1>
-158.38820138,61.30068371,176.38904313,-168.10372920,169.76621736,64.09048166
-62.55002881,-151.84479893,-59.84863127,22.67723306,152.39737987,-168.88507227
-69.98206057,162.10086012,115.19103315,62.81898968,-177.22864896,-61.59869351
158.25103320,-122.55153584,-171.78748147,-179.28707851,4.01816929,-1.41478861
40.83297993,-0.55078184,1.42319007,-1.89861237

>  <Name>
1pbr

>  <RI>
0

>  <Rbt.Current_Directory>
/home/itssahil/PROJECTS/Mol_Feturizer/New_Systems/rnas/1pbr

>  <Rbt.Executable>
rbdock ($Id: //depot/dev/client3/rdock/2013.1/src/exe/rbdock.cxx#4 $)

>  <Rbt.Library>
libRbt.so (2013.1, Build901 2013/11/27)

>  <Rbt.Parameter_File>
/export/apps/rDock/src/rDock_2013.1_src/data/scripts/dock_solv.prm

>  <Rbt.Receptor>
prm/pocket_docking_5.prm

>  <SCORE>
-29.3111

>  <SCORE.INTER>
-32.666

>  <SCORE.INTER.CONST>
1

>  <SCORE.INTER.POLAR>
-5.61998

>  <SCORE.INTER.ROT>
9

>  <SCORE.INTER.SOLV>
25.7919

>  <SCORE.INTER.VDW>
-21.2414

>  <SCORE.INTER.norm>
-0.777762

>  <SCORE.INTRA>
3.34807

>  <SCORE.INTRA.DIHEDRAL>
-0.198685

>  <SCORE.INTRA.DIHEDRAL.0>
29.7866

>  <SCORE.INTRA.POLAR>
0.802775

>  <SCORE.INTRA.POLAR.0>
-0.984091

>  <SCORE.INTRA.REPUL>
-0.274115

>  <SCORE.INTRA.REPUL.0>
0.274115

>  <SCORE.INTRA.SOLV>
-4.10846

>  <SCORE.INTRA.SOLV.lig_0>
-152.978

>  <SCORE.INTRA.VDW>
4.14278

>  <SCORE.INTRA.VDW.0>
-6.10719

>  <SCORE.INTRA.norm>
0.079716

>  <SCORE.RESTR>
0.00684469

>  <SCORE.RESTR.CAVITY>
0.00684469

>  <SCORE.RESTR.norm>
0.000162969

>  <SCORE.SYSTEM>
0

>  <SCORE.SYSTEM.CONST>
0

>  <SCORE.SYSTEM.DIHEDRAL>
0

>  <SCORE.SYSTEM.SOLV>
0

>  <SCORE.SYSTEM.norm>
0

>  <SCORE.heavy>
42

>  <SCORE.norm>
-0.697883

>  <RMSD>
5.663

$$$$
1pbr
 OpenBabel11021811403D
libRbt.so/2013.1/901 2013/11/27
 42 45  0  0  0  0  0  0  0  0999 V2000
    0.9735   -3.0847   43.2728 C   0  0  2  0  0  0  0  0  0  0  0  0
    2.2489   -3.5788   43.7550 O   0  0  0  0  0  0  0  0  0  0  0  0
   -0.2181   -3.7724   44.0378 C   0  0  2  0  0  0  0  0  0  0  0  0
   -0.0005   -3.9348   45.4989 N   0  3  0  0  0  0  0  0  0  0  0  0
   -0.5088   -5.1809   43.4862 C   0  0  1  0  0  0  0  0  0  0  0  0
   -1.7420   -5.6806   43.9989 O   0  0  0  0  0  0  0  0  0  0  0  0
   -0.5601   -5.1724   41.9509 C   0  0  2  0  0  0  0  0  0  0  0  0
   -0.8728   -6.4727   41.4611 O   0  0  0  0  0  0  0  0  0  0  0  0
    0.7567   -4.6192   41.3623 C   0  0  2  0  0  0  0  0  0  0  0  0
    0.8870   -3.2605   41.8316 O   0  0  0  0  0  0  0  0  0  0  0  0
    0.7998   -4.5948   39.8354 C   0  0  0  0  0  0  0  0  0  0  0  0
    2.0360   -4.0757   39.3632 O   0  0  0  0  0  0  0  0  0  0  0  0
    3.5552   -0.4762   46.3771 C   0  0  1  0  0  0  0  0  0  0  0  0
    4.3040    0.5499   47.1257 N   0  3  0  0  0  0  0  0  0  0  0  0
    3.3503   -0.0846   44.8824 C   0  0  2  0  0  0  0  0  0  0  0  0
    2.6407    1.1480   44.7837 O   0  0  0  0  0  0  0  0  0  0  0  0
    2.5470   -1.1766   44.1170 C   0  0  1  0  0  0  0  0  0  0  0  0
    2.5355   -0.8382   42.6984 O   0  0  0  0  0  0  0  0  0  0  0  0
    3.1636   -2.6011   44.3064 C   0  0  1  0  0  0  0  0  0  0  0  0
    3.4145   -2.9590   45.8062 C   0  0  1  0  0  0  0  0  0  0  0  0
    4.0886   -4.2686   45.9480 N   0  3  0  0  0  0  0  0  0  0  0  0
    4.2611   -1.8586   46.4967 C   0  0  0  0  0  0  0  0  0  0  0  0
    2.5800    0.5638   42.2807 C   0  0  1  0  0  0  0  0  0  0  0  0
    3.4817    0.6796   41.0375 C   0  0  2  0  0  0  0  0  0  0  0  0
    4.0323    1.9889   40.9246 O   0  0  0  0  0  0  0  0  0  0  0  0
    2.4332    0.3937   39.9518 C   0  0  1  0  0  0  0  0  0  0  0  0
    1.2391    1.2016   40.4324 C   0  0  2  0  0  0  0  0  0  0  0  0
    1.2814    0.9944   41.8359 O   0  0  0  0  0  0  0  0  0  0  0  0
   -0.1179    0.7604   39.8689 C   0  0  0  0  0  0  0  0  0  0  0  0
   -1.0667    1.8078   40.0067 O   0  0  0  0  0  0  0  0  0  0  0  0
    5.5375   -1.4742   36.1223 C   0  0  1  0  0  0  0  0  0  0  0  0
    4.6524   -1.5754   35.0082 O   0  0  0  0  0  0  0  0  0  0  0  0
    5.8885    0.0199   36.3675 C   0  0  2  0  0  0  0  0  0  0  0  0
    7.0346    0.0836   37.2132 O   0  0  0  0  0  0  0  0  0  0  0  0
    4.7472    0.8809   37.0014 C   0  0  1  0  0  0  0  0  0  0  0  0
    3.8354    1.3811   35.9491 N   0  3  0  0  0  0  0  0  0  0  0  0
    4.0027    0.1154   38.1267 C   0  0  1  0  0  0  0  0  0  0  0  0
    2.8051    0.7794   38.6000 O   0  0  0  0  0  0  0  0  0  0  0  0
    4.8760   -2.0714   37.3898 C   0  0  1  0  0  0  0  0  0  0  0  0
    3.7117   -1.2595   37.7043 O   0  0  0  0  0  0  0  0  0  0  0  0
    4.4912   -3.5562   37.2510 C   0  0  0  0  0  0  0  0  0  0  0  0
    5.6603   -4.4556   37.3064 N   0  3  0  0  0  0  0  0  0  0  0  0
  1  2  1  1  0  0  0
  1  3  1  0  0  0  0
  1 10  1  0  0  0  0
  3  4  1  1  0  0  0
  3  5  1  0  0  0  0
  5  6  1  1  0  0  0
  5  7  1  0  0  0  0
  7  8  1  6  0  0  0
  7  9  1  0  0  0  0
  9 10  1  0  0  0  0
  9 11  1  6  0  0  0
 11 12  1  0  0  0  0
 13 14  1  6  0  0  0
 13 15  1  0  0  0  0
 13 22  1  0  0  0  0
 15 16  1  1  0  0  0
 15 17  1  0  0  0  0
 17 18  1  6  0  0  0
 17 19  1  0  0  0  0
 19  2  1  1  0  0  0
 19 20  1  0  0  0  0
 20 21  1  6  0  0  0
 20 22  1  0  0  0  0
 23 18  1  6  0  0  0
 23 24  1  0  0  0  0
 23 28  1  0  0  0  0
 24 25  1  6  0  0  0
 24 26  1  0  0  0  0
 26 27  1  0  0  0  0
 26 38  1  6  0  0  0
 27 28  1  0  0  0  0
 27 29  1  6  0  0  0
 29 30  1  0  0  0  0
 31 32  1  6  0  0  0
 31 33  1  0  0  0  0
 31 39  1  0  0  0  0
 33 34  1  1  0  0  0
 33 35  1  0  0  0  0
 35 36  1  6  0  0  0
 35 37  1  0  0  0  0
 37 38  1  6  0  0  0
 37 40  1  0  0  0  0
 39 40  1  0  0  0  0
 39 41  1  6  0  0  0
 41 42  1  0  0  0  0
M  CHG  5   4   1  14   1  21   1  36   1  42   1
M  END
>  <CHROM.1>
-120.84454201,-4.88671257,-65.77505983,53.02364865,64.59818860,179.99776850
-58.58794815,76.47484177,-62.51577885,-30.53675289,141.02520315,-55.15758518
-50.08906335,59.67106039,-160.62020049,-52.97649251,57.68936508,-166.56205427
63.48112701,-156.11595925,74.26001992,87.76323172,2.58265944,-1.63785476
41.24157402,2.34363460,1.04147762,1.20140793

>  <Name>
1pbr

>  <RI>
0

>  <Rbt.Current_Directory>
/home/itssahil/PROJECTS/Mol_Feturizer/New_Systems/rnas/1pbr

>  <Rbt.Executable>
rbdock ($Id: //depot/dev/client3/rdock/2013.1/src/exe/rbdock.cxx#4 $)

>  <Rbt.Library>
libRbt.so (2013.1, Build901 2013/11/27)

>  <Rbt.Parameter_File>
/export/apps/rDock/src/rDock_2013.1_src/data/scripts/dock_solv.prm

>  <Rbt.Receptor>
prm/pocket_docking_5.prm

>  <SCORE>
-35.845

>  <SCORE.INTER>
-43.8603

>  <SCORE.INTER.CONST>
1

>  <SCORE.INTER.POLAR>
-6.41434

>  <SCORE.INTER.ROT>
9

>  <SCORE.INTER.SOLV>
31.236

>  <SCORE.INTER.VDW>
-27.8711

>  <SCORE.INTER.norm>
-1.04429

>  <SCORE.INTRA>
8.01532

>  <SCORE.INTRA.DIHEDRAL>
2.60157

>  <SCORE.INTRA.DIHEDRAL.0>
29.7866

>  <SCORE.INTRA.POLAR>
0.962024

>  <SCORE.INTRA.POLAR.0>
-0.984091

>  <SCORE.INTRA.REPUL>
-0.274115

>  <SCORE.INTRA.REPUL.0>
0.274115

>  <SCORE.INTRA.SOLV>
-3.66327

>  <SCORE.INTRA.SOLV.lig_0>
-152.978

>  <SCORE.INTRA.VDW>
6.64586

>  <SCORE.INTRA.VDW.0>
-6.10719

>  <SCORE.INTRA.norm>
0.190841

>  <SCORE.RESTR>
0

>  <SCORE.RESTR.CAVITY>
0

>  <SCORE.RESTR.norm>
0

>  <SCORE.SYSTEM>
0

>  <SCORE.SYSTEM.CONST>
0

>  <SCORE.SYSTEM.DIHEDRAL>
0

>  <SCORE.SYSTEM.SOLV>
0

>  <SCORE.SYSTEM.norm>
0

>  <SCORE.heavy>
42

>  <SCORE.norm>
-0.853452

>  <RMSD>
5.666

$$$$
1pbr
 OpenBabel11021811403D
libRbt.so/2013.1/901 2013/11/27
 42 45  0  0  0  0  0  0  0  0999 V2000
    3.5194   -6.3881   41.4876 C   0  0  2  0  0  0  0  0  0  0  0  0
    4.0530   -5.3536   42.3527 O   0  0  0  0  0  0  0  0  0  0  0  0
    3.8003   -6.0523   39.9754 C   0  0  2  0  0  0  0  0  0  0  0  0
    5.1535   -5.4997   39.7079 N   0  3  0  0  0  0  0  0  0  0  0  0
    2.7970   -5.0198   39.4278 C   0  0  1  0  0  0  0  0  0  0  0  0
    2.8927   -4.9246   38.0083 O   0  0  0  0  0  0  0  0  0  0  0  0
    1.3577   -5.3876   39.8190 C   0  0  2  0  0  0  0  0  0  0  0  0
    0.4415   -4.4468   39.2678 O   0  0  0  0  0  0  0  0  0  0  0  0
    1.2232   -5.5159   41.3526 C   0  0  2  0  0  0  0  0  0  0  0  0
    2.1046   -6.5828   41.7626 O   0  0  0  0  0  0  0  0  0  0  0  0
   -0.1859   -5.8603   41.8320 C   0  0  0  0  0  0  0  0  0  0  0  0
   -1.0799   -4.7746   41.6259 O   0  0  0  0  0  0  0  0  0  0  0  0
    6.0848   -5.6864   46.0901 C   0  0  1  0  0  0  0  0  0  0  0  0
    7.0016   -5.9947   47.2030 N   0  3  0  0  0  0  0  0  0  0  0  0
    6.7463   -4.7697   45.0169 C   0  0  2  0  0  0  0  0  0  0  0  0
    7.1670   -3.5403   45.6036 O   0  0  0  0  0  0  0  0  0  0  0  0
    5.7556   -4.4482   43.8599 C   0  0  1  0  0  0  0  0  0  0  0  0
    6.4779   -3.7356   42.8123 O   0  0  0  0  0  0  0  0  0  0  0  0
    5.1125   -5.7413   43.2603 C   0  0  1  0  0  0  0  0  0  0  0  0
    4.5016   -6.6773   44.3519 C   0  0  1  0  0  0  0  0  0  0  0  0
    3.9906   -7.9361   43.7656 N   0  3  0  0  0  0  0  0  0  0  0  0
    5.5522   -6.9997   45.4459 C   0  0  0  0  0  0  0  0  0  0  0  0
    6.8022   -2.3186   42.9818 C   0  0  1  0  0  0  0  0  0  0  0  0
    7.6614   -1.8630   41.7875 C   0  0  2  0  0  0  0  0  0  0  0  0
    8.4717   -0.7443   42.1370 O   0  0  0  0  0  0  0  0  0  0  0  0
    6.5367   -1.4847   40.8119 C   0  0  1  0  0  0  0  0  0  0  0  0
    5.5589   -0.7485   41.7129 C   0  0  2  0  0  0  0  0  0  0  0  0
    5.6084   -1.5197   42.9035 O   0  0  0  0  0  0  0  0  0  0  0  0
    4.1194   -0.6695   41.1882 C   0  0  0  0  0  0  0  0  0  0  0  0
    3.3297    0.1353   42.0513 O   0  0  0  0  0  0  0  0  0  0  0  0
    4.6622    0.4018   36.1637 C   0  0  1  0  0  0  0  0  0  0  0  0
    5.3016    1.6614   35.9659 O   0  0  0  0  0  0  0  0  0  0  0  0
    5.7079   -0.7373   36.0065 C   0  0  2  0  0  0  0  0  0  0  0  0
    5.0130   -1.9701   35.8332 O   0  0  0  0  0  0  0  0  0  0  0  0
    6.7154   -0.8903   37.1928 C   0  0  1  0  0  0  0  0  0  0  0  0
    7.8578    0.0338   37.0198 N   0  3  0  0  0  0  0  0  0  0  0  0
    6.0168   -0.7302   38.5687 C   0  0  1  0  0  0  0  0  0  0  0  0
    6.9315   -0.6490   39.6893 O   0  0  0  0  0  0  0  0  0  0  0  0
    4.0267    0.3378   37.5754 C   0  0  1  0  0  0  0  0  0  0  0  0
    5.1039    0.4186   38.5485 O   0  0  0  0  0  0  0  0  0  0  0  0
    2.9690    1.4275   37.8324 C   0  0  0  0  0  0  0  0  0  0  0  0
    2.3355    1.3052   39.1599 N   0  3  0  0  0  0  0  0  0  0  0  0
  1  2  1  1  0  0  0
  1  3  1  0  0  0  0
  1 10  1  0  0  0  0
  3  4  1  1  0  0  0
  3  5  1  0  0  0  0
  5  6  1  6  0  0  0
  5  7  1  0  0  0  0
  7  8  1  1  0  0  0
  7  9  1  0  0  0  0
  9 10  1  0  0  0  0
  9 11  1  6  0  0  0
 11 12  1  0  0  0  0
 13 14  1  1  0  0  0
 13 15  1  0  0  0  0
 13 22  1  0  0  0  0
 15 16  1  1  0  0  0
 15 17  1  0  0  0  0
 17 18  1  6  0  0  0
 17 19  1  0  0  0  0
 19  2  1  6  0  0  0
 19 20  1  0  0  0  0
 20 21  1  6  0  0  0
 20 22  1  0  0  0  0
 23 18  1  6  0  0  0
 23 24  1  0  0  0  0
 23 28  1  0  0  0  0
 24 25  1  1  0  0  0
 24 26  1  0  0  0  0
 26 27  1  0  0  0  0
 26 38  1  6  0  0  0
 27 28  1  0  0  0  0
 27 29  1  6  0  0  0
 29 30  1  0  0  0  0
 31 32  1  1  0  0  0
 31 33  1  0  0  0  0
 31 39  1  0  0  0  0
 33 34  1  1  0  0  0
 33 35  1  0  0  0  0
 35 36  1  6  0  0  0
 35 37  1  0  0  0  0
 37 38  1  1  0  0  0
 37 40  1  0  0  0  0
 39 40  1  0  0  0  0
 39 41  1  1  0  0  0
 41 42  1  0  0  0  0
M  CHG  5   4   1  14   1  21   1  36   1  42   1
M  END
>  <CHROM.1>
-116.19719780,167.56934282,-38.62999140,61.48479471,66.18977275,-69.22720024
65.19720982,-62.29920740,169.79080864,-76.84375256,175.27779385,166.72242689
-127.36409711,158.17170833,-174.95436990,62.65982650,-62.51172876,-59.11975295
-150.87992914,-134.39123989,177.32906052,-175.97398448,4.63651251,-3.06375158
40.91590318,1.63728230,0.58893823,2.28239130

>  <Name>
1pbr

>  <RI>
0

>  <Rbt.Current_Directory>
/home/itssahil/PROJECTS/Mol_Feturizer/New_Systems/rnas/1pbr

>  <Rbt.Executable>
rbdock ($Id: //depot/dev/client3/rdock/2013.1/src/exe/rbdock.cxx#4 $)

>  <Rbt.Library>
libRbt.so (2013.1, Build901 2013/11/27)

>  <Rbt.Parameter_File>
/export/apps/rDock/src/rDock_2013.1_src/data/scripts/dock_solv.prm

>  <Rbt.Receptor>
prm/pocket_docking_7.prm

>  <SCORE>
-17.9255

>  <SCORE.INTER>
-17.3654

>  <SCORE.INTER.CONST>
1

>  <SCORE.INTER.POLAR>
-3.41488

>  <SCORE.INTER.ROT>
9

>  <SCORE.INTER.SOLV>
10.5492

>  <SCORE.INTER.VDW>
-13.3104

>  <SCORE.INTER.norm>
-0.413461

>  <SCORE.INTRA>
-0.560137

>  <SCORE.INTRA.DIHEDRAL>
-0.74457

>  <SCORE.INTRA.DIHEDRAL.0>
29.7866

>  <SCORE.INTRA.POLAR>
-0.890624

>  <SCORE.INTRA.POLAR.0>
-0.984091

>  <SCORE.INTRA.REPUL>
-0.274115

>  <SCORE.INTRA.REPUL.0>
0.274115

>  <SCORE.INTRA.SOLV>
1.49134

>  <SCORE.INTRA.SOLV.lig_0>
-152.978

>  <SCORE.INTRA.VDW>
3.46517

>  <SCORE.INTRA.VDW.0>
-6.10719

>  <SCORE.INTRA.norm>
-0.0133366

>  <SCORE.RESTR>
0

>  <SCORE.RESTR.CAVITY>
0

>  <SCORE.RESTR.norm>
0

>  <SCORE.SYSTEM>
0

>  <SCORE.SYSTEM.CONST>
0

>  <SCORE.SYSTEM.DIHEDRAL>
0

>  <SCORE.SYSTEM.SOLV>
0

>  <SCORE.SYSTEM.norm>
0

>  <SCORE.heavy>
42

>  <SCORE.norm>
-0.426797

>  <RMSD>
5.666

$$$$
1pbr
 OpenBabel11021811403D
libRbt.so/2013.1/901 2013/11/27
 42 45  0  0  0  0  0  0  0  0999 V2000
    3.4592   -3.7469   41.9529 C   0  0  2  0  0  0  0  0  0  0  0  0
    3.6315   -3.7185   43.3926 O   0  0  0  0  0  0  0  0  0  0  0  0
    2.6283   -5.0099   41.5139 C   0  0  2  0  0  0  0  0  0  0  0  0
    1.4749   -5.3257   42.3961 N   0  3  0  0  0  0  0  0  0  0  0  0
    3.5016   -6.2782   41.4755 C   0  0  1  0  0  0  0  0  0  0  0  0
    2.8133   -7.3472   40.8299 O   0  0  0  0  0  0  0  0  0  0  0  0
    4.8287   -6.0126   40.7489 C   0  0  2  0  0  0  0  0  0  0  0  0
    5.6030   -7.2061   40.6849 O   0  0  0  0  0  0  0  0  0  0  0  0
    5.5929   -4.8463   41.4139 C   0  0  2  0  0  0  0  0  0  0  0  0
    4.7556   -3.6764   41.2973 O   0  0  0  0  0  0  0  0  0  0  0  0
    6.9386   -4.5272   40.7648 C   0  0  0  0  0  0  0  0  0  0  0  0
    7.7675   -3.7750   41.6410 O   0  0  0  0  0  0  0  0  0  0  0  0
    3.8581   -0.5358   46.2257 C   0  0  1  0  0  0  0  0  0  0  0  0
    4.2033    0.6592   47.0175 N   0  3  0  0  0  0  0  0  0  0  0  0
    3.3202   -0.1703   44.8091 C   0  0  2  0  0  0  0  0  0  0  0  0
    2.1575    0.6480   44.9141 O   0  0  0  0  0  0  0  0  0  0  0  0
    2.9511   -1.4468   43.9980 C   0  0  1  0  0  0  0  0  0  0  0  0
    2.6192   -1.0522   42.6337 O   0  0  0  0  0  0  0  0  0  0  0  0
    4.1211   -2.4838   43.9690 C   0  0  1  0  0  0  0  0  0  0  0  0
    4.6871   -2.7997   45.3905 C   0  0  1  0  0  0  0  0  0  0  0  0
    5.8553   -3.7053   45.3224 N   0  3  0  0  0  0  0  0  0  0  0  0
    5.0822   -1.4922   46.1246 C   0  0  0  0  0  0  0  0  0  0  0  0
    3.5391   -0.2054   41.8731 C   0  0  1  0  0  0  0  0  0  0  0  0
    4.0990   -1.0212   40.6928 C   0  0  2  0  0  0  0  0  0  0  0  0
    5.3657   -0.5180   40.2777 O   0  0  0  0  0  0  0  0  0  0  0  0
    2.9953   -0.7416   39.6616 C   0  0  1  0  0  0  0  0  0  0  0  0
    2.7408    0.7444   39.8528 C   0  0  2  0  0  0  0  0  0  0  0  0
    2.8262    0.8848   41.2627 O   0  0  0  0  0  0  0  0  0  0  0  0
    1.3810    1.2447   39.3486 C   0  0  0  0  0  0  0  0  0  0  0  0
    1.2232    2.6217   39.6574 O   0  0  0  0  0  0  0  0  0  0  0  0
    3.3387    2.0396   35.2364 C   0  0  1  0  0  0  0  0  0  0  0  0
    4.7188    1.8968   34.9051 O   0  0  0  0  0  0  0  0  0  0  0  0
    2.5882    0.7216   34.8969 C   0  0  2  0  0  0  0  0  0  0  0  0
    1.1882    0.9899   34.8740 O   0  0  0  0  0  0  0  0  0  0  0  0
    2.8558   -0.4718   35.8716 C   0  0  1  0  0  0  0  0  0  0  0  0
    4.0827   -1.1963   35.4732 N   0  3  0  0  0  0  0  0  0  0  0  0
    2.8840   -0.0127   37.3532 C   0  0  1  0  0  0  0  0  0  0  0  0
    3.3379   -1.0312   38.2783 O   0  0  0  0  0  0  0  0  0  0  0  0
    3.1785    2.3599   36.7438 C   0  0  1  0  0  0  0  0  0  0  0  0
    3.6733    1.2165   37.4931 O   0  0  0  0  0  0  0  0  0  0  0  0
    3.8859    3.6553   37.1841 C   0  0  0  0  0  0  0  0  0  0  0  0
    5.3536    3.5777   37.0482 N   0  3  0  0  0  0  0  0  0  0  0  0
  1  2  1  1  0  0  0
  1  3  1  0  0  0  0
  1 10  1  0  0  0  0
  3  4  1  1  0  0  0
  3  5  1  0  0  0  0
  5  6  1  6  0  0  0
  5  7  1  0  0  0  0
  7  8  1  1  0  0  0
  7  9  1  0  0  0  0
  9 10  1  0  0  0  0
  9 11  1  6  0  0  0
 11 12  1  0  0  0  0
 13 14  1  6  0  0  0
 13 15  1  0  0  0  0
 13 22  1  0  0  0  0
 15 16  1  1  0  0  0
 15 17  1  0  0  0  0
 17 18  1  6  0  0  0
 17 19  1  0  0  0  0
 19  2  1  1  0  0  0
 19 20  1  0  0  0  0
 20 21  1  6  0  0  0
 20 22  1  0  0  0  0
 23 18  1  6  0  0  0
 23 24  1  0  0  0  0
 23 28  1  0  0  0  0
 24 25  1  6  0  0  0
 24 26  1  0  0  0  0
 26 27  1  0  0  0  0
 26 38  1  6  0  0  0
 27 28  1  0  0  0  0
 27 29  1  1  0  0  0
 29 30  1  0  0  0  0
 31 32  1  1  0  0  0
 31 33  1  0  0  0  0
 31 39  1  0  0  0  0
 33 34  1  1  0  0  0
 33 35  1  0  0  0  0
 35 36  1  6  0  0  0
 35 37  1  0  0  0  0
 37 38  1  1  0  0  0
 37 40  1  0  0  0  0
 39 40  1  0  0  0  0
 39 41  1  1  0  0  0
 41 42  1  0  0  0  0
M  CHG  5   4   1  14   1  21   1  36   1  42   1
M  END
>  <CHROM.1>
-167.18183688,76.16113071,-60.71671186,59.97168980,65.11505019,-161.20419997
-60.01314838,-49.17664724,70.42078645,51.37510193,113.77702134,70.32202453
-60.57935725,-137.53574656,176.26636727,-72.24947406,53.09031621,57.63950973
-93.66053390,-162.97563954,-64.77863282,30.58491549,3.75862178,-1.35151526
40.61348382,-0.84137932,1.38712129,-1.67956820

>  <Name>
1pbr

>  <RI>
0

>  <Rbt.Current_Directory>
/home/itssahil/PROJECTS/Mol_Feturizer/New_Systems/rnas/1pbr

>  <Rbt.Executable>
rbdock ($Id: //depot/dev/client3/rdock/2013.1/src/exe/rbdock.cxx#4 $)

>  <Rbt.Library>
libRbt.so (2013.1, Build901 2013/11/27)

>  <Rbt.Parameter_File>
/export/apps/rDock/src/rDock_2013.1_src/data/scripts/dock_solv.prm

>  <Rbt.Receptor>
prm/pocket_docking_5.prm

>  <SCORE>
-34.8029

>  <SCORE.INTER>
-36.8781

>  <SCORE.INTER.CONST>
1

>  <SCORE.INTER.POLAR>
-5.83419

>  <SCORE.INTER.ROT>
9

>  <SCORE.INTER.SOLV>
29.9222

>  <SCORE.INTER.VDW>
-24.7122

>  <SCORE.INTER.norm>
-0.87805

>  <SCORE.INTRA>
2.07223

>  <SCORE.INTRA.DIHEDRAL>
-5.32018

>  <SCORE.INTRA.DIHEDRAL.0>
29.7866

>  <SCORE.INTRA.POLAR>
-0.00843654

>  <SCORE.INTRA.POLAR.0>
-0.984091

>  <SCORE.INTRA.REPUL>
-0.274115

>  <SCORE.INTRA.REPUL.0>
0.274115

>  <SCORE.INTRA.SOLV>
-0.936425

>  <SCORE.INTRA.SOLV.lig_0>
-152.978

>  <SCORE.INTRA.VDW>
6.5998

>  <SCORE.INTRA.VDW.0>
-6.10719

>  <SCORE.INTRA.norm>
0.0493389

>  <SCORE.RESTR>
0.00298239

>  <SCORE.RESTR.CAVITY>
0.00298239

>  <SCORE.RESTR.norm>
7.10092e-05

>  <SCORE.SYSTEM>
0

>  <SCORE.SYSTEM.CONST>
0

>  <SCORE.SYSTEM.DIHEDRAL>
0

>  <SCORE.SYSTEM.SOLV>
0

>  <SCORE.SYSTEM.norm>
0

>  <SCORE.heavy>
42

>  <SCORE.norm>
-0.82864

>  <RMSD>
5.667

$$$$
1pbr
 OpenBabel11021811403D
libRbt.so/2013.1/901 2013/11/27
 42 45  0  0  0  0  0  0  0  0999 V2000
    3.1880   -2.1936   43.7774 C   0  0  2  0  0  0  0  0  0  0  0  0
    3.5619   -1.7739   45.1143 O   0  0  0  0  0  0  0  0  0  0  0  0
    2.8239   -0.9508   42.8824 C   0  0  2  0  0  0  0  0  0  0  0  0
    3.7226    0.2197   43.0582 N   0  3  0  0  0  0  0  0  0  0  0  0
    1.3970   -0.4453   43.1670 C   0  0  1  0  0  0  0  0  0  0  0  0
    0.9876    0.4976   42.1787 O   0  0  0  0  0  0  0  0  0  0  0  0
    0.3966   -1.6103   43.2067 C   0  0  2  0  0  0  0  0  0  0  0  0
   -0.9222   -1.1201   43.4273 O   0  0  0  0  0  0  0  0  0  0  0  0
    0.8209   -2.6605   44.2572 C   0  0  2  0  0  0  0  0  0  0  0  0
    2.1090   -3.1664   43.8472 O   0  0  0  0  0  0  0  0  0  0  0  0
   -0.1330   -3.8477   44.3781 C   0  0  0  0  0  0  0  0  0  0  0  0
   -1.3002   -3.4982   45.1104 O   0  0  0  0  0  0  0  0  0  0  0  0
    7.3972   -1.2604   46.9128 C   0  0  1  0  0  0  0  0  0  0  0  0
    8.7431   -1.4196   47.4936 N   0  3  0  0  0  0  0  0  0  0  0  0
    7.3788   -1.5409   45.3796 C   0  0  2  0  0  0  0  0  0  0  0  0
    8.2664   -0.6553   44.7011 O   0  0  0  0  0  0  0  0  0  0  0  0
    5.9510   -1.3542   44.7880 C   0  0  1  0  0  0  0  0  0  0  0  0
    5.9620   -1.7925   43.3970 O   0  0  0  0  0  0  0  0  0  0  0  0
    4.8753   -2.1667   45.5804 C   0  0  1  0  0  0  0  0  0  0  0  0
    4.9407   -1.9179   47.1214 C   0  0  1  0  0  0  0  0  0  0  0  0
    3.9797   -2.7734   47.8522 N   0  3  0  0  0  0  0  0  0  0  0  0
    6.3746   -2.1695   47.6554 C   0  0  0  0  0  0  0  0  0  0  0  0
    6.5396   -3.0900   43.0437 C   0  0  1  0  0  0  0  0  0  0  0  0
    6.1034   -3.4505   41.6113 C   0  0  2  0  0  0  0  0  0  0  0  0
    6.1145   -4.8613   41.4124 O   0  0  0  0  0  0  0  0  0  0  0  0
    7.2240   -2.7443   40.8332 C   0  0  1  0  0  0  0  0  0  0  0  0
    8.4571   -3.0949   41.6493 C   0  0  2  0  0  0  0  0  0  0  0  0
    7.9738   -2.9982   42.9804 O   0  0  0  0  0  0  0  0  0  0  0  0
    9.6595   -2.1632   41.4496 C   0  0  0  0  0  0  0  0  0  0  0  0
    9.3477   -0.8585   41.9152 O   0  0  0  0  0  0  0  0  0  0  0  0
    5.1050   -2.2500   35.8931 C   0  0  1  0  0  0  0  0  0  0  0  0
    5.8801   -3.0741   35.0244 O   0  0  0  0  0  0  0  0  0  0  0  0
    4.4083   -3.1388   36.9609 C   0  0  2  0  0  0  0  0  0  0  0  0
    3.3668   -2.3811   37.5723 O   0  0  0  0  0  0  0  0  0  0  0  0
    5.3454   -3.7002   38.0801 C   0  0  1  0  0  0  0  0  0  0  0  0
    5.9986   -4.9477   37.6263 N   0  3  0  0  0  0  0  0  0  0  0  0
    6.3609   -2.6352   38.5715 C   0  0  1  0  0  0  0  0  0  0  0  0
    7.3877   -3.1593   39.4491 O   0  0  0  0  0  0  0  0  0  0  0  0
    6.0107   -1.2049   36.5918 C   0  0  1  0  0  0  0  0  0  0  0  0
    6.9531   -1.9278   37.4303 O   0  0  0  0  0  0  0  0  0  0  0  0
    6.7471   -0.2675   35.6167 C   0  0  0  0  0  0  0  0  0  0  0  0
    6.7990    1.1274   36.0964 N   0  3  0  0  0  0  0  0  0  0  0  0
  1  2  1  1  0  0  0
  1  3  1  0  0  0  0
  1 10  1  0  0  0  0
  3  4  1  1  0  0  0
  3  5  1  0  0  0  0
  5  6  1  6  0  0  0
  5  7  1  0  0  0  0
  7  8  1  1  0  0  0
  7  9  1  0  0  0  0
  9 10  1  0  0  0  0
  9 11  1  6  0  0  0
 11 12  1  0  0  0  0
 13 14  1  1  0  0  0
 13 15  1  0  0  0  0
 13 22  1  0  0  0  0
 15 16  1  6  0  0  0
 15 17  1  0  0  0  0
 17 18  1  6  0  0  0
 17 19  1  0  0  0  0
 19  2  1  6  0  0  0
 19 20  1  0  0  0  0
 20 21  1  1  0  0  0
 20 22  1  0  0  0  0
 23 18  1  6  0  0  0
 23 24  1  0  0  0  0
 23 28  1  0  0  0  0
 24 25  1  1  0  0  0
 24 26  1  0  0  0  0
 26 27  1  0  0  0  0
 26 38  1  6  0  0  0
 27 28  1  0  0  0  0
 27 29  1  1  0  0  0
 29 30  1  0  0  0  0
 31 32  1  6  0  0  0
 31 33  1  0  0  0  0
 31 39  1  0  0  0  0
 33 34  1  1  0  0  0
 33 35  1  0  0  0  0
 35 36  1  6  0  0  0
 35 37  1  0  0  0  0
 37 38  1  6  0  0  0
 37 40  1  0  0  0  0
 39 40  1  0  0  0  0
 39 41  1  6  0  0  0
 41 42  1  0  0  0  0
M  CHG  5   4   1  14   1  21   1  36   1  42   1
M  END
>  <CHROM.1>
-122.36541404,70.35912753,45.39838378,178.10896253,149.70575827,-77.00330634
97.90012187,-62.18564922,168.02854826,49.21179061,165.71443531,179.74523624
-48.40290671,75.01345734,64.92046902,-65.47831396,-168.26134927,179.97983947
-24.93320431,-108.27904363,140.22388975,56.33103344,5.04523327,-2.09260233
42.00811489,1.88385390,0.01254450,1.54621713

>  <Name>
1pbr

>  <RI>
0

>  <Rbt.Current_Directory>
/home/itssahil/PROJECTS/Mol_Feturizer/New_Systems/rnas/1pbr

>  <Rbt.Executable>
rbdock ($Id: //depot/dev/client3/rdock/2013.1/src/exe/rbdock.cxx#4 $)

>  <Rbt.Library>
libRbt.so (2013.1, Build901 2013/11/27)

>  <Rbt.Parameter_File>
/export/apps/rDock/src/rDock_2013.1_src/data/scripts/dock_solv.prm

>  <Rbt.Receptor>
prm/pocket_docking_7.prm

>  <SCORE>
-38.8675

>  <SCORE.INTER>
-35.6724

>  <SCORE.INTER.CONST>
1

>  <SCORE.INTER.POLAR>
-5.80274

>  <SCORE.INTER.ROT>
9

>  <SCORE.INTER.SOLV>
23.2794

>  <SCORE.INTER.VDW>
-21.7989

>  <SCORE.INTER.norm>
-0.849342

>  <SCORE.INTRA>
-3.19508

>  <SCORE.INTRA.DIHEDRAL>
6.23571

>  <SCORE.INTRA.DIHEDRAL.0>
29.7866

>  <SCORE.INTRA.POLAR>
-1.46958

>  <SCORE.INTRA.POLAR.0>
-0.984091

>  <SCORE.INTRA.REPUL>
-0.274115

>  <SCORE.INTRA.REPUL.0>
0.274115

>  <SCORE.INTRA.SOLV>
-1.76306

>  <SCORE.INTRA.SOLV.lig_0>
-152.978

>  <SCORE.INTRA.VDW>
0.935732

>  <SCORE.INTRA.VDW.0>
-6.10719

>  <SCORE.INTRA.norm>
-0.0760734

>  <SCORE.RESTR>
0

>  <SCORE.RESTR.CAVITY>
0

>  <SCORE.RESTR.norm>
0

>  <SCORE.SYSTEM>
0

>  <SCORE.SYSTEM.CONST>
0

>  <SCORE.SYSTEM.DIHEDRAL>
0

>  <SCORE.SYSTEM.SOLV>
0

>  <SCORE.SYSTEM.norm>
0

>  <SCORE.heavy>
42

>  <SCORE.norm>
-0.925416

>  <RMSD>
5.671

$$$$
1pbr
 OpenBabel11021811403D
libRbt.so/2013.1/901 2013/11/27
 42 45  0  0  0  0  0  0  0  0999 V2000
    5.4151   -4.0933   40.8279 C   0  0  2  0  0  0  0  0  0  0  0  0
    5.4316   -2.6672   41.0911 O   0  0  0  0  0  0  0  0  0  0  0  0
    6.1042   -4.4156   39.4496 C   0  0  2  0  0  0  0  0  0  0  0  0
    7.3402   -3.6354   39.1813 N   0  3  0  0  0  0  0  0  0  0  0  0
    5.1577   -4.1444   38.2651 C   0  0  1  0  0  0  0  0  0  0  0  0
    5.6907   -4.6840   37.0576 O   0  0  0  0  0  0  0  0  0  0  0  0
    3.7667   -4.7437   38.5218 C   0  0  2  0  0  0  0  0  0  0  0  0
    2.9194   -4.5213   37.3989 O   0  0  0  0  0  0  0  0  0  0  0  0
    3.1669   -4.1921   39.8342 C   0  0  2  0  0  0  0  0  0  0  0  0
    4.0518   -4.5948   40.9010 O   0  0  0  0  0  0  0  0  0  0  0  0
    1.7707   -4.7217   40.1570 C   0  0  0  0  0  0  0  0  0  0  0  0
    0.7945   -4.1643   39.2871 O   0  0  0  0  0  0  0  0  0  0  0  0
    4.4774   -3.1324   45.2240 C   0  0  1  0  0  0  0  0  0  0  0  0
    4.2420   -2.9674   46.6702 N   0  3  0  0  0  0  0  0  0  0  0  0
    3.4684   -2.3125   44.3642 C   0  0  2  0  0  0  0  0  0  0  0  0
    2.1305   -2.7147   44.6484 O   0  0  0  0  0  0  0  0  0  0  0  0
    3.7290   -2.5129   42.8425 C   0  0  1  0  0  0  0  0  0  0  0  0
    2.8727   -1.5964   42.0984 O   0  0  0  0  0  0  0  0  0  0  0  0
    5.2233   -2.2523   42.4626 C   0  0  1  0  0  0  0  0  0  0  0  0
    6.2253   -3.0380   43.3677 C   0  0  1  0  0  0  0  0  0  0  0  0
    7.6294   -2.6953   43.0505 N   0  3  0  0  0  0  0  0  0  0  0  0
    5.9450   -2.7560   44.8665 C   0  0  0  0  0  0  0  0  0  0  0  0
    2.8191   -0.1817   42.4693 C   0  0  1  0  0  0  0  0  0  0  0  0
    3.8995    0.5774   41.6763 C   0  0  2  0  0  0  0  0  0  0  0  0
    4.2999    1.7612   42.3606 O   0  0  0  0  0  0  0  0  0  0  0  0
    3.0940    0.8844   40.4048 C   0  0  1  0  0  0  0  0  0  0  0  0
    1.7470    1.3071   40.9676 C   0  0  2  0  0  0  0  0  0  0  0  0
    1.5735    0.3996   42.0451 O   0  0  0  0  0  0  0  0  0  0  0  0
    0.5693    1.2053   39.9897 C   0  0  0  0  0  0  0  0  0  0  0  0
   -0.6593    1.3093   40.6940 O   0  0  0  0  0  0  0  0  0  0  0  0
    2.2399    3.1712   35.6541 C   0  0  1  0  0  0  0  0  0  0  0  0
    2.5774    4.5463   35.8268 O   0  0  0  0  0  0  0  0  0  0  0  0
    3.5361    2.3143   35.6869 C   0  0  2  0  0  0  0  0  0  0  0  0
    3.2421    1.0264   35.1507 O   0  0  0  0  0  0  0  0  0  0  0  0
    4.1853    2.1352   37.0984 C   0  0  1  0  0  0  0  0  0  0  0  0
    5.0664    3.2826   37.4086 N   0  3  0  0  0  0  0  0  0  0  0  0
    3.1193    1.8827   38.1969 C   0  0  1  0  0  0  0  0  0  0  0  0
    3.6424    1.9231   39.5474 O   0  0  0  0  0  0  0  0  0  0  0  0
    1.2781    2.7089   36.7775 C   0  0  1  0  0  0  0  0  0  0  0  0
    1.9928    2.8097   38.0396 O   0  0  0  0  0  0  0  0  0  0  0  0
   -0.0444    3.4965   36.8286 C   0  0  0  0  0  0  0  0  0  0  0  0
   -0.7942    3.4346   35.5587 N   0  3  0  0  0  0  0  0  0  0  0  0
  1  2  1  6  0  0  0
  1  3  1  0  0  0  0
  1 10  1  0  0  0  0
  3  4  1  6  0  0  0
  3  5  1  0  0  0  0
  5  6  1  6  0  0  0
  5  7  1  0  0  0  0
  7  8  1  6  0  0  0
  7  9  1  0  0  0  0
  9 10  1  0  0  0  0
  9 11  1  1  0  0  0
 11 12  1  0  0  0  0
 13 14  1  1  0  0  0
 13 15  1  0  0  0  0
 13 22  1  0  0  0  0
 15 16  1  6  0  0  0
 15 17  1  0  0  0  0
 17 18  1  6  0  0  0
 17 19  1  0  0  0  0
 19  2  1  6  0  0  0
 19 20  1  0  0  0  0
 20 21  1  6  0  0  0
 20 22  1  0  0  0  0
 23 18  1  6  0  0  0
 23 24  1  0  0  0  0
 23 28  1  0  0  0  0
 24 25  1  1  0  0  0
 24 26  1  0  0  0  0
 26 27  1  0  0  0  0
 26 38  1  1  0  0  0
 27 28  1  0  0  0  0
 27 29  1  6  0  0  0
 29 30  1  0  0  0  0
 31 32  1  1  0  0  0
 31 33  1  0  0  0  0
 31 39  1  0  0  0  0
 33 34  1  1  0  0  0
 33 35  1  0  0  0  0
 35 36  1  1  0  0  0
 35 37  1  0  0  0  0
 37 38  1  1  0  0  0
 37 40  1  0  0  0  0
 39 40  1  0  0  0  0
 39 41  1  1  0  0  0
 41 42  1  0  0  0  0
M  CHG  5   4   1  14   1  21   1  36   1  42   1
M  END
>  <CHROM.1>
-161.41416186,-70.98588648,-161.58289560,60.45205200,60.63921901,-72.04460790
64.79082386,-64.56876805,-53.78321233,49.04857571,90.04014706,-178.97293327
-45.41109325,161.28910257,166.04482343,170.62811818,-63.49068725,-64.36368240
85.68710271,-138.89021535,57.58440576,76.40968791,3.43541302,-0.85506985
40.06614135,-0.77678225,1.10868238,-1.49336345

>  <Name>
1pbr

>  <RI>
0

>  <Rbt.Current_Directory>
/home/itssahil/PROJECTS/Mol_Feturizer/New_Systems/rnas/1pbr

>  <Rbt.Executable>
rbdock ($Id: //depot/dev/client3/rdock/2013.1/src/exe/rbdock.cxx#4 $)

>  <Rbt.Library>
libRbt.so (2013.1, Build901 2013/11/27)

>  <Rbt.Parameter_File>
/export/apps/rDock/src/rDock_2013.1_src/data/scripts/dock_solv.prm

>  <Rbt.Receptor>
prm/pocket_docking_5.prm

>  <SCORE>
-50.7885

>  <SCORE.INTER>
-46.6701

>  <SCORE.INTER.CONST>
1

>  <SCORE.INTER.POLAR>
-7.64151

>  <SCORE.INTER.ROT>
9

>  <SCORE.INTER.SOLV>
25.6405

>  <SCORE.INTER.VDW>
-23.7885

>  <SCORE.INTER.norm>
-1.11119

>  <SCORE.INTRA>
-4.11842

>  <SCORE.INTRA.DIHEDRAL>
-9.72263

>  <SCORE.INTRA.DIHEDRAL.0>
29.7866

>  <SCORE.INTRA.POLAR>
0.371005

>  <SCORE.INTRA.POLAR.0>
-0.984091

>  <SCORE.INTRA.REPUL>
-0.274115

>  <SCORE.INTRA.REPUL.0>
0.274115

>  <SCORE.INTRA.SOLV>
-2.48546

>  <SCORE.INTRA.SOLV.lig_0>
-152.978

>  <SCORE.INTRA.VDW>
2.09478

>  <SCORE.INTRA.VDW.0>
-6.10719

>  <SCORE.INTRA.norm>
-0.0980575

>  <SCORE.RESTR>
0

>  <SCORE.RESTR.CAVITY>
0

>  <SCORE.RESTR.norm>
0

>  <SCORE.SYSTEM>
0

>  <SCORE.SYSTEM.CONST>
0

>  <SCORE.SYSTEM.DIHEDRAL>
0

>  <SCORE.SYSTEM.SOLV>
0

>  <SCORE.SYSTEM.norm>
0

>  <SCORE.heavy>
42

>  <SCORE.norm>
-1.20925

>  <RMSD>
5.678

$$$$
1pbr
 OpenBabel11021811403D
libRbt.so/2013.1/901 2013/11/27
 42 45  0  0  0  0  0  0  0  0999 V2000
   -0.4065   -4.9521   41.6833 C   0  0  2  0  0  0  0  0  0  0  0  0
    0.4419   -5.0168   42.8578 O   0  0  0  0  0  0  0  0  0  0  0  0
   -1.0908   -6.3433   41.4104 C   0  0  2  0  0  0  0  0  0  0  0  0
   -1.5788   -7.0397   42.6291 N   0  3  0  0  0  0  0  0  0  0  0  0
   -0.1280   -7.3216   40.7114 C   0  0  1  0  0  0  0  0  0  0  0  0
   -0.8290   -8.4688   40.2362 O   0  0  0  0  0  0  0  0  0  0  0  0
    0.5935   -6.6418   39.5379 C   0  0  2  0  0  0  0  0  0  0  0  0
    1.4455   -7.5725   38.8775 O   0  0  0  0  0  0  0  0  0  0  0  0
    1.3503   -5.3828   40.0162 C   0  0  2  0  0  0  0  0  0  0  0  0
    0.3606   -4.4743   40.5438 O   0  0  0  0  0  0  0  0  0  0  0  0
    2.1158   -4.6542   38.9129 C   0  0  0  0  0  0  0  0  0  0  0  0
    3.1221   -5.4850   38.3492 O   0  0  0  0  0  0  0  0  0  0  0  0
   -0.8253   -1.3195   44.5702 C   0  0  1  0  0  0  0  0  0  0  0  0
   -0.9663   -0.0613   45.3258 N   0  3  0  0  0  0  0  0  0  0  0  0
    0.3003   -1.2396   43.4950 C   0  0  2  0  0  0  0  0  0  0  0  0
    0.0304   -0.1896   42.5691 O   0  0  0  0  0  0  0  0  0  0  0  0
    0.4211   -2.5743   42.7027 C   0  0  1  0  0  0  0  0  0  0  0  0
    1.5924   -2.4980   41.8371 O   0  0  0  0  0  0  0  0  0  0  0  0
    0.5552   -3.8106   43.6508 C   0  0  1  0  0  0  0  0  0  0  0  0
   -0.5470   -3.8489   44.7573 C   0  0  1  0  0  0  0  0  0  0  0  0
   -0.3360   -4.9720   45.6973 N   0  3  0  0  0  0  0  0  0  0  0  0
   -0.5812   -2.5115   45.5414 C   0  0  0  0  0  0  0  0  0  0  0  0
    2.9340   -2.6135   42.4102 C   0  0  1  0  0  0  0  0  0  0  0  0
    3.9642   -2.5749   41.2660 C   0  0  2  0  0  0  0  0  0  0  0  0
    5.1692   -3.2373   41.6394 O   0  0  0  0  0  0  0  0  0  0  0  0
    4.1462   -1.0535   41.1567 C   0  0  1  0  0  0  0  0  0  0  0  0
    4.2151   -0.6289   42.6143 C   0  0  2  0  0  0  0  0  0  0  0  0
    3.2344   -1.4602   43.2159 O   0  0  0  0  0  0  0  0  0  0  0  0
    3.8979    0.8483   42.8802 C   0  0  0  0  0  0  0  0  0  0  0  0
    3.9408    1.1126   44.2747 O   0  0  0  0  0  0  0  0  0  0  0  0
    5.8348   -0.1387   36.1687 C   0  0  1  0  0  0  0  0  0  0  0  0
    6.7331    0.9653   36.2638 O   0  0  0  0  0  0  0  0  0  0  0  0
    6.4887   -1.3922   36.8142 C   0  0  2  0  0  0  0  0  0  0  0  0
    5.7685   -2.5478   36.3916 O   0  0  0  0  0  0  0  0  0  0  0  0
    6.5544   -1.3839   38.3767 C   0  0  1  0  0  0  0  0  0  0  0  0
    7.7566   -0.6547   38.8371 N   0  3  0  0  0  0  0  0  0  0  0  0
    5.2450   -0.8414   39.0073 C   0  0  1  0  0  0  0  0  0  0  0  0
    5.3288   -0.6110   40.4353 O   0  0  0  0  0  0  0  0  0  0  0  0
    4.5037    0.1881   36.8912 C   0  0  1  0  0  0  0  0  0  0  0  0
    4.8002    0.3668   38.3032 O   0  0  0  0  0  0  0  0  0  0  0  0
    3.7714    1.4177   36.3219 C   0  0  0  0  0  0  0  0  0  0  0  0
    4.4881    2.0338   35.1883 N   0  3  0  0  0  0  0  0  0  0  0  0
  1  2  1  1  0  0  0
  1  3  1  0  0  0  0
  1 10  1  0  0  0  0
  3  4  1  1  0  0  0
  3  5  1  0  0  0  0
  5  6  1  6  0  0  0
  5  7  1  0  0  0  0
  7  8  1  1  0  0  0
  7  9  1  0  0  0  0
  9 10  1  0  0  0  0
  9 11  1  6  0  0  0
 11 12  1  0  0  0  0
 13 14  1  1  0  0  0
 13 15  1  0  0  0  0
 13 22  1  0  0  0  0
 15 16  1  6  0  0  0
 15 17  1  0  0  0  0
 17 18  1  6  0  0  0
 17 19  1  0  0  0  0
 19  2  1  6  0  0  0
 19 20  1  0  0  0  0
 20 21  1  1  0  0  0
 20 22  1  0  0  0  0
 23 18  1  6  0  0  0
 23 24  1  0  0  0  0
 23 28  1  0  0  0  0
 24 25  1  1  0  0  0
 24 26  1  0  0  0  0
 26 27  1  0  0  0  0
 26 38  1  6  0  0  0
 27 28  1  0  0  0  0
 27 29  1  6  0  0  0
 29 30  1  0  0  0  0
 31 32  1  1  0  0  0
 31 33  1  0  0  0  0
 31 39  1  0  0  0  0
 33 34  1  1  0  0  0
 33 35  1  0  0  0  0
 35 36  1  6  0  0  0
 35 37  1  0  0  0  0
 37 38  1  1  0  0  0
 37 40  1  0  0  0  0
 39 40  1  0  0  0  0
 39 41  1  6  0  0  0
 41 42  1  0  0  0  0
M  CHG  5   4   1  14   1  21   1  36   1  42   1
M  END
>  <CHROM.1>
-147.66917461,-31.44315865,44.38702552,53.14153700,44.71158627,-61.84253059
-56.66768146,161.12969797,-177.65599688,74.44025261,176.95522789,154.27363184
-170.60783071,71.37438653,177.65708300,70.59617817,-45.14062791,162.60041029
-144.92270158,-137.73489985,0.40916604,66.37327872,2.49777424,-2.58521834
40.80459926,3.12221708,0.87305306,0.74804171

>  <Name>
1pbr

>  <RI>
0

>  <Rbt.Current_Directory>
/home/itssahil/PROJECTS/Mol_Feturizer/New_Systems/rnas/1pbr

>  <Rbt.Executable>
rbdock ($Id: //depot/dev/client3/rdock/2013.1/src/exe/rbdock.cxx#4 $)

>  <Rbt.Library>
libRbt.so (2013.1, Build901 2013/11/27)

>  <Rbt.Parameter_File>
/export/apps/rDock/src/rDock_2013.1_src/data/scripts/dock_solv.prm

>  <Rbt.Receptor>
prm/pocket_docking_8.prm

>  <SCORE>
-35.0517

>  <SCORE.INTER>
-39.1445

>  <SCORE.INTER.CONST>
1

>  <SCORE.INTER.POLAR>
-6.04612

>  <SCORE.INTER.ROT>
9

>  <SCORE.INTER.SOLV>
31.9745

>  <SCORE.INTER.VDW>
-26.2008

>  <SCORE.INTER.norm>
-0.932012

>  <SCORE.INTRA>
4.09284

>  <SCORE.INTRA.DIHEDRAL>
1.13639

>  <SCORE.INTRA.DIHEDRAL.0>
29.7866

>  <SCORE.INTRA.POLAR>
0.373408

>  <SCORE.INTRA.POLAR.0>
-0.984091

>  <SCORE.INTRA.REPUL>
-0.274115

>  <SCORE.INTRA.REPUL.0>
0.274115

>  <SCORE.INTRA.SOLV>
0.547447

>  <SCORE.INTRA.SOLV.lig_0>
-152.978

>  <SCORE.INTRA.VDW>
3.3519

>  <SCORE.INTRA.VDW.0>
-6.10719

>  <SCORE.INTRA.norm>
0.0974485

>  <SCORE.RESTR>
0

>  <SCORE.RESTR.CAVITY>
0

>  <SCORE.RESTR.norm>
0

>  <SCORE.SYSTEM>
0

>  <SCORE.SYSTEM.CONST>
0

>  <SCORE.SYSTEM.DIHEDRAL>
0

>  <SCORE.SYSTEM.SOLV>
0

>  <SCORE.SYSTEM.norm>
0

>  <SCORE.heavy>
42

>  <SCORE.norm>
-0.834564

>  <RMSD>
5.709

$$$$
1pbr
 OpenBabel11021811403D
libRbt.so/2013.1/901 2013/11/27
 42 45  0  0  0  0  0  0  0  0999 V2000
    2.6423   -2.1650   38.9021 C   0  0  2  0  0  0  0  0  0  0  0  0
    2.6637   -3.0070   40.0827 O   0  0  0  0  0  0  0  0  0  0  0  0
    3.4817   -2.8122   37.7382 C   0  0  2  0  0  0  0  0  0  0  0  0
    3.3051   -4.2806   37.5939 N   0  3  0  0  0  0  0  0  0  0  0  0
    4.9919   -2.5763   37.9290 C   0  0  1  0  0  0  0  0  0  0  0  0
    5.7122   -2.9297   36.7502 O   0  0  0  0  0  0  0  0  0  0  0  0
    5.2809   -1.1099   38.2837 C   0  0  2  0  0  0  0  0  0  0  0  0
    6.6837   -0.9014   38.4131 O   0  0  0  0  0  0  0  0  0  0  0  0
    4.5008   -0.6888   39.5488 C   0  0  2  0  0  0  0  0  0  0  0  0
    3.0974   -0.8257   39.2406 O   0  0  0  0  0  0  0  0  0  0  0  0
    4.7469    0.7542   39.9862 C   0  0  0  0  0  0  0  0  0  0  0  0
    5.4779    0.8057   41.2042 O   0  0  0  0  0  0  0  0  0  0  0  0
    0.9494   -2.5104   43.9585 C   0  0  1  0  0  0  0  0  0  0  0  0
    0.5665   -2.0719   45.3131 N   0  3  0  0  0  0  0  0  0  0  0  0
    0.4928   -1.5025   42.8606 C   0  0  2  0  0  0  0  0  0  0  0  0
   -0.9229   -1.3378   42.8940 O   0  0  0  0  0  0  0  0  0  0  0  0
    0.8969   -1.9933   41.4395 C   0  0  1  0  0  0  0  0  0  0  0  0
    0.5978   -0.9372   40.4792 O   0  0  0  0  0  0  0  0  0  0  0  0
    2.4148   -2.3592   41.3535 C   0  0  1  0  0  0  0  0  0  0  0  0
    2.8710   -3.3268   42.4920 C   0  0  1  0  0  0  0  0  0  0  0  0
    4.3289   -3.5754   42.4436 N   0  3  0  0  0  0  0  0  0  0  0  0
    2.4845   -2.7570   43.8814 C   0  0  0  0  0  0  0  0  0  0  0  0
    0.4926    0.4516   40.9287 C   0  0  1  0  0  0  0  0  0  0  0  0
    1.6893    1.2431   40.3689 C   0  0  2  0  0  0  0  0  0  0  0  0
    1.9812    2.3746   41.1842 O   0  0  0  0  0  0  0  0  0  0  0  0
    1.0986    1.6430   39.0084 C   0  0  1  0  0  0  0  0  0  0  0  0
   -0.3188    2.0493   39.3763 C   0  0  2  0  0  0  0  0  0  0  0  0
   -0.6665    1.0777   40.3508 O   0  0  0  0  0  0  0  0  0  0  0  0
   -1.3258    2.0281   38.2191 C   0  0  0  0  0  0  0  0  0  0  0  0
   -2.5329    2.6647   38.6118 O   0  0  0  0  0  0  0  0  0  0  0  0
    4.4875    1.7510   35.0921 C   0  0  1  0  0  0  0  0  0  0  0  0
    3.6460    2.2563   34.0571 O   0  0  0  0  0  0  0  0  0  0  0  0
    4.9099    2.9175   36.0284 C   0  0  2  0  0  0  0  0  0  0  0  0
    6.0211    2.4900   36.8126 O   0  0  0  0  0  0  0  0  0  0  0  0
    3.7922    3.4463   36.9859 C   0  0  1  0  0  0  0  0  0  0  0  0
    2.9545    4.4503   36.2937 N   0  3  0  0  0  0  0  0  0  0  0  0
    2.9599    2.2888   37.5975 C   0  0  1  0  0  0  0  0  0  0  0  0
    1.7819    2.7258   38.3190 O   0  0  0  0  0  0  0  0  0  0  0  0
    3.7413    0.6672   35.9101 C   0  0  1  0  0  0  0  0  0  0  0  0
    2.6114    1.3073   36.5637 O   0  0  0  0  0  0  0  0  0  0  0  0
    3.2814   -0.5398   35.0713 C   0  0  0  0  0  0  0  0  0  0  0  0
    4.3922   -1.4455   34.7186 N   0  3  0  0  0  0  0  0  0  0  0  0
  1  2  1  1  0  0  0
  1  3  1  0  0  0  0
  1 10  1  0  0  0  0
  3  4  1  1  0  0  0
  3  5  1  0  0  0  0
  5  6  1  6  0  0  0
  5  7  1  0  0  0  0
  7  8  1  1  0  0  0
  7  9  1  0  0  0  0
  9 10  1  0  0  0  0
  9 11  1  6  0  0  0
 11 12  1  0  0  0  0
 13 14  1  1  0  0  0
 13 15  1  0  0  0  0
 13 22  1  0  0  0  0
 15 16  1  6  0  0  0
 15 17  1  0  0  0  0
 17 18  1  6  0  0  0
 17 19  1  0  0  0  0
 19  2  1  6  0  0  0
 19 20  1  0  0  0  0
 20 21  1  1  0  0  0
 20 22  1  0  0  0  0
 23 18  1  6  0  0  0
 23 24  1  0  0  0  0
 23 28  1  0  0  0  0
 24 25  1  1  0  0  0
 24 26  1  0  0  0  0
 26 27  1  0  0  0  0
 26 38  1  1  0  0  0
 27 28  1  0  0  0  0
 27 29  1  6  0  0  0
 29 30  1  0  0  0  0
 31 32  1  6  0  0  0
 31 33  1  0  0  0  0
 31 39  1  0  0  0  0
 33 34  1  1  0  0  0
 33 35  1  0  0  0  0
 35 36  1  6  0  0  0
 35 37  1  0  0  0  0
 37 38  1  6  0  0  0
 37 40  1  0  0  0  0
 39 40  1  0  0  0  0
 39 41  1  6  0  0  0
 41 42  1  0  0  0  0
M  CHG  5   4   1  14   1  21   1  36   1  42   1
M  END
>  <CHROM.1>
156.37435336,72.78623360,-178.50645376,-170.95620500,-179.21883776,-110.89600065
55.65015680,67.44699882,-79.51278082,22.59243338,110.85084683,48.45389483
-52.94234583,81.63522067,-168.73964842,-63.83113674,-60.27224476,-50.83401198
4.22054061,-173.55919338,75.19115811,-179.29864028,2.68626618,-0.14325862
39.13711911,-2.03453221,0.66628446,-0.79502678

>  <Name>
1pbr

>  <RI>
0

>  <Rbt.Current_Directory>
/home/itssahil/PROJECTS/Mol_Feturizer/New_Systems/rnas/1pbr

>  <Rbt.Executable>
rbdock ($Id: //depot/dev/client3/rdock/2013.1/src/exe/rbdock.cxx#4 $)

>  <Rbt.Library>
libRbt.so (2013.1, Build901 2013/11/27)

>  <Rbt.Parameter_File>
/export/apps/rDock/src/rDock_2013.1_src/data/scripts/dock_solv.prm

>  <Rbt.Receptor>
prm/pocket_docking_6.prm

>  <SCORE>
-57.3656

>  <SCORE.INTER>
-56.8117

>  <SCORE.INTER.CONST>
1

>  <SCORE.INTER.POLAR>
-9.35247

>  <SCORE.INTER.ROT>
9

>  <SCORE.INTER.SOLV>
34.8129

>  <SCORE.INTER.VDW>
-27.9039

>  <SCORE.INTER.norm>
-1.35266

>  <SCORE.INTRA>
-0.565622

>  <SCORE.INTRA.DIHEDRAL>
1.31868

>  <SCORE.INTRA.DIHEDRAL.0>
29.7866

>  <SCORE.INTRA.POLAR>
-0.19869

>  <SCORE.INTRA.POLAR.0>
-0.984091

>  <SCORE.INTRA.REPUL>
-0.274115

>  <SCORE.INTRA.REPUL.0>
0.274115

>  <SCORE.INTRA.SOLV>
2.14314

>  <SCORE.INTRA.SOLV.lig_0>
-152.978

>  <SCORE.INTRA.VDW>
-0.250411

>  <SCORE.INTRA.VDW.0>
-6.10719

>  <SCORE.INTRA.norm>
-0.0134672

>  <SCORE.RESTR>
0.0117847

>  <SCORE.RESTR.CAVITY>
0.0117847

>  <SCORE.RESTR.norm>
0.000280588

>  <SCORE.SYSTEM>
0

>  <SCORE.SYSTEM.CONST>
0

>  <SCORE.SYSTEM.DIHEDRAL>
0

>  <SCORE.SYSTEM.SOLV>
0

>  <SCORE.SYSTEM.norm>
0

>  <SCORE.heavy>
42

>  <SCORE.norm>
-1.36585

>  <RMSD>
5.726

$$$$
1pbr
 OpenBabel11021811403D
libRbt.so/2013.1/901 2013/11/27
 42 45  0  0  0  0  0  0  0  0999 V2000
    4.1951   -2.0180   45.1862 C   0  0  2  0  0  0  0  0  0  0  0  0
    4.1723   -0.7016   44.5781 O   0  0  0  0  0  0  0  0  0  0  0  0
    5.6752   -2.5059   45.4083 C   0  0  2  0  0  0  0  0  0  0  0  0
    6.6030   -1.4550   45.9014 N   0  3  0  0  0  0  0  0  0  0  0  0
    6.2940   -3.0512   44.1073 C   0  0  1  0  0  0  0  0  0  0  0  0
    7.5215   -3.7257   44.3747 O   0  0  0  0  0  0  0  0  0  0  0  0
    5.3279   -4.0113   43.3969 C   0  0  2  0  0  0  0  0  0  0  0  0
    5.9334   -4.5385   42.2206 O   0  0  0  0  0  0  0  0  0  0  0  0
    3.9792   -3.3158   43.1076 C   0  0  2  0  0  0  0  0  0  0  0  0
    3.4154   -2.9477   44.3842 O   0  0  0  0  0  0  0  0  0  0  0  0
    2.9629   -4.1956   42.3814 C   0  0  0  0  0  0  0  0  0  0  0  0
    2.6720   -5.3699   43.1277 O   0  0  0  0  0  0  0  0  0  0  0  0
    0.3788    0.3076   46.2511 C   0  0  1  0  0  0  0  0  0  0  0  0
   -0.8529    0.9682   46.7207 N   0  3  0  0  0  0  0  0  0  0  0  0
    0.4603    0.2474   44.6957 C   0  0  2  0  0  0  0  0  0  0  0  0
   -0.6575   -0.4614   44.1658 O   0  0  0  0  0  0  0  0  0  0  0  0
    1.7619   -0.4651   44.2250 C   0  0  1  0  0  0  0  0  0  0  0  0
    1.8637   -0.3398   42.7755 O   0  0  0  0  0  0  0  0  0  0  0  0
    3.0392    0.1442   44.8902 C   0  0  1  0  0  0  0  0  0  0  0  0
    2.9222    0.2492   46.4446 C   0  0  1  0  0  0  0  0  0  0  0  0
    4.1019    0.9193   47.0352 N   0  3  0  0  0  0  0  0  0  0  0  0
    1.6332    1.0122   46.8456 C   0  0  0  0  0  0  0  0  0  0  0  0
    2.2718    0.9325   42.1784 C   0  0  1  0  0  0  0  0  0  0  0  0
    3.7999    1.0717   42.3105 C   0  0  2  0  0  0  0  0  0  0  0  0
    4.1918    2.4416   42.3032 O   0  0  0  0  0  0  0  0  0  0  0  0
    4.2206    0.3392   41.0274 C   0  0  1  0  0  0  0  0  0  0  0  0
    3.2259    0.8709   40.0088 C   0  0  2  0  0  0  0  0  0  0  0  0
    2.0236    0.9221   40.7614 O   0  0  0  0  0  0  0  0  0  0  0  0
    3.0376   -0.0027   38.7618 C   0  0  0  0  0  0  0  0  0  0  0  0
    1.9291   -0.8723   38.9388 O   0  0  0  0  0  0  0  0  0  0  0  0
    8.3484   -1.8910   38.3578 C   0  0  1  0  0  0  0  0  0  0  0  0
    9.4317   -0.9651   38.4198 O   0  0  0  0  0  0  0  0  0  0  0  0
    7.9926   -2.3649   39.7947 C   0  0  2  0  0  0  0  0  0  0  0  0
    7.1900   -3.5393   39.6992 O   0  0  0  0  0  0  0  0  0  0  0  0
    7.2447   -1.3151   40.6803 C   0  0  1  0  0  0  0  0  0  0  0  0
    8.2150   -0.4111   41.3365 N   0  3  0  0  0  0  0  0  0  0  0  0
    6.1594   -0.5504   39.8778 C   0  0  1  0  0  0  0  0  0  0  0  0
    5.5857    0.5760   40.5859 O   0  0  0  0  0  0  0  0  0  0  0  0
    7.1107   -1.2267   37.7041 C   0  0  1  0  0  0  0  0  0  0  0  0
    6.6840   -0.1398   38.5703 O   0  0  0  0  0  0  0  0  0  0  0  0
    7.3584   -0.7236   36.2697 C   0  0  0  0  0  0  0  0  0  0  0  0
    6.3603    0.2730   35.8348 N   0  3  0  0  0  0  0  0  0  0  0  0
  1  2  1  6  0  0  0
  1  3  1  0  0  0  0
  1 10  1  0  0  0  0
  3  4  1  6  0  0  0
  3  5  1  0  0  0  0
  5  6  1  1  0  0  0
  5  7  1  0  0  0  0
  7  8  1  6  0  0  0
  7  9  1  0  0  0  0
  9 10  1  0  0  0  0
  9 11  1  1  0  0  0
 11 12  1  0  0  0  0
 13 14  1  6  0  0  0
 13 15  1  0  0  0  0
 13 22  1  0  0  0  0
 15 16  1  1  0  0  0
 15 17  1  0  0  0  0
 17 18  1  6  0  0  0
 17 19  1  0  0  0  0
 19  2  1  1  0  0  0
 19 20  1  0  0  0  0
 20 21  1  6  0  0  0
 20 22  1  0  0  0  0
 23 18  1  6  0  0  0
 23 24  1  0  0  0  0
 23 28  1  0  0  0  0
 24 25  1  6  0  0  0
 24 26  1  0  0  0  0
 26 27  1  0  0  0  0
 26 38  1  6  0  0  0
 27 28  1  0  0  0  0
 27 29  1  6  0  0  0
 29 30  1  0  0  0  0
 31 32  1  1  0  0  0
 31 33  1  0  0  0  0
 31 39  1  0  0  0  0
 33 34  1  6  0  0  0
 33 35  1  0  0  0  0
 35 36  1  6  0  0  0
 35 37  1  0  0  0  0
 37 38  1  1  0  0  0
 37 40  1  0  0  0  0
 39 40  1  0  0  0  0
 39 41  1  6  0  0  0
 41 42  1  0  0  0  0
M  CHG  5   4   1  14   1  21   1  36   1  42   1
M  END
>  <CHROM.1>
-150.51044015,-68.69181288,-54.93819633,-65.96835429,177.02639185,58.79365120
54.77157666,-169.90361089,-175.42892360,75.82064720,78.16578239,-176.15440727
-168.48625119,149.89634414,94.52103967,-177.07206125,-67.26711653,84.31115722
-45.42824747,-107.97560791,-161.03550904,-44.90775414,4.44142737,-0.99919639
42.26373603,-2.40807993,0.59533891,-1.14967022

>  <Name>
1pbr

>  <RI>
0

>  <Rbt.Current_Directory>
/home/itssahil/PROJECTS/Mol_Feturizer/New_Systems/rnas/1pbr

>  <Rbt.Executable>
rbdock ($Id: //depot/dev/client3/rdock/2013.1/src/exe/rbdock.cxx#4 $)

>  <Rbt.Library>
libRbt.so (2013.1, Build901 2013/11/27)

>  <Rbt.Parameter_File>
/export/apps/rDock/src/rDock_2013.1_src/data/scripts/dock_solv.prm

>  <Rbt.Receptor>
prm/pocket_docking_8.prm

>  <SCORE>
-34.0967

>  <SCORE.INTER>
-36.6407

>  <SCORE.INTER.CONST>
1

>  <SCORE.INTER.POLAR>
-4.7726

>  <SCORE.INTER.ROT>
9

>  <SCORE.INTER.SOLV>
30.83

>  <SCORE.INTER.VDW>
-28.3951

>  <SCORE.INTER.norm>
-0.872397

>  <SCORE.INTRA>
2.54398

>  <SCORE.INTRA.DIHEDRAL>
-2.91228

>  <SCORE.INTRA.DIHEDRAL.0>
29.7866

>  <SCORE.INTRA.POLAR>
0.905716

>  <SCORE.INTRA.POLAR.0>
-0.984091

>  <SCORE.INTRA.REPUL>
-0.108557

>  <SCORE.INTRA.REPUL.0>
0.274115

>  <SCORE.INTRA.SOLV>
0.711781

>  <SCORE.INTRA.SOLV.lig_0>
-152.978

>  <SCORE.INTRA.VDW>
1.10758

>  <SCORE.INTRA.VDW.0>
-6.10719

>  <SCORE.INTRA.norm>
0.060571

>  <SCORE.RESTR>
0

>  <SCORE.RESTR.CAVITY>
0

>  <SCORE.RESTR.norm>
0

>  <SCORE.SYSTEM>
0

>  <SCORE.SYSTEM.CONST>
0

>  <SCORE.SYSTEM.DIHEDRAL>
0

>  <SCORE.SYSTEM.SOLV>
0

>  <SCORE.SYSTEM.norm>
0

>  <SCORE.heavy>
42

>  <SCORE.norm>
-0.811826

>  <RMSD>
5.744

$$$$
1pbr
 OpenBabel11021811403D
libRbt.so/2013.1/901 2013/11/27
 42 45  0  0  0  0  0  0  0  0999 V2000
    0.4162   -5.0873   41.1814 C   0  0  2  0  0  0  0  0  0  0  0  0
    1.0855   -5.1565   42.4661 O   0  0  0  0  0  0  0  0  0  0  0  0
   -0.3827   -6.4131   40.8949 C   0  0  2  0  0  0  0  0  0  0  0  0
   -1.1080   -6.9618   42.0701 N   0  3  0  0  0  0  0  0  0  0  0  0
    0.5446   -7.5378   40.3971 C   0  0  1  0  0  0  0  0  0  0  0  0
   -0.2151   -8.6348   39.8943 O   0  0  0  0  0  0  0  0  0  0  0  0
    1.4918   -7.0274   39.3007 C   0  0  2  0  0  0  0  0  0  0  0  0
    2.3104   -8.0902   38.8227 O   0  0  0  0  0  0  0  0  0  0  0  0
    2.3190   -5.8254   39.8080 C   0  0  2  0  0  0  0  0  0  0  0  0
    1.3800   -4.7795   40.1366 O   0  0  0  0  0  0  0  0  0  0  0  0
    3.3056   -5.2661   38.7844 C   0  0  0  0  0  0  0  0  0  0  0  0
    2.7134   -5.1735   37.4955 O   0  0  0  0  0  0  0  0  0  0  0  0
   -0.0588   -1.2828   43.8418 C   0  0  1  0  0  0  0  0  0  0  0  0
   -0.1800    0.0235   44.5148 N   0  3  0  0  0  0  0  0  0  0  0  0
    1.1821   -1.3493   42.9008 C   0  0  2  0  0  0  0  0  0  0  0  0
    1.1031   -0.3363   41.9007 O   0  0  0  0  0  0  0  0  0  0  0  0
    1.2810   -2.7322   42.1927 C   0  0  1  0  0  0  0  0  0  0  0  0
    2.5435   -2.7939   41.4651 O   0  0  0  0  0  0  0  0  0  0  0  0
    1.2079   -3.9191   43.2081 C   0  0  1  0  0  0  0  0  0  0  0  0
   -0.0098   -3.8111   44.1809 C   0  0  1  0  0  0  0  0  0  0  0  0
    0.0034   -4.8917   45.1916 N   0  3  0  0  0  0  0  0  0  0  0  0
   -0.0219   -2.4325   44.8906 C   0  0  0  0  0  0  0  0  0  0  0  0
    3.7938   -2.4402   42.1387 C   0  0  1  0  0  0  0  0  0  0  0  0
    4.9727   -2.8403   41.2320 C   0  0  2  0  0  0  0  0  0  0  0  0
    6.1515   -3.0731   41.9978 O   0  0  0  0  0  0  0  0  0  0  0  0
    5.0713   -1.5615   40.3865 C   0  0  1  0  0  0  0  0  0  0  0  0
    4.9033   -0.4687   41.4291 C   0  0  2  0  0  0  0  0  0  0  0  0
    3.9014   -1.0121   42.2751 O   0  0  0  0  0  0  0  0  0  0  0  0
    4.4577    0.8935   40.8820 C   0  0  0  0  0  0  0  0  0  0  0  0
    4.1437    1.7702   41.9539 O   0  0  0  0  0  0  0  0  0  0  0  0
    6.4428    0.7050   35.8719 C   0  0  1  0  0  0  0  0  0  0  0  0
    7.3301    1.7291   36.3176 O   0  0  0  0  0  0  0  0  0  0  0  0
    7.1678   -0.6683   35.9345 C   0  0  2  0  0  0  0  0  0  0  0  0
    6.4302   -1.6065   35.1545 O   0  0  0  0  0  0  0  0  0  0  0  0
    7.3683   -1.2552   37.3701 C   0  0  1  0  0  0  0  0  0  0  0  0
    8.5953   -0.7026   37.9850 N   0  3  0  0  0  0  0  0  0  0  0  0
    6.1107   -1.0564   38.2566 C   0  0  1  0  0  0  0  0  0  0  0  0
    6.3144   -1.3861   39.6526 O   0  0  0  0  0  0  0  0  0  0  0  0
    5.1746    0.6686   36.7614 C   0  0  1  0  0  0  0  0  0  0  0  0
    5.5896    0.3072   38.1071 O   0  0  0  0  0  0  0  0  0  0  0  0
    4.3784    1.9870   36.7656 C   0  0  0  0  0  0  0  0  0  0  0  0
    5.1800    3.1355   37.2312 N   0  3  0  0  0  0  0  0  0  0  0  0
  1  2  1  1  0  0  0
  1  3  1  0  0  0  0
  1 10  1  0  0  0  0
  3  4  1  1  0  0  0
  3  5  1  0  0  0  0
  5  6  1  6  0  0  0
  5  7  1  0  0  0  0
  7  8  1  1  0  0  0
  7  9  1  0  0  0  0
  9 10  1  0  0  0  0
  9 11  1  6  0  0  0
 11 12  1  0  0  0  0
 13 14  1  1  0  0  0
 13 15  1  0  0  0  0
 13 22  1  0  0  0  0
 15 16  1  6  0  0  0
 15 17  1  0  0  0  0
 17 18  1  1  0  0  0
 17 19  1  0  0  0  0
 19  2  1  6  0  0  0
 19 20  1  0  0  0  0
 20 21  1  1  0  0  0
 20 22  1  0  0  0  0
 23 18  1  6  0  0  0
 23 24  1  0  0  0  0
 23 28  1  0  0  0  0
 24 25  1  1  0  0  0
 24 26  1  0  0  0  0
 26 27  1  0  0  0  0
 26 38  1  1  0  0  0
 27 28  1  0  0  0  0
 27 29  1  6  0  0  0
 29 30  1  0  0  0  0
 31 32  1  1  0  0  0
 31 33  1  0  0  0  0
 31 39  1  0  0  0  0
 33 34  1  6  0  0  0
 33 35  1  0  0  0  0
 35 36  1  1  0  0  0
 35 37  1  0  0  0  0
 37 38  1  1  0  0  0
 37 40  1  0  0  0  0
 39 40  1  0  0  0  0
 39 41  1  1  0  0  0
 41 42  1  0  0  0  0
M  CHG  5   4   1  14   1  21   1  36   1  42   1
M  END
>  <CHROM.1>
-146.49764940,-29.64617991,173.24171161,-177.02034225,162.17031398,43.25696931
-156.31843388,-177.62154115,170.78521281,49.84076951,169.66954656,69.53290161
-179.04250826,130.69734320,171.36100440,-179.52916552,66.14898121,-64.69651641
83.54316491,-163.62867266,-58.72458615,-12.80682142,3.21780242,-2.51918140
40.30240349,-2.88223496,0.86513406,0.55432729

>  <Name>
1pbr

>  <RI>
0

>  <Rbt.Current_Directory>
/home/itssahil/PROJECTS/Mol_Feturizer/New_Systems/rnas/1pbr

>  <Rbt.Executable>
rbdock ($Id: //depot/dev/client3/rdock/2013.1/src/exe/rbdock.cxx#4 $)

>  <Rbt.Library>
libRbt.so (2013.1, Build901 2013/11/27)

>  <Rbt.Parameter_File>
/export/apps/rDock/src/rDock_2013.1_src/data/scripts/dock_solv.prm

>  <Rbt.Receptor>
prm/pocket_docking_4.prm

>  <SCORE>
-32.0295

>  <SCORE.INTER>
-32.5455

>  <SCORE.INTER.CONST>
1

>  <SCORE.INTER.POLAR>
-4.26202

>  <SCORE.INTER.ROT>
9

>  <SCORE.INTER.SOLV>
30.1279

>  <SCORE.INTER.VDW>
-27.1329

>  <SCORE.INTER.norm>
-0.774893

>  <SCORE.INTRA>
0.247581

>  <SCORE.INTRA.DIHEDRAL>
-1.57506

>  <SCORE.INTRA.DIHEDRAL.0>
29.7866

>  <SCORE.INTRA.POLAR>
0.254743

>  <SCORE.INTRA.POLAR.0>
-0.984091

>  <SCORE.INTRA.REPUL>
-0.274115

>  <SCORE.INTRA.REPUL.0>
0.274115

>  <SCORE.INTRA.SOLV>
0.424003

>  <SCORE.INTRA.SOLV.lig_0>
-152.978

>  <SCORE.INTRA.VDW>
1.32756

>  <SCORE.INTRA.VDW.0>
-6.10719

>  <SCORE.INTRA.norm>
0.00589478

>  <SCORE.RESTR>
0.268398

>  <SCORE.RESTR.CAVITY>
0.268398

>  <SCORE.RESTR.norm>
0.00639042

>  <SCORE.SYSTEM>
0

>  <SCORE.SYSTEM.CONST>
0

>  <SCORE.SYSTEM.DIHEDRAL>
0

>  <SCORE.SYSTEM.SOLV>
0

>  <SCORE.SYSTEM.norm>
0

>  <SCORE.heavy>
42

>  <SCORE.norm>
-0.762608

>  <RMSD>
5.760

$$$$
1pbr
 OpenBabel11021811403D
libRbt.so/2013.1/901 2013/11/27
 42 45  0  0  0  0  0  0  0  0999 V2000
    4.9502    0.7265   40.1183 C   0  0  2  0  0  0  0  0  0  0  0  0
    5.9663   -0.3065   40.0580 O   0  0  0  0  0  0  0  0  0  0  0  0
    4.9868    1.4666   41.5072 C   0  0  2  0  0  0  0  0  0  0  0  0
    6.3530    1.7522   42.0175 N   0  3  0  0  0  0  0  0  0  0  0  0
    4.2791    0.6492   42.6043 C   0  0  1  0  0  0  0  0  0  0  0  0
    4.0875    1.4364   43.7777 O   0  0  0  0  0  0  0  0  0  0  0  0
    2.9209    0.1260   42.1130 C   0  0  2  0  0  0  0  0  0  0  0  0
    2.2626   -0.5894   43.1538 O   0  0  0  0  0  0  0  0  0  0  0  0
    3.0910   -0.7182   40.8305 C   0  0  2  0  0  0  0  0  0  0  0  0
    3.6453    0.1556   39.8243 O   0  0  0  0  0  0  0  0  0  0  0  0
    1.7874   -1.2972   40.2833 C   0  0  0  0  0  0  0  0  0  0  0  0
    2.0355   -2.3991   39.4202 O   0  0  0  0  0  0  0  0  0  0  0  0
    6.3080   -4.0727   38.0813 C   0  0  1  0  0  0  0  0  0  0  0  0
    6.1251   -5.4335   37.5441 N   0  3  0  0  0  0  0  0  0  0  0  0
    5.2935   -3.0569   37.4742 C   0  0  2  0  0  0  0  0  0  0  0  0
    5.4336   -3.0007   36.0565 O   0  0  0  0  0  0  0  0  0  0  0  0
    5.5147   -1.6263   38.0469 C   0  0  1  0  0  0  0  0  0  0  0  0
    4.4370   -0.7639   37.5757 O   0  0  0  0  0  0  0  0  0  0  0  0
    5.5422   -1.6166   39.6103 C   0  0  1  0  0  0  0  0  0  0  0  0
    6.5226   -2.6769   40.2064 C   0  0  1  0  0  0  0  0  0  0  0  0
    6.4532   -2.7125   41.6840 N   0  3  0  0  0  0  0  0  0  0  0  0
    6.2172   -4.0859   39.6354 C   0  0  0  0  0  0  0  0  0  0  0  0
    4.5320   -0.1263   36.2619 C   0  0  1  0  0  0  0  0  0  0  0  0
    3.1152   -0.0004   35.6712 C   0  0  2  0  0  0  0  0  0  0  0  0
    3.1567    0.0518   34.2479 O   0  0  0  0  0  0  0  0  0  0  0  0
    2.7144    1.3467   36.2914 C   0  0  1  0  0  0  0  0  0  0  0  0
    3.9770    2.1740   36.1153 C   0  0  2  0  0  0  0  0  0  0  0  0
    4.9975    1.2282   36.3960 O   0  0  0  0  0  0  0  0  0  0  0  0
    4.1004    3.3847   37.0495 C   0  0  0  0  0  0  0  0  0  0  0  0
    5.4664    3.6337   37.3466 O   0  0  0  0  0  0  0  0  0  0  0  0
    0.3304    6.1482   35.6592 C   0  0  1  0  0  0  0  0  0  0  0  0
   -0.8567    5.9258   34.9002 O   0  0  0  0  0  0  0  0  0  0  0  0
    0.2249    5.3936   37.0139 C   0  0  2  0  0  0  0  0  0  0  0  0
    1.2153    5.9108   37.8994 O   0  0  0  0  0  0  0  0  0  0  0  0
    0.3869    3.8404   36.9300 C   0  0  1  0  0  0  0  0  0  0  0  0
   -0.9080    3.2053   36.6002 N   0  3  0  0  0  0  0  0  0  0  0  0
    1.5224    3.4296   35.9560 C   0  0  1  0  0  0  0  0  0  0  0  0
    1.5751    2.0089   35.6765 O   0  0  0  0  0  0  0  0  0  0  0  0
    1.5702    5.6476   34.8763 C   0  0  1  0  0  0  0  0  0  0  0  0
    1.4391    4.2086   34.7152 O   0  0  0  0  0  0  0  0  0  0  0  0
    1.7679    6.3388   33.5142 C   0  0  0  0  0  0  0  0  0  0  0  0
    2.2050    7.7425   33.6454 N   0  3  0  0  0  0  0  0  0  0  0  0
  1  2  1  1  0  0  0
  1  3  1  0  0  0  0
  1 10  1  0  0  0  0
  3  4  1  1  0  0  0
  3  5  1  0  0  0  0
  5  6  1  1  0  0  0
  5  7  1  0  0  0  0
  7  8  1  1  0  0  0
  7  9  1  0  0  0  0
  9 10  1  0  0  0  0
  9 11  1  6  0  0  0
 11 12  1  0  0  0  0
 13 14  1  6  0  0  0
 13 15  1  0  0  0  0
 13 22  1  0  0  0  0
 15 16  1  6  0  0  0
 15 17  1  0  0  0  0
 17 18  1  1  0  0  0
 17 19  1  0  0  0  0
 19  2  1  6  0  0  0
 19 20  1  0  0  0  0
 20 21  1  1  0  0  0
 20 22  1  0  0  0  0
 23 18  1  1  0  0  0
 23 24  1  0  0  0  0
 23 28  1  0  0  0  0
 24 25  1  6  0  0  0
 24 26  1  0  0  0  0
 26 27  1  0  0  0  0
 26 38  1  6  0  0  0
 27 28  1  0  0  0  0
 27 29  1  1  0  0  0
 29 30  1  0  0  0  0
 31 32  1  6  0  0  0
 31 33  1  0  0  0  0
 31 39  1  0  0  0  0
 33 34  1  1  0  0  0
 33 35  1  0  0  0  0
 35 36  1  6  0  0  0
 35 37  1  0  0  0  0
 37 38  1  6  0  0  0
 37 40  1  0  0  0  0
 39 40  1  0  0  0  0
 39 41  1  6  0  0  0
 41 42  1  0  0  0  0
M  CHG  5   4   1  14   1  21   1  36   1  42   1
M  END
>  <CHROM.1>
130.75724125,82.45320264,78.21021760,-74.58408768,58.73719833,-159.90594706
153.49250197,151.73342061,-43.39616803,-84.38521002,147.48787405,-176.41482978
-55.92854767,-159.62413301,148.45960313,59.62451655,-62.64793964,-39.60464084
83.13216428,-108.63101314,71.22845185,-168.63961367,3.48833332,1.04967062
38.05776513,0.42643870,-1.08750211,1.46635195

>  <Name>
1pbr

>  <RI>
0

>  <Rbt.Current_Directory>
/home/itssahil/PROJECTS/Mol_Feturizer/New_Systems/rnas/1pbr

>  <Rbt.Executable>
rbdock ($Id: //depot/dev/client3/rdock/2013.1/src/exe/rbdock.cxx#4 $)

>  <Rbt.Library>
libRbt.so (2013.1, Build901 2013/11/27)

>  <Rbt.Parameter_File>
/export/apps/rDock/src/rDock_2013.1_src/data/scripts/dock_solv.prm

>  <Rbt.Receptor>
prm/blind_docking_60.prm

>  <SCORE>
-26.2611

>  <SCORE.INTER>
-44.0391

>  <SCORE.INTER.CONST>
1

>  <SCORE.INTER.POLAR>
-7.00327

>  <SCORE.INTER.ROT>
9

>  <SCORE.INTER.SOLV>
37.6384

>  <SCORE.INTER.VDW>
-28.1613

>  <SCORE.INTER.norm>
-1.04855

>  <SCORE.INTRA>
12.4574

>  <SCORE.INTRA.DIHEDRAL>
10.2962

>  <SCORE.INTRA.DIHEDRAL.0>
29.7866

>  <SCORE.INTRA.POLAR>
0.934686

>  <SCORE.INTRA.POLAR.0>
-0.984091

>  <SCORE.INTRA.REPUL>
0.0112585

>  <SCORE.INTRA.REPUL.0>
0.274115

>  <SCORE.INTRA.SOLV>
-2.18214

>  <SCORE.INTRA.SOLV.lig_0>
-152.978

>  <SCORE.INTRA.VDW>
5.16621

>  <SCORE.INTRA.VDW.0>
-6.10719

>  <SCORE.INTRA.norm>
0.296606

>  <SCORE.RESTR>
5.3205

>  <SCORE.RESTR.CAVITY>
5.3205

>  <SCORE.RESTR.norm>
0.126678

>  <SCORE.SYSTEM>
0

>  <SCORE.SYSTEM.CONST>
0

>  <SCORE.SYSTEM.DIHEDRAL>
0

>  <SCORE.SYSTEM.SOLV>
0

>  <SCORE.SYSTEM.norm>
0

>  <SCORE.heavy>
42

>  <SCORE.norm>
-0.625265

>  <RMSD>
5.771

$$$$
1pbr
 OpenBabel11021811403D
libRbt.so/2013.1/901 2013/11/27
 42 45  0  0  0  0  0  0  0  0999 V2000
    2.8149   -2.5665   41.4972 C   0  0  2  0  0  0  0  0  0  0  0  0
    3.5055   -2.8103   42.7489 O   0  0  0  0  0  0  0  0  0  0  0  0
    1.8028   -3.7301   41.1810 C   0  0  2  0  0  0  0  0  0  0  0  0
    1.0367   -4.2171   42.3575 N   0  3  0  0  0  0  0  0  0  0  0  0
    2.5190   -4.9608   40.5935 C   0  0  1  0  0  0  0  0  0  0  0  0
    1.5757   -5.8936   40.0706 O   0  0  0  0  0  0  0  0  0  0  0  0
    3.5003   -4.5512   39.4849 C   0  0  2  0  0  0  0  0  0  0  0  0
    4.1199   -5.7045   38.9244 O   0  0  0  0  0  0  0  0  0  0  0  0
    4.5274   -3.5260   40.0144 C   0  0  2  0  0  0  0  0  0  0  0  0
    3.7815   -2.3622   40.4298 O   0  0  0  0  0  0  0  0  0  0  0  0
    5.5579   -3.0784   38.9791 C   0  0  0  0  0  0  0  0  0  0  0  0
    6.1910   -4.1942   38.3669 O   0  0  0  0  0  0  0  0  0  0  0  0
    3.8134   -0.3883   46.2485 C   0  0  1  0  0  0  0  0  0  0  0  0
    4.1027    0.6501   47.2545 N   0  3  0  0  0  0  0  0  0  0  0  0
    2.8587    0.1247   45.1282 C   0  0  2  0  0  0  0  0  0  0  0  0
    1.6227    0.5610   45.6889 O   0  0  0  0  0  0  0  0  0  0  0  0
    2.5584   -0.9923   44.0862 C   0  0  1  0  0  0  0  0  0  0  0  0
    1.8058   -0.4089   42.9815 O   0  0  0  0  0  0  0  0  0  0  0  0
    3.8661   -1.6487   43.5346 C   0  0  1  0  0  0  0  0  0  0  0  0
    4.8384   -2.1088   44.6676 C   0  0  1  0  0  0  0  0  0  0  0  0
    6.1072   -2.6338   44.1162 N   0  3  0  0  0  0  0  0  0  0  0  0
    5.1366   -0.9388   45.6406 C   0  0  0  0  0  0  0  0  0  0  0  0
    2.1769    0.9063   42.4578 C   0  0  1  0  0  0  0  0  0  0  0  0
    3.6655    0.8781   42.0636 C   0  0  2  0  0  0  0  0  0  0  0  0
    4.2310    2.1852   42.1053 O   0  0  0  0  0  0  0  0  0  0  0  0
    3.5247    0.3505   40.6278 C   0  0  1  0  0  0  0  0  0  0  0  0
    2.3394    1.1448   40.1045 C   0  0  2  0  0  0  0  0  0  0  0  0
    1.4753    1.1717   41.2302 O   0  0  0  0  0  0  0  0  0  0  0  0
    1.6222    0.5286   38.8963 C   0  0  0  0  0  0  0  0  0  0  0  0
    1.3769   -0.8509   39.1266 O   0  0  0  0  0  0  0  0  0  0  0  0
    4.8717    1.7984   35.6428 C   0  0  1  0  0  0  0  0  0  0  0  0
    6.1925    2.3306   35.7269 O   0  0  0  0  0  0  0  0  0  0  0  0
    4.9152    0.2674   35.9066 C   0  0  2  0  0  0  0  0  0  0  0  0
    3.6880   -0.3048   35.4603 O   0  0  0  0  0  0  0  0  0  0  0  0
    5.1525   -0.1495   37.3951 C   0  0  1  0  0  0  0  0  0  0  0  0
    6.6002   -0.1664   37.7000 N   0  3  0  0  0  0  0  0  0  0  0  0
    4.3420    0.7346   38.3791 C   0  0  1  0  0  0  0  0  0  0  0  0
    4.6861    0.5352   39.7723 O   0  0  0  0  0  0  0  0  0  0  0  0
    3.9496    2.4829   36.6830 C   0  0  1  0  0  0  0  0  0  0  0  0
    4.4525    2.1494   38.0057 O   0  0  0  0  0  0  0  0  0  0  0  0
    3.8350    4.0085   36.5054 C   0  0  0  0  0  0  0  0  0  0  0  0
    2.5694    4.5508   37.0373 N   0  3  0  0  0  0  0  0  0  0  0  0
  1  2  1  1  0  0  0
  1  3  1  0  0  0  0
  1 10  1  0  0  0  0
  3  4  1  1  0  0  0
  3  5  1  0  0  0  0
  5  6  1  6  0  0  0
  5  7  1  0  0  0  0
  7  8  1  1  0  0  0
  7  9  1  0  0  0  0
  9 10  1  0  0  0  0
  9 11  1  6  0  0  0
 11 12  1  0  0  0  0
 13 14  1  1  0  0  0
 13 15  1  0  0  0  0
 13 22  1  0  0  0  0
 15 16  1  1  0  0  0
 15 17  1  0  0  0  0
 17 18  1  6  0  0  0
 17 19  1  0  0  0  0
 19  2  1  1  0  0  0
 19 20  1  0  0  0  0
 20 21  1  6  0  0  0
 20 22  1  0  0  0  0
 23 18  1  6  0  0  0
 23 24  1  0  0  0  0
 23 28  1  0  0  0  0
 24 25  1  6  0  0  0
 24 26  1  0  0  0  0
 26 27  1  0  0  0  0
 26 38  1  6  0  0  0
 27 28  1  0  0  0  0
 27 29  1  6  0  0  0
 29 30  1  0  0  0  0
 31 32  1  1  0  0  0
 31 33  1  0  0  0  0
 31 39  1  0  0  0  0
 33 34  1  1  0  0  0
 33 35  1  0  0  0  0
 35 36  1  1  0  0  0
 35 37  1  0  0  0  0
 37 38  1  1  0  0  0
 37 40  1  0  0  0  0
 39 40  1  0  0  0  0
 39 41  1  6  0  0  0
 41 42  1  0  0  0  0
M  CHG  5   4   1  14   1  21   1  36   1  42   1
M  END
>  <CHROM.1>
-147.27460383,68.55664082,59.52719189,66.31760078,-55.09904125,-52.16927928
-178.61001668,174.55648063,77.24345978,41.59829614,54.86126965,80.00149410
45.04477695,-148.02193536,47.41540635,-56.45185515,75.66146554,-176.51033352
-152.96884948,-131.62118602,154.00740170,169.22174354,3.65898376,-0.74160004
40.57416097,-2.74338802,1.41808895,-0.02009958

>  <Name>
1pbr

>  <RI>
0

>  <Rbt.Current_Directory>
/home/itssahil/PROJECTS/Mol_Feturizer/New_Systems/rnas/1pbr

>  <Rbt.Executable>
rbdock ($Id: //depot/dev/client3/rdock/2013.1/src/exe/rbdock.cxx#4 $)

>  <Rbt.Library>
libRbt.so (2013.1, Build901 2013/11/27)

>  <Rbt.Parameter_File>
/export/apps/rDock/src/rDock_2013.1_src/data/scripts/dock_solv.prm

>  <Rbt.Receptor>
prm/pocket_docking_4.prm

>  <SCORE>
-40.0241

>  <SCORE.INTER>
-41.9623

>  <SCORE.INTER.CONST>
1

>  <SCORE.INTER.POLAR>
-6.53027

>  <SCORE.INTER.ROT>
9

>  <SCORE.INTER.SOLV>
25.1481

>  <SCORE.INTER.VDW>
-24.19

>  <SCORE.INTER.norm>
-0.999103

>  <SCORE.INTRA>
1.93824

>  <SCORE.INTRA.DIHEDRAL>
-3.06103

>  <SCORE.INTRA.DIHEDRAL.0>
29.7866

>  <SCORE.INTRA.POLAR>
0.167785

>  <SCORE.INTRA.POLAR.0>
-0.984091

>  <SCORE.INTRA.REPUL>
-0.266035

>  <SCORE.INTRA.REPUL.0>
0.274115

>  <SCORE.INTRA.SOLV>
-0.0805663

>  <SCORE.INTRA.SOLV.lig_0>
-152.978

>  <SCORE.INTRA.VDW>
4.26875

>  <SCORE.INTRA.VDW.0>
-6.10719

>  <SCORE.INTRA.norm>
0.0461486

>  <SCORE.RESTR>
0

>  <SCORE.RESTR.CAVITY>
0

>  <SCORE.RESTR.norm>
0

>  <SCORE.SYSTEM>
0

>  <SCORE.SYSTEM.CONST>
0

>  <SCORE.SYSTEM.DIHEDRAL>
0

>  <SCORE.SYSTEM.SOLV>
0

>  <SCORE.SYSTEM.norm>
0

>  <SCORE.heavy>
42

>  <SCORE.norm>
-0.952955

>  <RMSD>
5.784

$$$$
1pbr
 OpenBabel11021811403D
libRbt.so/2013.1/901 2013/11/27
 42 45  0  0  0  0  0  0  0  0999 V2000
    1.9644   -4.0057   42.8305 C   0  0  2  0  0  0  0  0  0  0  0  0
    2.0300   -4.1265   44.2742 O   0  0  0  0  0  0  0  0  0  0  0  0
    0.4718   -3.8746   42.3474 C   0  0  2  0  0  0  0  0  0  0  0  0
   -0.3754   -2.9961   43.1953 N   0  3  0  0  0  0  0  0  0  0  0  0
   -0.2332   -5.2435   42.3058 C   0  0  1  0  0  0  0  0  0  0  0  0
   -1.4816   -5.1492   41.6233 O   0  0  0  0  0  0  0  0  0  0  0  0
    0.6472   -6.2969   41.6166 C   0  0  2  0  0  0  0  0  0  0  0  0
   -0.0379   -7.5436   41.5486 O   0  0  0  0  0  0  0  0  0  0  0  0
    2.0167   -6.4120   42.3221 C   0  0  2  0  0  0  0  0  0  0  0  0
    2.6564   -5.1232   42.2079 O   0  0  0  0  0  0  0  0  0  0  0  0
    2.9508   -7.4557   41.7121 C   0  0  0  0  0  0  0  0  0  0  0  0
    2.4213   -8.7671   41.8550 O   0  0  0  0  0  0  0  0  0  0  0  0
    4.8241   -2.5740   47.1008 C   0  0  1  0  0  0  0  0  0  0  0  0
    6.0068   -2.2434   47.9169 N   0  3  0  0  0  0  0  0  0  0  0  0
    4.9536   -2.0554   45.6366 C   0  0  2  0  0  0  0  0  0  0  0  0
    5.1251   -0.6402   45.6231 O   0  0  0  0  0  0  0  0  0  0  0  0
    3.6886   -2.4051   44.7992 C   0  0  1  0  0  0  0  0  0  0  0  0
    3.9382   -2.0490   43.4071 O   0  0  0  0  0  0  0  0  0  0  0  0
    3.3245   -3.9231   44.8900 C   0  0  1  0  0  0  0  0  0  0  0  0
    3.2518   -4.4425   46.3617 C   0  0  1  0  0  0  0  0  0  0  0  0
    3.0043   -5.9004   46.4128 N   0  3  0  0  0  0  0  0  0  0  0  0
    4.5595   -4.1079   47.1248 C   0  0  0  0  0  0  0  0  0  0  0  0
    4.0961   -0.6441   43.0286 C   0  0  1  0  0  0  0  0  0  0  0  0
    5.1232   -0.5539   41.8845 C   0  0  2  0  0  0  0  0  0  0  0  0
    5.7485    0.7261   41.8575 O   0  0  0  0  0  0  0  0  0  0  0  0
    4.1762   -0.7642   40.6934 C   0  0  1  0  0  0  0  0  0  0  0  0
    2.9826    0.0973   41.0712 C   0  0  2  0  0  0  0  0  0  0  0  0
    2.8726   -0.1372   42.4668 O   0  0  0  0  0  0  0  0  0  0  0  0
    1.6685   -0.2611   40.3652 C   0  0  0  0  0  0  0  0  0  0  0  0
    1.6334   -1.6511   40.0771 O   0  0  0  0  0  0  0  0  0  0  0  0
    4.5386   -2.4014   35.5805 C   0  0  1  0  0  0  0  0  0  0  0  0
    5.7550   -1.8460   35.0838 O   0  0  0  0  0  0  0  0  0  0  0  0
    4.8439   -3.2806   36.8252 C   0  0  2  0  0  0  0  0  0  0  0  0
    3.7143   -4.1119   37.0813 O   0  0  0  0  0  0  0  0  0  0  0  0
    5.1962   -2.4946   38.1306 C   0  0  1  0  0  0  0  0  0  0  0  0
    6.6359   -2.1546   38.1535 N   0  3  0  0  0  0  0  0  0  0  0  0
    4.2834   -1.2549   38.3228 C   0  0  1  0  0  0  0  0  0  0  0  0
    4.7017   -0.3744   39.3947 O   0  0  0  0  0  0  0  0  0  0  0  0
    3.5508   -1.2719   35.9668 C   0  0  1  0  0  0  0  0  0  0  0  0
    4.1455   -0.5202   37.0601 O   0  0  0  0  0  0  0  0  0  0  0  0
    3.1791   -0.3420   34.7967 C   0  0  0  0  0  0  0  0  0  0  0  0
    2.0917    0.5961   35.1373 N   0  3  0  0  0  0  0  0  0  0  0  0
  1  2  1  1  0  0  0
  1  3  1  0  0  0  0
  1 10  1  0  0  0  0
  3  4  1  1  0  0  0
  3  5  1  0  0  0  0
  5  6  1  6  0  0  0
  5  7  1  0  0  0  0
  7  8  1  1  0  0  0
  7  9  1  0  0  0  0
  9 10  1  0  0  0  0
  9 11  1  6  0  0  0
 11 12  1  0  0  0  0
 13 14  1  1  0  0  0
 13 15  1  0  0  0  0
 13 22  1  0  0  0  0
 15 16  1  1  0  0  0
 15 17  1  0  0  0  0
 17 18  1  6  0  0  0
 17 19  1  0  0  0  0
 19  2  1  1  0  0  0
 19 20  1  0  0  0  0
 20 21  1  6  0  0  0
 20 22  1  0  0  0  0
 23 18  1  6  0  0  0
 23 24  1  0  0  0  0
 23 28  1  0  0  0  0
 24 25  1  6  0  0  0
 24 26  1  0  0  0  0
 26 27  1  0  0  0  0
 26 38  1  6  0  0  0
 27 28  1  0  0  0  0
 27 29  1  6  0  0  0
 29 30  1  0  0  0  0
 31 32  1  1  0  0  0
 31 33  1  0  0  0  0
 31 39  1  0  0  0  0
 33 34  1  1  0  0  0
 33 35  1  0  0  0  0
 35 36  1  6  0  0  0
 35 37  1  0  0  0  0
 37 38  1  1  0  0  0
 37 40  1  0  0  0  0
 39 40  1  0  0  0  0
 39 41  1  6  0  0  0
 41 42  1  0  0  0  0
M  CHG  5   4   1  14   1  21   1  36   1  42   1
M  END
>  <CHROM.1>
-165.13278865,71.16441511,-63.96655401,67.75157044,58.77648231,-64.61528574
-179.51734177,-61.39509819,157.15441553,-66.76565561,145.64985590,-155.25473336
55.47664869,143.29655752,30.52143328,62.42232950,65.35263497,-58.83046277
-2.19777686,-86.50232713,171.50567745,-58.55268181,3.24475309,-2.86319586
41.41010712,1.76435555,0.95858119,1.74897590

>  <Name>
1pbr

>  <RI>
0

>  <Rbt.Current_Directory>
/home/itssahil/PROJECTS/Mol_Feturizer/New_Systems/rnas/1pbr

>  <Rbt.Executable>
rbdock ($Id: //depot/dev/client3/rdock/2013.1/src/exe/rbdock.cxx#4 $)

>  <Rbt.Library>
libRbt.so (2013.1, Build901 2013/11/27)

>  <Rbt.Parameter_File>
/export/apps/rDock/src/rDock_2013.1_src/data/scripts/dock_solv.prm

>  <Rbt.Receptor>
prm/pocket_docking_5.prm

>  <SCORE>
-37.1538

>  <SCORE.INTER>
-37.2096

>  <SCORE.INTER.CONST>
1

>  <SCORE.INTER.POLAR>
-5.87134

>  <SCORE.INTER.ROT>
9

>  <SCORE.INTER.SOLV>
17.8494

>  <SCORE.INTER.VDW>
-20.7851

>  <SCORE.INTER.norm>
-0.885942

>  <SCORE.INTRA>
0.0557185

>  <SCORE.INTRA.DIHEDRAL>
-4.42161

>  <SCORE.INTRA.DIHEDRAL.0>
29.7866

>  <SCORE.INTRA.POLAR>
0.982251

>  <SCORE.INTRA.POLAR.0>
-0.984091

>  <SCORE.INTRA.REPUL>
-0.223671

>  <SCORE.INTRA.REPUL.0>
0.274115

>  <SCORE.INTRA.SOLV>
-3.42153

>  <SCORE.INTRA.SOLV.lig_0>
-152.978

>  <SCORE.INTRA.VDW>
1.75599

>  <SCORE.INTRA.VDW.0>
-6.10719

>  <SCORE.INTRA.norm>
0.00132663

>  <SCORE.RESTR>
0

>  <SCORE.RESTR.CAVITY>
0

>  <SCORE.RESTR.norm>
0

>  <SCORE.SYSTEM>
0

>  <SCORE.SYSTEM.CONST>
0

>  <SCORE.SYSTEM.DIHEDRAL>
0

>  <SCORE.SYSTEM.SOLV>
0

>  <SCORE.SYSTEM.norm>
0

>  <SCORE.heavy>
42

>  <SCORE.norm>
-0.884615

>  <RMSD>
5.784

$$$$
1pbr
 OpenBabel11021811403D
libRbt.so/2013.1/901 2013/11/27
 42 45  0  0  0  0  0  0  0  0999 V2000
    2.5315   -4.8759   44.1092 C   0  0  2  0  0  0  0  0  0  0  0  0
    3.3133   -3.8940   43.3827 O   0  0  0  0  0  0  0  0  0  0  0  0
    2.0140   -6.0053   43.1424 C   0  0  2  0  0  0  0  0  0  0  0  0
    3.0097   -6.4600   42.1373 N   0  3  0  0  0  0  0  0  0  0  0  0
    0.7766   -5.5482   42.3471 C   0  0  1  0  0  0  0  0  0  0  0  0
    0.1659   -6.6521   41.6825 O   0  0  0  0  0  0  0  0  0  0  0  0
   -0.2521   -4.8733   43.2669 C   0  0  2  0  0  0  0  0  0  0  0  0
   -1.4066   -4.4971   42.5227 O   0  0  0  0  0  0  0  0  0  0  0  0
    0.3830   -3.6813   44.0167 C   0  0  2  0  0  0  0  0  0  0  0  0
    1.4512   -4.2168   44.8262 O   0  0  0  0  0  0  0  0  0  0  0  0
   -0.5791   -2.9372   44.9411 C   0  0  0  0  0  0  0  0  0  0  0  0
   -1.6427   -2.3440   44.2080 O   0  0  0  0  0  0  0  0  0  0  0  0
    4.8761   -2.1177   46.9338 C   0  0  1  0  0  0  0  0  0  0  0  0
    5.6092   -1.3303   47.9420 N   0  3  0  0  0  0  0  0  0  0  0  0
    3.9202   -1.2347   46.0758 C   0  0  2  0  0  0  0  0  0  0  0  0
    2.9682   -0.5773   46.9089 O   0  0  0  0  0  0  0  0  0  0  0  0
    3.1488   -2.0898   45.0283 C   0  0  1  0  0  0  0  0  0  0  0  0
    2.4060   -1.1927   44.1504 O   0  0  0  0  0  0  0  0  0  0  0  0
    4.1097   -2.9774   44.1716 C   0  0  1  0  0  0  0  0  0  0  0  0
    5.0990   -3.8159   45.0427 C   0  0  1  0  0  0  0  0  0  0  0  0
    6.0592   -4.5678   44.2048 N   0  3  0  0  0  0  0  0  0  0  0  0
    5.8710   -2.9004   46.0277 C   0  0  0  0  0  0  0  0  0  0  0  0
    3.0109    0.0645   43.7085 C   0  0  1  0  0  0  0  0  0  0  0  0
    4.1166   -0.2532   42.6845 C   0  0  2  0  0  0  0  0  0  0  0  0
    5.0964    0.7808   42.6515 O   0  0  0  0  0  0  0  0  0  0  0  0
    3.2616   -0.2856   41.4087 C   0  0  1  0  0  0  0  0  0  0  0  0
    2.3518    0.9172   41.5967 C   0  0  2  0  0  0  0  0  0  0  0  0
    2.0513    0.8529   42.9824 O   0  0  0  0  0  0  0  0  0  0  0  0
    1.0600    0.8949   40.7694 C   0  0  0  0  0  0  0  0  0  0  0  0
    1.3690    0.8846   39.3835 O   0  0  0  0  0  0  0  0  0  0  0  0
    6.4953   -3.2450   38.4044 C   0  0  1  0  0  0  0  0  0  0  0  0
    7.6538   -2.4203   38.2926 O   0  0  0  0  0  0  0  0  0  0  0  0
    6.1289   -3.4183   39.9048 C   0  0  2  0  0  0  0  0  0  0  0  0
    5.2284   -4.5167   40.0278 O   0  0  0  0  0  0  0  0  0  0  0  0
    5.4896   -2.1649   40.5875 C   0  0  1  0  0  0  0  0  0  0  0  0
    6.5453   -1.2444   41.0643 N   0  3  0  0  0  0  0  0  0  0  0  0
    4.4572   -1.4671   39.6633 C   0  0  1  0  0  0  0  0  0  0  0  0
    3.9945   -0.1858   40.1567 O   0  0  0  0  0  0  0  0  0  0  0  0
    5.3055   -2.6054   37.6454 C   0  0  1  0  0  0  0  0  0  0  0  0
    4.9889   -1.3469   38.3009 O   0  0  0  0  0  0  0  0  0  0  0  0
    5.5668   -2.3935   36.1424 C   0  0  0  0  0  0  0  0  0  0  0  0
    4.5906   -1.4798   35.5174 N   0  3  0  0  0  0  0  0  0  0  0  0
  1  2  1  6  0  0  0
  1  3  1  0  0  0  0
  1 10  1  0  0  0  0
  3  4  1  6  0  0  0
  3  5  1  0  0  0  0
  5  6  1  1  0  0  0
  5  7  1  0  0  0  0
  7  8  1  6  0  0  0
  7  9  1  0  0  0  0
  9 10  1  0  0  0  0
  9 11  1  1  0  0  0
 11 12  1  0  0  0  0
 13 14  1  1  0  0  0
 13 15  1  0  0  0  0
 13 22  1  0  0  0  0
 15 16  1  1  0  0  0
 15 17  1  0  0  0  0
 17 18  1  6  0  0  0
 17 19  1  0  0  0  0
 19  2  1  1  0  0  0
 19 20  1  0  0  0  0
 20 21  1  6  0  0  0
 20 22  1  0  0  0  0
 23 18  1  6  0  0  0
 23 24  1  0  0  0  0
 23 28  1  0  0  0  0
 24 25  1  6  0  0  0
 24 26  1  0  0  0  0
 26 27  1  0  0  0  0
 26 38  1  6  0  0  0
 27 28  1  0  0  0  0
 27 29  1  6  0  0  0
 29 30  1  0  0  0  0
 31 32  1  1  0  0  0
 31 33  1  0  0  0  0
 31 39  1  0  0  0  0
 33 34  1  6  0  0  0
 33 35  1  0  0  0  0
 35 36  1  6  0  0  0
 35 37  1  0  0  0  0
 37 38  1  1  0  0  0
 37 40  1  0  0  0  0
 39 40  1  0  0  0  0
 39 41  1  6  0  0  0
 41 42  1  0  0  0  0
M  CHG  5   4   1  14   1  21   1  36   1  42   1
M  END
>  <CHROM.1>
-165.97908567,-64.33122610,-58.19388784,61.65607483,175.88208334,-63.08502255
-64.09254581,176.31816057,-62.21583278,39.52423586,72.09016935,-57.21219519
-45.67734061,86.76585830,-61.69801606,-179.22533002,161.65450259,-177.27523916
56.80787755,-63.95598035,-164.94210434,156.26331232,3.38908976,-2.40663787
42.30507127,2.13839634,0.64018096,1.39499888

>  <Name>
1pbr

>  <RI>
0

>  <Rbt.Current_Directory>
/home/itssahil/PROJECTS/Mol_Feturizer/New_Systems/rnas/1pbr

>  <Rbt.Executable>
rbdock ($Id: //depot/dev/client3/rdock/2013.1/src/exe/rbdock.cxx#4 $)

>  <Rbt.Library>
libRbt.so (2013.1, Build901 2013/11/27)

>  <Rbt.Parameter_File>
/export/apps/rDock/src/rDock_2013.1_src/data/scripts/dock_solv.prm

>  <Rbt.Receptor>
prm/pocket_docking_6.prm

>  <SCORE>
-31.3998

>  <SCORE.INTER>
-22.8338

>  <SCORE.INTER.CONST>
1

>  <SCORE.INTER.POLAR>
-3.65406

>  <SCORE.INTER.ROT>
9

>  <SCORE.INTER.SOLV>
13.3158

>  <SCORE.INTER.VDW>
-17.0809

>  <SCORE.INTER.norm>
-0.543662

>  <SCORE.INTRA>
-8.56595

>  <SCORE.INTRA.DIHEDRAL>
-17.3556

>  <SCORE.INTRA.DIHEDRAL.0>
29.7866

>  <SCORE.INTRA.POLAR>
-0.458294

>  <SCORE.INTRA.POLAR.0>
-0.984091

>  <SCORE.INTRA.REPUL>
-0.274115

>  <SCORE.INTRA.REPUL.0>
0.274115

>  <SCORE.INTRA.SOLV>
3.23039

>  <SCORE.INTRA.SOLV.lig_0>
-152.978

>  <SCORE.INTRA.VDW>
1.42543

>  <SCORE.INTRA.VDW.0>
-6.10719

>  <SCORE.INTRA.norm>
-0.203951

>  <SCORE.RESTR>
0

>  <SCORE.RESTR.CAVITY>
0

>  <SCORE.RESTR.norm>
0

>  <SCORE.SYSTEM>
0

>  <SCORE.SYSTEM.CONST>
0

>  <SCORE.SYSTEM.DIHEDRAL>
0

>  <SCORE.SYSTEM.SOLV>
0

>  <SCORE.SYSTEM.norm>
0

>  <SCORE.heavy>
42

>  <SCORE.norm>
-0.747613

>  <RMSD>
5.788

$$$$
1pbr
 OpenBabel11021811403D
libRbt.so/2013.1/901 2013/11/27
 42 45  0  0  0  0  0  0  0  0999 V2000
    6.0886   -1.0276   43.3342 C   0  0  2  0  0  0  0  0  0  0  0  0
    5.2829   -1.2459   44.5201 O   0  0  0  0  0  0  0  0  0  0  0  0
    5.9915   -2.2585   42.3577 C   0  0  2  0  0  0  0  0  0  0  0  0
    4.6268   -2.8304   42.2209 N   0  3  0  0  0  0  0  0  0  0  0  0
    6.9005   -3.4161   42.8120 C   0  0  1  0  0  0  0  0  0  0  0  0
    7.0062   -4.4069   41.7920 O   0  0  0  0  0  0  0  0  0  0  0  0
    8.3031   -2.9062   43.1759 C   0  0  2  0  0  0  0  0  0  0  0  0
    9.1412   -3.9948   43.5513 O   0  0  0  0  0  0  0  0  0  0  0  0
    8.2231   -1.8169   44.2684 C   0  0  2  0  0  0  0  0  0  0  0  0
    7.4591   -0.7243   43.7154 O   0  0  0  0  0  0  0  0  0  0  0  0
    9.5794   -1.2671   44.7065 C   0  0  0  0  0  0  0  0  0  0  0  0
    9.5262   -0.7626   46.0344 O   0  0  0  0  0  0  0  0  0  0  0  0
    1.4060    0.0645   45.7287 C   0  0  1  0  0  0  0  0  0  0  0  0
    0.1979    0.8262   46.0949 N   0  3  0  0  0  0  0  0  0  0  0  0
    1.7372    0.1770   44.2097 C   0  0  2  0  0  0  0  0  0  0  0  0
    0.6488   -0.3065   43.4260 O   0  0  0  0  0  0  0  0  0  0  0  0
    3.0081   -0.6451   43.8458 C   0  0  1  0  0  0  0  0  0  0  0  0
    3.3628   -0.3653   42.4591 O   0  0  0  0  0  0  0  0  0  0  0  0
    4.2187   -0.2969   44.7723 C   0  0  1  0  0  0  0  0  0  0  0  0
    3.8582   -0.3604   46.2911 C   0  0  1  0  0  0  0  0  0  0  0  0
    4.9926    0.0696   47.1383 N   0  3  0  0  0  0  0  0  0  0  0  0
    2.6170    0.5178   46.5956 C   0  0  0  0  0  0  0  0  0  0  0  0
    3.6227    1.0108   42.0341 C   0  0  1  0  0  0  0  0  0  0  0  0
    4.5997    0.9832   40.8438 C   0  0  2  0  0  0  0  0  0  0  0  0
    5.3304    2.2031   40.7528 O   0  0  0  0  0  0  0  0  0  0  0  0
    3.5840    0.8268   39.7020 C   0  0  1  0  0  0  0  0  0  0  0  0
    2.4873    1.7977   40.1073 C   0  0  2  0  0  0  0  0  0  0  0  0
    2.4225    1.6081   41.5124 O   0  0  0  0  0  0  0  0  0  0  0  0
    1.1161    1.5375   39.4703 C   0  0  0  0  0  0  0  0  0  0  0  0
    0.8332    0.1460   39.4739 O   0  0  0  0  0  0  0  0  0  0  0  0
    6.1007   -1.8081   35.9366 C   0  0  1  0  0  0  0  0  0  0  0  0
    5.1639   -1.7563   34.8621 O   0  0  0  0  0  0  0  0  0  0  0  0
    6.7967   -0.4259   36.0806 C   0  0  2  0  0  0  0  0  0  0  0  0
    7.9658   -0.5879   36.8803 O   0  0  0  0  0  0  0  0  0  0  0  0
    5.9152    0.7066   36.7020 C   0  0  1  0  0  0  0  0  0  0  0  0
    5.0933    1.3519   35.6545 N   0  3  0  0  0  0  0  0  0  0  0  0
    5.0694    0.1911   37.8960 C   0  0  1  0  0  0  0  0  0  0  0  0
    4.0802    1.1373   38.3708 O   0  0  0  0  0  0  0  0  0  0  0  0
    5.3811   -2.1722   37.2596 C   0  0  1  0  0  0  0  0  0  0  0  0
    4.4506   -1.0979   37.5661 O   0  0  0  0  0  0  0  0  0  0  0  0
    4.6596   -3.5324   37.2224 C   0  0  0  0  0  0  0  0  0  0  0  0
    5.5885   -4.6737   37.3363 N   0  3  0  0  0  0  0  0  0  0  0  0
  1  2  1  1  0  0  0
  1  3  1  0  0  0  0
  1 10  1  0  0  0  0
  3  4  1  1  0  0  0
  3  5  1  0  0  0  0
  5  6  1  6  0  0  0
  5  7  1  0  0  0  0
  7  8  1  1  0  0  0
  7  9  1  0  0  0  0
  9 10  1  0  0  0  0
  9 11  1  6  0  0  0
 11 12  1  0  0  0  0
 13 14  1  6  0  0  0
 13 15  1  0  0  0  0
 13 22  1  0  0  0  0
 15 16  1  6  0  0  0
 15 17  1  0  0  0  0
 17 18  1  6  0  0  0
 17 19  1  0  0  0  0
 19  2  1  1  0  0  0
 19 20  1  0  0  0  0
 20 21  1  1  0  0  0
 20 22  1  0  0  0  0
 23 18  1  6  0  0  0
 23 24  1  0  0  0  0
 23 28  1  0  0  0  0
 24 25  1  6  0  0  0
 24 26  1  0  0  0  0
 26 27  1  0  0  0  0
 26 38  1  6  0  0  0
 27 28  1  0  0  0  0
 27 29  1  6  0  0  0
 29 30  1  0  0  0  0
 31 32  1  6  0  0  0
 31 33  1  0  0  0  0
 31 39  1  0  0  0  0
 33 34  1  1  0  0  0
 33 35  1  0  0  0  0
 35 36  1  6  0  0  0
 35 37  1  0  0  0  0
 37 38  1  6  0  0  0
 37 40  1  0  0  0  0
 39 40  1  0  0  0  0
 39 41  1  6  0  0  0
 41 42  1  0  0  0  0
M  CHG  5   4   1  14   1  21   1  36   1  42   1
M  END
>  <CHROM.1>
-119.81309732,78.70884263,46.89411618,61.23993620,62.76049634,-154.03205765
-65.09013755,-59.64000382,65.93160765,57.30785633,152.16945527,-178.22711828
62.92130389,67.90478276,42.37834407,59.61276515,172.93127375,-62.83430541
145.81823687,-162.61548640,76.22243135,-144.93557708,4.86995451,-0.72222209
41.38355413,-1.68242989,0.50311394,-1.56653726

>  <Name>
1pbr

>  <RI>
0

>  <Rbt.Current_Directory>
/home/itssahil/PROJECTS/Mol_Feturizer/New_Systems/rnas/1pbr

>  <Rbt.Executable>
rbdock ($Id: //depot/dev/client3/rdock/2013.1/src/exe/rbdock.cxx#4 $)

>  <Rbt.Library>
libRbt.so (2013.1, Build901 2013/11/27)

>  <Rbt.Parameter_File>
/export/apps/rDock/src/rDock_2013.1_src/data/scripts/dock_solv.prm

>  <Rbt.Receptor>
prm/pocket_docking_8.prm

>  <SCORE>
-49.7842

>  <SCORE.INTER>
-44.3628

>  <SCORE.INTER.CONST>
1

>  <SCORE.INTER.POLAR>
-5.81728

>  <SCORE.INTER.ROT>
9

>  <SCORE.INTER.SOLV>
29.3752

>  <SCORE.INTER.VDW>
-29.576

>  <SCORE.INTER.norm>
-1.05626

>  <SCORE.INTRA>
-5.42138

>  <SCORE.INTRA.DIHEDRAL>
-5.42744

>  <SCORE.INTRA.DIHEDRAL.0>
29.7866

>  <SCORE.INTRA.POLAR>
-0.266013

>  <SCORE.INTRA.POLAR.0>
-0.984091

>  <SCORE.INTRA.REPUL>
-0.274115

>  <SCORE.INTRA.REPUL.0>
0.274115

>  <SCORE.INTRA.SOLV>
-1.6594

>  <SCORE.INTRA.SOLV.lig_0>
-152.978

>  <SCORE.INTRA.VDW>
0.397055

>  <SCORE.INTRA.VDW.0>
-6.10719

>  <SCORE.INTRA.norm>
-0.129081

>  <SCORE.RESTR>
0

>  <SCORE.RESTR.CAVITY>
0

>  <SCORE.RESTR.norm>
0

>  <SCORE.SYSTEM>
0

>  <SCORE.SYSTEM.CONST>
0

>  <SCORE.SYSTEM.DIHEDRAL>
0

>  <SCORE.SYSTEM.SOLV>
0

>  <SCORE.SYSTEM.norm>
0

>  <SCORE.heavy>
42

>  <SCORE.norm>
-1.18534

>  <RMSD>
5.814

$$$$
1pbr
 OpenBabel11021811403D
libRbt.so/2013.1/901 2013/11/27
 42 45  0  0  0  0  0  0  0  0999 V2000
    5.1163   -2.1287   43.0455 C   0  0  2  0  0  0  0  0  0  0  0  0
    4.9508   -2.0515   44.4842 O   0  0  0  0  0  0  0  0  0  0  0  0
    5.5017   -3.5899   42.6045 C   0  0  2  0  0  0  0  0  0  0  0  0
    4.7603   -4.6639   43.3152 N   0  3  0  0  0  0  0  0  0  0  0  0
    6.9981   -3.8753   42.8330 C   0  0  1  0  0  0  0  0  0  0  0  0
    7.3852   -5.0893   42.1930 O   0  0  0  0  0  0  0  0  0  0  0  0
    7.8663   -2.7219   42.3080 C   0  0  2  0  0  0  0  0  0  0  0  0
    9.2466   -3.0226   42.4880 O   0  0  0  0  0  0  0  0  0  0  0  0
    7.4604   -1.3862   42.9697 C   0  0  2  0  0  0  0  0  0  0  0  0
    6.0861   -1.1385   42.6045 O   0  0  0  0  0  0  0  0  0  0  0  0
    8.2899   -0.1852   42.5187 C   0  0  0  0  0  0  0  0  0  0  0  0
    8.4843   -0.1930   41.1106 O   0  0  0  0  0  0  0  0  0  0  0  0
    2.0116    0.2903   46.5052 C   0  0  1  0  0  0  0  0  0  0  0  0
    1.2187    1.3509   47.1536 N   0  3  0  0  0  0  0  0  0  0  0  0
    2.1317    0.5008   44.9654 C   0  0  2  0  0  0  0  0  0  0  0  0
    0.8393    0.5243   44.3640 O   0  0  0  0  0  0  0  0  0  0  0  0
    2.9615   -0.6374   44.3023 C   0  0  1  0  0  0  0  0  0  0  0  0
    3.1821   -0.2978   42.9013 O   0  0  0  0  0  0  0  0  0  0  0  0
    4.3402   -0.8481   45.0093 C   0  0  1  0  0  0  0  0  0  0  0  0
    4.2103   -1.0030   46.5584 C   0  0  1  0  0  0  0  0  0  0  0  0
    5.5357   -1.1008   47.2089 N   0  3  0  0  0  0  0  0  0  0  0  0
    3.4189    0.1859   47.1623 C   0  0  0  0  0  0  0  0  0  0  0  0
    3.4599    1.0875   42.5196 C   0  0  1  0  0  0  0  0  0  0  0  0
    4.4182    1.0842   41.3139 C   0  0  2  0  0  0  0  0  0  0  0  0
    5.1689    2.2937   41.2532 O   0  0  0  0  0  0  0  0  0  0  0  0
    3.3828    0.9847   40.1834 C   0  0  1  0  0  0  0  0  0  0  0  0
    2.3097    1.9597   40.6388 C   0  0  2  0  0  0  0  0  0  0  0  0
    2.2627    1.7229   42.0375 O   0  0  0  0  0  0  0  0  0  0  0  0
    0.9246    1.7453   40.0148 C   0  0  0  0  0  0  0  0  0  0  0  0
    0.9818    1.9669   38.6135 O   0  0  0  0  0  0  0  0  0  0  0  0
    5.5400   -1.6529   36.2173 C   0  0  1  0  0  0  0  0  0  0  0  0
    4.5520   -1.4993   35.1999 O   0  0  0  0  0  0  0  0  0  0  0  0
    6.3370   -0.3270   36.3660 C   0  0  2  0  0  0  0  0  0  0  0  0
    7.5338   -0.5963   37.0925 O   0  0  0  0  0  0  0  0  0  0  0  0
    5.5714    0.8393   37.0727 C   0  0  1  0  0  0  0  0  0  0  0  0
    4.7405    1.5760   36.0950 N   0  3  0  0  0  0  0  0  0  0  0  0
    4.7581    0.3393   38.2956 C   0  0  1  0  0  0  0  0  0  0  0  0
    3.8643    1.3324   38.8560 O   0  0  0  0  0  0  0  0  0  0  0  0
    4.8699   -2.0152   37.5665 C   0  0  1  0  0  0  0  0  0  0  0  0
    4.0343   -0.8923   37.9599 O   0  0  0  0  0  0  0  0  0  0  0  0
    4.0547   -3.3213   37.5265 C   0  0  0  0  0  0  0  0  0  0  0  0
    3.4083   -3.6296   38.8171 N   0  3  0  0  0  0  0  0  0  0  0  0
  1  2  1  1  0  0  0
  1  3  1  0  0  0  0
  1 10  1  0  0  0  0
  3  4  1  1  0  0  0
  3  5  1  0  0  0  0
  5  6  1  6  0  0  0
  5  7  1  0  0  0  0
  7  8  1  1  0  0  0
  7  9  1  0  0  0  0
  9 10  1  0  0  0  0
  9 11  1  6  0  0  0
 11 12  1  0  0  0  0
 13 14  1  1  0  0  0
 13 15  1  0  0  0  0
 13 22  1  0  0  0  0
 15 16  1  6  0  0  0
 15 17  1  0  0  0  0
 17 18  1  6  0  0  0
 17 19  1  0  0  0  0
 19  2  1  6  0  0  0
 19 20  1  0  0  0  0
 20 21  1  1  0  0  0
 20 22  1  0  0  0  0
 23 18  1  6  0  0  0
 23 24  1  0  0  0  0
 23 28  1  0  0  0  0
 24 25  1  6  0  0  0
 24 26  1  0  0  0  0
 26 27  1  0  0  0  0
 26 38  1  6  0  0  0
 27 28  1  0  0  0  0
 27 29  1  6  0  0  0
 29 30  1  0  0  0  0
 31 32  1  6  0  0  0
 31 33  1  0  0  0  0
 31 39  1  0  0  0  0
 33 34  1  1  0  0  0
 33 35  1  0  0  0  0
 35 36  1  6  0  0  0
 35 37  1  0  0  0  0
 37 38  1  6  0  0  0
 37 40  1  0  0  0  0
 39 40  1  0  0  0  0
 39 41  1  6  0  0  0
 41 42  1  0  0  0  0
M  CHG  5   4   1  14   1  21   1  36   1  42   1
M  END
>  <CHROM.1>
-168.01992127,54.94753620,-57.99510554,-70.22195040,-61.00474782,43.76651192
-174.87888323,-69.04929997,165.79313557,38.82855283,146.67726806,159.41591418
65.65878820,71.92409725,-64.17502411,41.98273098,54.82967071,-61.71892764
-68.50816273,-164.70184510,-178.98339940,-50.69260965,4.62902473,-0.67600157
41.46004098,-1.77391296,0.69683584,-1.43605246

>  <Name>
1pbr

>  <RI>
0

>  <Rbt.Current_Directory>
/home/itssahil/PROJECTS/Mol_Feturizer/New_Systems/rnas/1pbr

>  <Rbt.Executable>
rbdock ($Id: //depot/dev/client3/rdock/2013.1/src/exe/rbdock.cxx#4 $)

>  <Rbt.Library>
libRbt.so (2013.1, Build901 2013/11/27)

>  <Rbt.Parameter_File>
/export/apps/rDock/src/rDock_2013.1_src/data/scripts/dock_solv.prm

>  <Rbt.Receptor>
prm/pocket_docking_5.prm

>  <SCORE>
-37.7881

>  <SCORE.INTER>
-26.558

>  <SCORE.INTER.CONST>
1

>  <SCORE.INTER.POLAR>
-1.85319

>  <SCORE.INTER.ROT>
9

>  <SCORE.INTER.SOLV>
21.156

>  <SCORE.INTER.VDW>
-28.18

>  <SCORE.INTER.norm>
-0.632333

>  <SCORE.INTRA>
-11.3924

>  <SCORE.INTRA.DIHEDRAL>
-13.8579

>  <SCORE.INTRA.DIHEDRAL.0>
29.7866

>  <SCORE.INTRA.POLAR>
-0.790425

>  <SCORE.INTRA.POLAR.0>
-0.984091

>  <SCORE.INTRA.REPUL>
-0.274115

>  <SCORE.INTRA.REPUL.0>
0.274115

>  <SCORE.INTRA.SOLV>
-4.50158

>  <SCORE.INTRA.SOLV.lig_0>
-152.978

>  <SCORE.INTRA.VDW>
1.84536

>  <SCORE.INTRA.VDW.0>
-6.10719

>  <SCORE.INTRA.norm>
-0.271248

>  <SCORE.RESTR>
0.162304

>  <SCORE.RESTR.CAVITY>
0.162304

>  <SCORE.RESTR.norm>
0.00386437

>  <SCORE.SYSTEM>
0

>  <SCORE.SYSTEM.CONST>
0

>  <SCORE.SYSTEM.DIHEDRAL>
0

>  <SCORE.SYSTEM.SOLV>
0

>  <SCORE.SYSTEM.norm>
0

>  <SCORE.heavy>
42

>  <SCORE.norm>
-0.899717

>  <RMSD>
5.821

$$$$
1pbr
 OpenBabel11021811403D
libRbt.so/2013.1/901 2013/11/27
 42 45  0  0  0  0  0  0  0  0999 V2000
    5.3887   -1.5862   42.6810 C   0  0  2  0  0  0  0  0  0  0  0  0
    5.0273   -1.5899   44.0855 O   0  0  0  0  0  0  0  0  0  0  0  0
    5.9408   -2.9935   42.2419 C   0  0  2  0  0  0  0  0  0  0  0  0
    5.1960   -4.1503   42.8035 N   0  3  0  0  0  0  0  0  0  0  0  0
    7.4108   -3.1823   42.6617 C   0  0  1  0  0  0  0  0  0  0  0  0
    7.9721   -4.3337   42.0352 O   0  0  0  0  0  0  0  0  0  0  0  0
    8.2499   -1.9463   42.3042 C   0  0  2  0  0  0  0  0  0  0  0  0
    9.6129   -2.1563   42.6597 O   0  0  0  0  0  0  0  0  0  0  0  0
    7.6577   -0.6761   42.9543 C   0  0  2  0  0  0  0  0  0  0  0  0
    6.3295   -0.5096   42.4145 O   0  0  0  0  0  0  0  0  0  0  0  0
    8.4452    0.6011   42.6666 C   0  0  0  0  0  0  0  0  0  0  0  0
    9.7858    0.4944   43.1269 O   0  0  0  0  0  0  0  0  0  0  0  0
    1.5135    0.0757   45.8425 C   0  0  1  0  0  0  0  0  0  0  0  0
    0.4646    0.9448   46.4068 N   0  3  0  0  0  0  0  0  0  0  0  0
    1.6910    0.2844   44.3081 C   0  0  2  0  0  0  0  0  0  0  0  0
    0.4697    0.0132   43.6244 O   0  0  0  0  0  0  0  0  0  0  0  0
    2.7939   -0.6524   43.7340 C   0  0  1  0  0  0  0  0  0  0  0  0
    3.0313   -0.2934   42.3405 O   0  0  0  0  0  0  0  0  0  0  0  0
    4.1330   -0.5432   44.5341 C   0  0  1  0  0  0  0  0  0  0  0  0
    3.9331   -0.6998   46.0756 C   0  0  1  0  0  0  0  0  0  0  0  0
    5.1994   -0.4931   46.8126 N   0  3  0  0  0  0  0  0  0  0  0  0
    2.8606    0.2942   46.5916 C   0  0  0  0  0  0  0  0  0  0  0  0
    3.3850    1.0827   41.9899 C   0  0  1  0  0  0  0  0  0  0  0  0
    4.4468    1.0503   40.8748 C   0  0  2  0  0  0  0  0  0  0  0  0
    5.2371    2.2358   40.8857 O   0  0  0  0  0  0  0  0  0  0  0  0
    3.5143    0.9837   39.6559 C   0  0  1  0  0  0  0  0  0  0  0  0
    2.4354    1.9914   40.0167 C   0  0  2  0  0  0  0  0  0  0  0  0
    2.2560    1.7554   41.4048 O   0  0  0  0  0  0  0  0  0  0  0  0
    1.1058    1.8206   39.2705 C   0  0  0  0  0  0  0  0  0  0  0  0
    0.1865    2.8235   39.6771 O   0  0  0  0  0  0  0  0  0  0  0  0
    6.1445   -1.6937   36.0258 C   0  0  1  0  0  0  0  0  0  0  0  0
    5.2473   -1.6208   34.9192 O   0  0  0  0  0  0  0  0  0  0  0  0
    6.8731   -0.3306   36.1891 C   0  0  2  0  0  0  0  0  0  0  0  0
    8.0088   -0.5213   37.0296 O   0  0  0  0  0  0  0  0  0  0  0  0
    6.0023    0.8285   36.7756 C   0  0  1  0  0  0  0  0  0  0  0  0
    5.2355    1.4917   35.6980 N   0  3  0  0  0  0  0  0  0  0  0  0
    5.1017    0.3418   37.9412 C   0  0  1  0  0  0  0  0  0  0  0  0
    4.1233    1.3170   38.3781 O   0  0  0  0  0  0  0  0  0  0  0  0
    5.3696   -2.0320   37.3241 C   0  0  1  0  0  0  0  0  0  0  0  0
    4.4592   -0.9311   37.5945 O   0  0  0  0  0  0  0  0  0  0  0  0
    4.6124   -3.3719   37.2666 C   0  0  0  0  0  0  0  0  0  0  0  0
    5.5159   -4.5388   37.2897 N   0  3  0  0  0  0  0  0  0  0  0  0
  1  2  1  1  0  0  0
  1  3  1  0  0  0  0
  1 10  1  0  0  0  0
  3  4  1  1  0  0  0
  3  5  1  0  0  0  0
  5  6  1  6  0  0  0
  5  7  1  0  0  0  0
  7  8  1  1  0  0  0
  7  9  1  0  0  0  0
  9 10  1  0  0  0  0
  9 11  1  6  0  0  0
 11 12  1  0  0  0  0
 13 14  1  1  0  0  0
 13 15  1  0  0  0  0
 13 22  1  0  0  0  0
 15 16  1  6  0  0  0
 15 17  1  0  0  0  0
 17 18  1  6  0  0  0
 17 19  1  0  0  0  0
 19  2  1  6  0  0  0
 19 20  1  0  0  0  0
 20 21  1  1  0  0  0
 20 22  1  0  0  0  0
 23 18  1  6  0  0  0
 23 24  1  0  0  0  0
 23 28  1  0  0  0  0
 24 25  1  6  0  0  0
 24 26  1  0  0  0  0
 26 27  1  0  0  0  0
 26 38  1  6  0  0  0
 27 28  1  0  0  0  0
 27 29  1  6  0  0  0
 29 30  1  0  0  0  0
 31 32  1  6  0  0  0
 31 33  1  0  0  0  0
 31 39  1  0  0  0  0
 33 34  1  1  0  0  0
 33 35  1  0  0  0  0
 35 36  1  6  0  0  0
 35 37  1  0  0  0  0
 37 38  1  6  0  0  0
 37 40  1  0  0  0  0
 39 40  1  0  0  0  0
 39 41  1  6  0  0  0
 41 42  1  0  0  0  0
M  CHG  5   4   1  14   1  21   1  36   1  42   1
M  END
>  <CHROM.1>
-161.06297883,59.68308300,173.05050499,-67.69051387,-166.42763615,-59.15217045
-178.36436866,175.18202360,-63.48101259,55.40875223,141.12154840,157.29633736
55.42204576,67.88656583,-179.30204012,57.34911622,176.17709946,-63.40679589
-92.26368714,-166.08385838,70.85845655,-28.54808080,4.83207722,-0.49493670
41.15680930,-1.93444172,0.52788580,-1.48355908

>  <Name>
1pbr

>  <RI>
0

>  <Rbt.Current_Directory>
/home/itssahil/PROJECTS/Mol_Feturizer/New_Systems/rnas/1pbr

>  <Rbt.Executable>
rbdock ($Id: //depot/dev/client3/rdock/2013.1/src/exe/rbdock.cxx#4 $)

>  <Rbt.Library>
libRbt.so (2013.1, Build901 2013/11/27)

>  <Rbt.Parameter_File>
/export/apps/rDock/src/rDock_2013.1_src/data/scripts/dock_solv.prm

>  <Rbt.Receptor>
prm/pocket_docking_7.prm

>  <SCORE>
-46.8116

>  <SCORE.INTER>
-39.1806

>  <SCORE.INTER.CONST>
1

>  <SCORE.INTER.POLAR>
-4.67554

>  <SCORE.INTER.ROT>
9

>  <SCORE.INTER.SOLV>
28.2023

>  <SCORE.INTER.VDW>
-29.5361

>  <SCORE.INTER.norm>
-0.932871

>  <SCORE.INTRA>
-7.63105

>  <SCORE.INTRA.DIHEDRAL>
-13.1681

>  <SCORE.INTRA.DIHEDRAL.0>
29.7866

>  <SCORE.INTRA.POLAR>
-0.015601

>  <SCORE.INTRA.POLAR.0>
-0.984091

>  <SCORE.INTRA.REPUL>
-0.274115

>  <SCORE.INTRA.REPUL.0>
0.274115

>  <SCORE.INTRA.SOLV>
-4.86238

>  <SCORE.INTRA.SOLV.lig_0>
-152.978

>  <SCORE.INTRA.VDW>
2.8078

>  <SCORE.INTRA.VDW.0>
-6.10719

>  <SCORE.INTRA.norm>
-0.181692

>  <SCORE.RESTR>
0

>  <SCORE.RESTR.CAVITY>
0

>  <SCORE.RESTR.norm>
0

>  <SCORE.SYSTEM>
0

>  <SCORE.SYSTEM.CONST>
0

>  <SCORE.SYSTEM.DIHEDRAL>
0

>  <SCORE.SYSTEM.SOLV>
0

>  <SCORE.SYSTEM.norm>
0

>  <SCORE.heavy>
42

>  <SCORE.norm>
-1.11456

>  <RMSD>
5.821

$$$$
1pbr
 OpenBabel11021811403D
libRbt.so/2013.1/901 2013/11/27
 42 45  0  0  0  0  0  0  0  0999 V2000
    0.9864   -3.4047   42.1865 C   0  0  2  0  0  0  0  0  0  0  0  0
    1.7828   -3.7694   43.3424 O   0  0  0  0  0  0  0  0  0  0  0  0
   -0.5291   -3.7639   42.4155 C   0  0  2  0  0  0  0  0  0  0  0  0
   -1.0352   -3.4598   43.7792 N   0  3  0  0  0  0  0  0  0  0  0  0
   -0.7988   -5.2620   42.1798 C   0  0  1  0  0  0  0  0  0  0  0  0
   -2.1999   -5.5222   42.1299 O   0  0  0  0  0  0  0  0  0  0  0  0
   -0.1435   -5.7423   40.8761 C   0  0  2  0  0  0  0  0  0  0  0  0
   -0.4399   -7.1173   40.6529 O   0  0  0  0  0  0  0  0  0  0  0  0
    1.3751   -5.4590   40.8902 C   0  0  2  0  0  0  0  0  0  0  0  0
    1.5333   -4.0279   40.9916 O   0  0  0  0  0  0  0  0  0  0  0  0
    2.1118   -5.9253   39.6357 C   0  0  0  0  0  0  0  0  0  0  0  0
    1.9724   -4.9864   38.5776 O   0  0  0  0  0  0  0  0  0  0  0  0
    5.2984   -1.9346   44.9176 C   0  0  1  0  0  0  0  0  0  0  0  0
    6.6567   -1.4245   45.1800 N   0  3  0  0  0  0  0  0  0  0  0  0
    4.6239   -1.2222   43.7063 C   0  0  2  0  0  0  0  0  0  0  0  0
    4.5372    0.1815   43.9399 O   0  0  0  0  0  0  0  0  0  0  0  0
    3.1876   -1.7686   43.4574 C   0  0  1  0  0  0  0  0  0  0  0  0
    2.6775   -1.1912   42.2191 O   0  0  0  0  0  0  0  0  0  0  0  0
    3.1619   -3.3285   43.3527 C   0  0  1  0  0  0  0  0  0  0  0  0
    3.8890   -4.0286   44.5452 C   0  0  1  0  0  0  0  0  0  0  0  0
    3.9352   -5.4970   44.3682 N   0  3  0  0  0  0  0  0  0  0  0  0
    5.3290   -3.4768   44.7074 C   0  0  0  0  0  0  0  0  0  0  0  0
    2.8076    0.2458   41.9742 C   0  0  1  0  0  0  0  0  0  0  0  0
    3.7761    0.4596   40.7959 C   0  0  2  0  0  0  0  0  0  0  0  0
    4.3913    1.7430   40.8653 O   0  0  0  0  0  0  0  0  0  0  0  0
    2.7726    0.3572   39.6374 C   0  0  1  0  0  0  0  0  0  0  0  0
    1.5938    1.1639   40.1563 C   0  0  2  0  0  0  0  0  0  0  0  0
    1.5546    0.7919   41.5255 O   0  0  0  0  0  0  0  0  0  0  0  0
    0.2486    0.8622   39.4831 C   0  0  0  0  0  0  0  0  0  0  0  0
    0.3291    1.1310   38.0912 O   0  0  0  0  0  0  0  0  0  0  0  0
    5.9159   -1.5063   35.9547 C   0  0  1  0  0  0  0  0  0  0  0  0
    4.9627   -1.7866   34.9312 O   0  0  0  0  0  0  0  0  0  0  0  0
    6.1904    0.0229   35.9984 C   0  0  2  0  0  0  0  0  0  0  0  0
    7.3869    0.2478   36.7403 O   0  0  0  0  0  0  0  0  0  0  0  0
    5.0455    0.8917   36.6150 C   0  0  1  0  0  0  0  0  0  0  0  0
    4.0327    1.2136   35.5856 N   0  3  0  0  0  0  0  0  0  0  0  0
    4.4306    0.2275   37.8750 C   0  0  1  0  0  0  0  0  0  0  0  0
    3.2306    0.8788   38.3596 O   0  0  0  0  0  0  0  0  0  0  0  0
    5.3833   -1.9821   37.3297 C   0  0  1  0  0  0  0  0  0  0  0  0
    4.1961   -1.2014   37.6375 O   0  0  0  0  0  0  0  0  0  0  0  0
    5.0822   -3.4912   37.3929 C   0  0  0  0  0  0  0  0  0  0  0  0
    4.7571   -3.9510   38.7572 N   0  3  0  0  0  0  0  0  0  0  0  0
  1  2  1  1  0  0  0
  1  3  1  0  0  0  0
  1 10  1  0  0  0  0
  3  4  1  1  0  0  0
  3  5  1  0  0  0  0
  5  6  1  6  0  0  0
  5  7  1  0  0  0  0
  7  8  1  1  0  0  0
  7  9  1  0  0  0  0
  9 10  1  0  0  0  0
  9 11  1  6  0  0  0
 11 12  1  0  0  0  0
 13 14  1  6  0  0  0
 13 15  1  0  0  0  0
 13 22  1  0  0  0  0
 15 16  1  1  0  0  0
 15 17  1  0  0  0  0
 17 18  1  6  0  0  0
 17 19  1  0  0  0  0
 19  2  1  1  0  0  0
 19 20  1  0  0  0  0
 20 21  1  6  0  0  0
 20 22  1  0  0  0  0
 23 18  1  6  0  0  0
 23 24  1  0  0  0  0
 23 28  1  0  0  0  0
 24 25  1  1  0  0  0
 24 26  1  0  0  0  0
 26 27  1  0  0  0  0
 26 38  1  6  0  0  0
 27 28  1  0  0  0  0
 27 29  1  6  0  0  0
 29 30  1  0  0  0  0
 31 32  1  6  0  0  0
 31 33  1  0  0  0  0
 31 39  1  0  0  0  0
 33 34  1  1  0  0  0
 33 35  1  0  0  0  0
 35 36  1  6  0  0  0
 35 37  1  0  0  0  0
 37 38  1  6  0  0  0
 37 40  1  0  0  0  0
 39 40  1  0  0  0  0
 39 41  1  6  0  0  0
 41 42  1  0  0  0  0
M  CHG  5   4   1  14   1  21   1  36   1  42   1
M  END
>  <CHROM.1>
-171.57146888,66.78340811,172.58060795,-52.18811329,60.69644387,81.14140392
-67.84242351,55.73264689,63.73112476,-47.02573325,113.30175012,60.68709746
-53.57460515,58.79412599,-60.04273757,-57.30399299,172.56262053,-160.38144626
98.30023761,-172.17494356,172.04885667,89.90514680,2.98536322,-2.04615263
40.54676654,2.25994843,0.82524899,1.68224190

>  <Name>
1pbr

>  <RI>
0

>  <Rbt.Current_Directory>
/home/itssahil/PROJECTS/Mol_Feturizer/New_Systems/rnas/1pbr

>  <Rbt.Executable>
rbdock ($Id: //depot/dev/client3/rdock/2013.1/src/exe/rbdock.cxx#4 $)

>  <Rbt.Library>
libRbt.so (2013.1, Build901 2013/11/27)

>  <Rbt.Parameter_File>
/export/apps/rDock/src/rDock_2013.1_src/data/scripts/dock_solv.prm

>  <Rbt.Receptor>
prm/pocket_docking_4.prm

>  <SCORE>
-38.979

>  <SCORE.INTER>
-35.582

>  <SCORE.INTER.CONST>
1

>  <SCORE.INTER.POLAR>
-5.45219

>  <SCORE.INTER.ROT>
9

>  <SCORE.INTER.SOLV>
17.4415

>  <SCORE.INTER.VDW>
-20.9612

>  <SCORE.INTER.norm>
-0.84719

>  <SCORE.INTRA>
-3.39699

>  <SCORE.INTRA.DIHEDRAL>
-11.1367

>  <SCORE.INTRA.DIHEDRAL.0>
29.7866

>  <SCORE.INTRA.POLAR>
0.0376635

>  <SCORE.INTRA.POLAR.0>
-0.984091

>  <SCORE.INTRA.REPUL>
-0.274115

>  <SCORE.INTRA.REPUL.0>
0.274115

>  <SCORE.INTRA.SOLV>
-0.825482

>  <SCORE.INTRA.SOLV.lig_0>
-152.978

>  <SCORE.INTRA.VDW>
3.82664

>  <SCORE.INTRA.VDW.0>
-6.10719

>  <SCORE.INTRA.norm>
-0.0808807

>  <SCORE.RESTR>
0

>  <SCORE.RESTR.CAVITY>
0

>  <SCORE.RESTR.norm>
0

>  <SCORE.SYSTEM>
0

>  <SCORE.SYSTEM.CONST>
0

>  <SCORE.SYSTEM.DIHEDRAL>
0

>  <SCORE.SYSTEM.SOLV>
0

>  <SCORE.SYSTEM.norm>
0

>  <SCORE.heavy>
42

>  <SCORE.norm>
-0.928071

>  <RMSD>
5.827

$$$$
1pbr
 OpenBabel11021811403D
libRbt.so/2013.1/901 2013/11/27
 42 45  0  0  0  0  0  0  0  0999 V2000
    3.9155   -2.5475   40.6600 C   0  0  2  0  0  0  0  0  0  0  0  0
    3.6256   -3.4885   41.7247 O   0  0  0  0  0  0  0  0  0  0  0  0
    3.1523   -2.9427   39.3411 C   0  0  2  0  0  0  0  0  0  0  0  0
    1.7550   -3.4026   39.5519 N   0  3  0  0  0  0  0  0  0  0  0  0
    3.8710   -4.0784   38.5885 C   0  0  1  0  0  0  0  0  0  0  0  0
    3.3260   -4.2434   37.2812 O   0  0  0  0  0  0  0  0  0  0  0  0
    5.3784   -3.8024   38.4822 C   0  0  2  0  0  0  0  0  0  0  0  0
    6.0187   -4.8402   37.7463 O   0  0  0  0  0  0  0  0  0  0  0  0
    5.9981   -3.6012   39.8829 C   0  0  2  0  0  0  0  0  0  0  0  0
    5.3533   -2.4483   40.4645 O   0  0  0  0  0  0  0  0  0  0  0  0
    7.5036   -3.3413   39.8713 C   0  0  0  0  0  0  0  0  0  0  0  0
    8.1966   -4.3594   39.1615 O   0  0  0  0  0  0  0  0  0  0  0  0
    4.0249   -2.9317   45.9364 C   0  0  1  0  0  0  0  0  0  0  0  0
    4.4947   -2.7648   47.3240 N   0  3  0  0  0  0  0  0  0  0  0  0
    4.4057   -1.7189   45.0343 C   0  0  2  0  0  0  0  0  0  0  0  0
    3.8448   -0.5160   45.5549 O   0  0  0  0  0  0  0  0  0  0  0  0
    3.8882   -1.9126   43.5788 C   0  0  1  0  0  0  0  0  0  0  0  0
    4.4177   -0.8365   42.7489 O   0  0  0  0  0  0  0  0  0  0  0  0
    4.3198   -3.2911   42.9800 C   0  0  1  0  0  0  0  0  0  0  0  0
    3.9815   -4.4931   43.9189 C   0  0  1  0  0  0  0  0  0  0  0  0
    4.4898   -5.7707   43.3724 N   0  3  0  0  0  0  0  0  0  0  0  0
    4.5672   -4.2617   45.3359 C   0  0  0  0  0  0  0  0  0  0  0  0
    3.9051    0.5256   42.9030 C   0  0  1  0  0  0  0  0  0  0  0  0
    4.5454    1.4185   41.8237 C   0  0  2  0  0  0  0  0  0  0  0  0
    4.5717    2.7819   42.2368 O   0  0  0  0  0  0  0  0  0  0  0  0
    3.5442    1.1750   40.6843 C   0  0  1  0  0  0  0  0  0  0  0  0
    2.2086    1.2358   41.4068 C   0  0  2  0  0  0  0  0  0  0  0  0
    2.4943    0.5634   42.6237 O   0  0  0  0  0  0  0  0  0  0  0  0
    1.0417    0.5529   40.6816 C   0  0  0  0  0  0  0  0  0  0  0  0
   -0.1803    0.8427   41.3441 O   0  0  0  0  0  0  0  0  0  0  0  0
    1.8783    2.0154   35.6249 C   0  0  1  0  0  0  0  0  0  0  0  0
    2.7339    3.0198   35.0828 O   0  0  0  0  0  0  0  0  0  0  0  0
    2.7312    0.7895   36.0555 C   0  0  2  0  0  0  0  0  0  0  0  0
    1.8623   -0.3259   36.2383 O   0  0  0  0  0  0  0  0  0  0  0  0
    3.5778    0.9859   37.3557 C   0  0  1  0  0  0  0  0  0  0  0  0
    4.8689    1.6338   37.0359 N   0  3  0  0  0  0  0  0  0  0  0  0
    2.7834    1.7402   38.4542 C   0  0  1  0  0  0  0  0  0  0  0  0
    3.5842    2.1370   39.5946 O   0  0  0  0  0  0  0  0  0  0  0  0
    1.1053    2.5707   36.8474 C   0  0  1  0  0  0  0  0  0  0  0  0
    2.0799    2.8917   37.8774 O   0  0  0  0  0  0  0  0  0  0  0  0
    0.2226    3.7909   36.5246 C   0  0  0  0  0  0  0  0  0  0  0  0
   -0.3392    4.4240   37.7338 N   0  3  0  0  0  0  0  0  0  0  0  0
  1  2  1  1  0  0  0
  1  3  1  0  0  0  0
  1 10  1  0  0  0  0
  3  4  1  1  0  0  0
  3  5  1  0  0  0  0
  5  6  1  6  0  0  0
  5  7  1  0  0  0  0
  7  8  1  1  0  0  0
  7  9  1  0  0  0  0
  9 10  1  0  0  0  0
  9 11  1  6  0  0  0
 11 12  1  0  0  0  0
 13 14  1  1  0  0  0
 13 15  1  0  0  0  0
 13 22  1  0  0  0  0
 15 16  1  1  0  0  0
 15 17  1  0  0  0  0
 17 18  1  6  0  0  0
 17 19  1  0  0  0  0
 19  2  1  6  0  0  0
 19 20  1  0  0  0  0
 20 21  1  6  0  0  0
 20 22  1  0  0  0  0
 23 18  1  6  0  0  0
 23 24  1  0  0  0  0
 23 28  1  0  0  0  0
 24 25  1  1  0  0  0
 24 26  1  0  0  0  0
 26 27  1  0  0  0  0
 26 38  1  6  0  0  0
 27 28  1  0  0  0  0
 27 29  1  6  0  0  0
 29 30  1  0  0  0  0
 31 32  1  1  0  0  0
 31 33  1  0  0  0  0
 31 39  1  0  0  0  0
 33 34  1  1  0  0  0
 33 35  1  0  0  0  0
 35 36  1  6  0  0  0
 35 37  1  0  0  0  0
 37 38  1  1  0  0  0
 37 40  1  0  0  0  0
 39 40  1  0  0  0  0
 39 41  1  6  0  0  0
 41 42  1  0  0  0  0
M  CHG  5   4   1  14   1  21   1  36   1  42   1
M  END
>  <CHROM.1>
176.66985445,63.25216456,176.38726297,-178.85290219,-57.15616564,-54.02151801
66.82442517,178.32584939,-55.09452532,-71.72206281,-174.96662294,61.09716527
-47.07279530,170.38704895,-171.36113827,69.23309099,140.24110802,-179.02486787
-171.74820984,-94.28237844,-171.28127513,171.81518526,3.55746545,-0.87232264
40.37637552,-0.83329673,1.09154655,-1.52063133

>  <Name>
1pbr

>  <RI>
0

>  <Rbt.Current_Directory>
/home/itssahil/PROJECTS/Mol_Feturizer/New_Systems/rnas/1pbr

>  <Rbt.Executable>
rbdock ($Id: //depot/dev/client3/rdock/2013.1/src/exe/rbdock.cxx#4 $)

>  <Rbt.Library>
libRbt.so (2013.1, Build901 2013/11/27)

>  <Rbt.Parameter_File>
/export/apps/rDock/src/rDock_2013.1_src/data/scripts/dock_solv.prm

>  <Rbt.Receptor>
prm/pocket_docking_4.prm

>  <SCORE>
-44.7438

>  <SCORE.INTER>
-37.0097

>  <SCORE.INTER.CONST>
1

>  <SCORE.INTER.POLAR>
-5.90729

>  <SCORE.INTER.ROT>
9

>  <SCORE.INTER.SOLV>
19.6158

>  <SCORE.INTER.VDW>
-21.1208

>  <SCORE.INTER.norm>
-0.881184

>  <SCORE.INTRA>
-7.90475

>  <SCORE.INTRA.DIHEDRAL>
-15.1743

>  <SCORE.INTRA.DIHEDRAL.0>
29.7866

>  <SCORE.INTRA.POLAR>
0.73755

>  <SCORE.INTRA.POLAR.0>
-0.984091

>  <SCORE.INTRA.REPUL>
-0.274115

>  <SCORE.INTRA.REPUL.0>
0.274115

>  <SCORE.INTRA.SOLV>
-5.10962

>  <SCORE.INTRA.SOLV.lig_0>
-152.978

>  <SCORE.INTRA.VDW>
1.10014

>  <SCORE.INTRA.VDW.0>
-6.10719

>  <SCORE.INTRA.norm>
-0.188208

>  <SCORE.RESTR>
0.17071

>  <SCORE.RESTR.CAVITY>
0.17071

>  <SCORE.RESTR.norm>
0.00406453

>  <SCORE.SYSTEM>
0

>  <SCORE.SYSTEM.CONST>
0

>  <SCORE.SYSTEM.DIHEDRAL>
0

>  <SCORE.SYSTEM.SOLV>
0

>  <SCORE.SYSTEM.norm>
0

>  <SCORE.heavy>
42

>  <SCORE.norm>
-1.06533

>  <RMSD>
5.846

$$$$
1pbr
 OpenBabel11021811403D
libRbt.so/2013.1/901 2013/11/27
 42 45  0  0  0  0  0  0  0  0999 V2000
    3.3939   -2.3788   40.7576 C   0  0  2  0  0  0  0  0  0  0  0  0
    4.0434   -2.9064   41.9421 O   0  0  0  0  0  0  0  0  0  0  0  0
    2.0592   -3.1578   40.4577 C   0  0  2  0  0  0  0  0  0  0  0  0
    1.2455   -3.4722   41.6608 N   0  3  0  0  0  0  0  0  0  0  0  0
    2.3324   -4.5029   39.7585 C   0  0  1  0  0  0  0  0  0  0  0  0
    1.1225   -5.0687   39.2594 O   0  0  0  0  0  0  0  0  0  0  0  0
    3.3306   -4.3317   38.6036 C   0  0  2  0  0  0  0  0  0  0  0  0
    3.5372   -5.5760   37.9422 O   0  0  0  0  0  0  0  0  0  0  0  0
    4.6488   -3.7036   39.1080 C   0  0  2  0  0  0  0  0  0  0  0  0
    4.3176   -2.4012   39.6345 O   0  0  0  0  0  0  0  0  0  0  0  0
    5.7094   -3.5164   38.0244 C   0  0  0  0  0  0  0  0  0  0  0  0
    6.9568   -3.1303   38.5859 O   0  0  0  0  0  0  0  0  0  0  0  0
    4.3626   -1.4755   45.9494 C   0  0  1  0  0  0  0  0  0  0  0  0
    4.6231   -0.7152   47.1855 N   0  3  0  0  0  0  0  0  0  0  0  0
    3.2938   -0.7876   45.0472 C   0  0  2  0  0  0  0  0  0  0  0  0
    2.0632   -0.6461   45.7531 O   0  0  0  0  0  0  0  0  0  0  0  0
    3.0270   -1.6149   43.7557 C   0  0  1  0  0  0  0  0  0  0  0  0
    2.1537   -0.8425   42.8795 O   0  0  0  0  0  0  0  0  0  0  0  0
    4.3492   -1.9624   42.9965 C   0  0  1  0  0  0  0  0  0  0  0  0
    5.4316   -2.6011   43.9245 C   0  0  1  0  0  0  0  0  0  0  0  0
    6.7033   -2.8267   43.2024 N   0  3  0  0  0  0  0  0  0  0  0  0
    5.6869   -1.7050   45.1639 C   0  0  0  0  0  0  0  0  0  0  0  0
    2.4105    0.5818   42.6619 C   0  0  1  0  0  0  0  0  0  0  0  0
    3.6845    0.7285   41.8090 C   0  0  2  0  0  0  0  0  0  0  0  0
    4.3088    1.9894   42.0339 O   0  0  0  0  0  0  0  0  0  0  0  0
    3.0518    0.6334   40.4124 C   0  0  1  0  0  0  0  0  0  0  0  0
    1.8097    1.4968   40.5588 C   0  0  2  0  0  0  0  0  0  0  0  0
    1.3636    1.1624   41.8641 O   0  0  0  0  0  0  0  0  0  0  0  0
    0.7023    1.2280   39.5317 C   0  0  0  0  0  0  0  0  0  0  0  0
    0.2697   -0.1213   39.6233 O   0  0  0  0  0  0  0  0  0  0  0  0
    2.8492    1.0255   35.1157 C   0  0  1  0  0  0  0  0  0  0  0  0
    3.3556    2.3283   34.8312 O   0  0  0  0  0  0  0  0  0  0  0  0
    4.0183    0.1049   35.5645 C   0  0  2  0  0  0  0  0  0  0  0  0
    3.5847   -1.2509   35.4836 O   0  0  0  0  0  0  0  0  0  0  0  0
    4.5669    0.3725   37.0044 C   0  0  1  0  0  0  0  0  0  0  0  0
    5.5746    1.4554   36.9779 N   0  3  0  0  0  0  0  0  0  0  0  0
    3.4234    0.6411   38.0178 C   0  0  1  0  0  0  0  0  0  0  0  0
    3.8790    1.1040   39.3129 O   0  0  0  0  0  0  0  0  0  0  0  0
    1.7801    1.0973   36.2349 C   0  0  1  0  0  0  0  0  0  0  0  0
    2.4378    1.5647   37.4443 O   0  0  0  0  0  0  0  0  0  0  0  0
    0.5717    1.9862   35.8860 C   0  0  0  0  0  0  0  0  0  0  0  0
    0.9648    3.3520   35.4878 N   0  3  0  0  0  0  0  0  0  0  0  0
  1  2  1  1  0  0  0
  1  3  1  0  0  0  0
  1 10  1  0  0  0  0
  3  4  1  1  0  0  0
  3  5  1  0  0  0  0
  5  6  1  6  0  0  0
  5  7  1  0  0  0  0
  7  8  1  1  0  0  0
  7  9  1  0  0  0  0
  9 10  1  0  0  0  0
  9 11  1  6  0  0  0
 11 12  1  0  0  0  0
 13 14  1  1  0  0  0
 13 15  1  0  0  0  0
 13 22  1  0  0  0  0
 15 16  1  1  0  0  0
 15 17  1  0  0  0  0
 17 18  1  6  0  0  0
 17 19  1  0  0  0  0
 19  2  1  6  0  0  0
 19 20  1  0  0  0  0
 20 21  1  6  0  0  0
 20 22  1  0  0  0  0
 23 18  1  6  0  0  0
 23 24  1  0  0  0  0
 23 28  1  0  0  0  0
 24 25  1  6  0  0  0
 24 26  1  0  0  0  0
 26 27  1  0  0  0  0
 26 38  1  6  0  0  0
 27 28  1  0  0  0  0
 27 29  1  6  0  0  0
 29 30  1  0  0  0  0
 31 32  1  1  0  0  0
 31 33  1  0  0  0  0
 31 39  1  0  0  0  0
 33 34  1  1  0  0  0
 33 35  1  0  0  0  0
 35 36  1  6  0  0  0
 35 37  1  0  0  0  0
 37 38  1  1  0  0  0
 37 40  1  0  0  0  0
 39 40  1  0  0  0  0
 39 41  1  6  0  0  0
 41 42  1  0  0  0  0
M  CHG  5   4   1  14   1  21   1  36   1  42   1
M  END
>  <CHROM.1>
-125.13347721,75.77444620,48.03099723,70.49792027,59.50663010,-171.03817368
172.64498153,-52.12857213,-48.51875213,44.68547012,70.63016281,-65.29866961
19.74658091,162.79011158,59.53975809,53.35699612,60.50647992,-55.50055967
-171.27996075,-146.09945195,-54.32345572,-119.68228123,3.30905808,-0.89409996
40.15785112,-1.14048475,1.23473075,-1.67207449

>  <Name>
1pbr

>  <RI>
0

>  <Rbt.Current_Directory>
/home/itssahil/PROJECTS/Mol_Feturizer/New_Systems/rnas/1pbr

>  <Rbt.Executable>
rbdock ($Id: //depot/dev/client3/rdock/2013.1/src/exe/rbdock.cxx#4 $)

>  <Rbt.Library>
libRbt.so (2013.1, Build901 2013/11/27)

>  <Rbt.Parameter_File>
/export/apps/rDock/src/rDock_2013.1_src/data/scripts/dock_solv.prm

>  <Rbt.Receptor>
prm/pocket_docking_6.prm

>  <SCORE>
-40.3321

>  <SCORE.INTER>
-36.3899

>  <SCORE.INTER.CONST>
1

>  <SCORE.INTER.POLAR>
-5.5757

>  <SCORE.INTER.ROT>
9

>  <SCORE.INTER.SOLV>
18.4851

>  <SCORE.INTER.VDW>
-21.436

>  <SCORE.INTER.norm>
-0.866427

>  <SCORE.INTRA>
-3.94216

>  <SCORE.INTRA.DIHEDRAL>
-1.97964

>  <SCORE.INTRA.DIHEDRAL.0>
29.7866

>  <SCORE.INTRA.POLAR>
-0.873761

>  <SCORE.INTRA.POLAR.0>
-0.984091

>  <SCORE.INTRA.REPUL>
-0.274115

>  <SCORE.INTRA.REPUL.0>
0.274115

>  <SCORE.INTRA.SOLV>
1.56289

>  <SCORE.INTRA.SOLV.lig_0>
-152.978

>  <SCORE.INTRA.VDW>
0.607578

>  <SCORE.INTRA.VDW.0>
-6.10719

>  <SCORE.INTRA.norm>
-0.093861

>  <SCORE.RESTR>
0

>  <SCORE.RESTR.CAVITY>
0

>  <SCORE.RESTR.norm>
0

>  <SCORE.SYSTEM>
0

>  <SCORE.SYSTEM.CONST>
0

>  <SCORE.SYSTEM.DIHEDRAL>
0

>  <SCORE.SYSTEM.SOLV>
0

>  <SCORE.SYSTEM.norm>
0

>  <SCORE.heavy>
42

>  <SCORE.norm>
-0.960288

>  <RMSD>
5.849

$$$$
1pbr
 OpenBabel11021811403D
libRbt.so/2013.1/901 2013/11/27
 42 45  0  0  0  0  0  0  0  0999 V2000
    7.4927   -2.7054   42.2158 C   0  0  2  0  0  0  0  0  0  0  0  0
    7.0247   -1.3505   42.4358 O   0  0  0  0  0  0  0  0  0  0  0  0
    8.5893   -2.7419   41.0869 C   0  0  2  0  0  0  0  0  0  0  0  0
    9.5713   -1.6281   41.1454 N   0  3  0  0  0  0  0  0  0  0  0  0
    7.9594   -2.6878   39.6823 C   0  0  1  0  0  0  0  0  0  0  0  0
    8.9295   -2.9860   38.6807 O   0  0  0  0  0  0  0  0  0  0  0  0
    6.7857   -3.6720   39.5655 C   0  0  2  0  0  0  0  0  0  0  0  0
    6.2445   -3.6395   38.2486 O   0  0  0  0  0  0  0  0  0  0  0  0
    5.7225   -3.3869   40.6494 C   0  0  2  0  0  0  0  0  0  0  0  0
    6.3656   -3.5781   41.9274 O   0  0  0  0  0  0  0  0  0  0  0  0
    4.5062   -4.3097   40.5930 C   0  0  0  0  0  0  0  0  0  0  0  0
    3.8158   -4.1768   39.3576 O   0  0  0  0  0  0  0  0  0  0  0  0
    5.0519   -2.3309   46.0902 C   0  0  1  0  0  0  0  0  0  0  0  0
    4.3490   -2.3323   47.3863 N   0  3  0  0  0  0  0  0  0  0  0  0
    4.1507   -1.8092   44.9303 C   0  0  2  0  0  0  0  0  0  0  0  0
    2.9831   -2.6177   44.8051 O   0  0  0  0  0  0  0  0  0  0  0  0
    4.9102   -1.8292   43.5716 C   0  0  1  0  0  0  0  0  0  0  0  0
    4.0815   -1.1760   42.5648 O   0  0  0  0  0  0  0  0  0  0  0  0
    6.2916   -1.1017   43.6594 C   0  0  1  0  0  0  0  0  0  0  0  0
    7.1622   -1.5957   44.8589 C   0  0  1  0  0  0  0  0  0  0  0  0
    8.4178   -0.8216   44.9754 N   0  3  0  0  0  0  0  0  0  0  0  0
    6.3666   -1.5029   46.1867 C   0  0  0  0  0  0  0  0  0  0  0  0
    3.7445    0.2415   42.7027 C   0  0  1  0  0  0  0  0  0  0  0  0
    4.7038    1.0644   41.8226 C   0  0  2  0  0  0  0  0  0  0  0  0
    4.8388    2.3939   42.3169 O   0  0  0  0  0  0  0  0  0  0  0  0
    3.9233    1.0116   40.5006 C   0  0  1  0  0  0  0  0  0  0  0  0
    2.4932    1.2470   40.9579 C   0  0  2  0  0  0  0  0  0  0  0  0
    2.4361    0.4990   42.1628 O   0  0  0  0  0  0  0  0  0  0  0  0
    1.4087    0.7709   39.9828 C   0  0  0  0  0  0  0  0  0  0  0  0
    1.4666   -0.6407   39.8409 O   0  0  0  0  0  0  0  0  0  0  0  0
    2.2695    2.8330   35.7846 C   0  0  1  0  0  0  0  0  0  0  0  0
    2.4203    4.2490   35.8684 O   0  0  0  0  0  0  0  0  0  0  0  0
    3.6716    2.1711   35.6758 C   0  0  2  0  0  0  0  0  0  0  0  0
    3.5057    0.8293   35.2233 O   0  0  0  0  0  0  0  0  0  0  0  0
    4.5099    2.1568   36.9959 C   0  0  1  0  0  0  0  0  0  0  0  0
    5.2446    3.4314   37.1526 N   0  3  0  0  0  0  0  0  0  0  0  0
    3.6371    1.8111   38.2310 C   0  0  1  0  0  0  0  0  0  0  0  0
    4.3119    1.9928   39.5002 O   0  0  0  0  0  0  0  0  0  0  0  0
    1.5329    2.2961   37.0375 C   0  0  1  0  0  0  0  0  0  0  0  0
    2.3759    2.5602   38.1922 O   0  0  0  0  0  0  0  0  0  0  0  0
    0.1257    2.8900   37.2350 C   0  0  0  0  0  0  0  0  0  0  0  0
    0.1546    4.3309   37.5538 N   0  3  0  0  0  0  0  0  0  0  0  0
  1  2  1  6  0  0  0
  1  3  1  0  0  0  0
  1 10  1  0  0  0  0
  3  4  1  1  0  0  0
  3  5  1  0  0  0  0
  5  6  1  6  0  0  0
  5  7  1  0  0  0  0
  7  8  1  6  0  0  0
  7  9  1  0  0  0  0
  9 10  1  0  0  0  0
  9 11  1  6  0  0  0
 11 12  1  0  0  0  0
 13 14  1  1  0  0  0
 13 15  1  0  0  0  0
 13 22  1  0  0  0  0
 15 16  1  6  0  0  0
 15 17  1  0  0  0  0
 17 18  1  6  0  0  0
 17 19  1  0  0  0  0
 19  2  1  6  0  0  0
 19 20  1  0  0  0  0
 20 21  1  1  0  0  0
 20 22  1  0  0  0  0
 23 18  1  6  0  0  0
 23 24  1  0  0  0  0
 23 28  1  0  0  0  0
 24 25  1  1  0  0  0
 24 26  1  0  0  0  0
 26 27  1  0  0  0  0
 26 38  1  6  0  0  0
 27 28  1  0  0  0  0
 27 29  1  6  0  0  0
 29 30  1  0  0  0  0
 31 32  1  1  0  0  0
 31 33  1  0  0  0  0
 31 39  1  0  0  0  0
 33 34  1  1  0  0  0
 33 35  1  0  0  0  0
 35 36  1  1  0  0  0
 35 37  1  0  0  0  0
 37 38  1  1  0  0  0
 37 40  1  0  0  0  0
 39 40  1  0  0  0  0
 39 41  1  1  0  0  0
 41 42  1  0  0  0  0
M  CHG  5   4   1  14   1  21   1  36   1  42   1
M  END
>  <CHROM.1>
-164.14702641,-69.00743017,-53.91033938,-178.14745309,66.46251098,-61.38065070
-56.44704834,169.47009689,-174.84404191,63.46532004,98.39719012,-133.14166481
-42.46997482,174.21795889,64.29059971,-57.46930896,59.97409808,164.47074463
-159.33470853,-145.03911879,-67.03046206,53.66324060,4.65263324,-0.35673984
40.66819163,-0.97755175,0.70226017,-1.33810786

>  <Name>
1pbr

>  <RI>
0

>  <Rbt.Current_Directory>
/home/itssahil/PROJECTS/Mol_Feturizer/New_Systems/rnas/1pbr

>  <Rbt.Executable>
rbdock ($Id: //depot/dev/client3/rdock/2013.1/src/exe/rbdock.cxx#4 $)

>  <Rbt.Library>
libRbt.so (2013.1, Build901 2013/11/27)

>  <Rbt.Parameter_File>
/export/apps/rDock/src/rDock_2013.1_src/data/scripts/dock_solv.prm

>  <Rbt.Receptor>
prm/pocket_docking_5.prm

>  <SCORE>
-53.2121

>  <SCORE.INTER>
-51.2288

>  <SCORE.INTER.CONST>
1

>  <SCORE.INTER.POLAR>
-8.53527

>  <SCORE.INTER.ROT>
9

>  <SCORE.INTER.SOLV>
23.9822

>  <SCORE.INTER.VDW>
-23.2957

>  <SCORE.INTER.norm>
-1.21973

>  <SCORE.INTRA>
-2.08799

>  <SCORE.INTRA.DIHEDRAL>
-10.0786

>  <SCORE.INTRA.DIHEDRAL.0>
29.7866

>  <SCORE.INTRA.POLAR>
0.301251

>  <SCORE.INTRA.POLAR.0>
-0.984091

>  <SCORE.INTRA.REPUL>
-0.274115

>  <SCORE.INTRA.REPUL.0>
0.274115

>  <SCORE.INTRA.SOLV>
-0.183528

>  <SCORE.INTRA.SOLV.lig_0>
-152.978

>  <SCORE.INTRA.VDW>
3.38937

>  <SCORE.INTRA.VDW.0>
-6.10719

>  <SCORE.INTRA.norm>
-0.0497141

>  <SCORE.RESTR>
0.104638

>  <SCORE.RESTR.CAVITY>
0.104638

>  <SCORE.RESTR.norm>
0.00249139

>  <SCORE.SYSTEM>
0

>  <SCORE.SYSTEM.CONST>
0

>  <SCORE.SYSTEM.DIHEDRAL>
0

>  <SCORE.SYSTEM.SOLV>
0

>  <SCORE.SYSTEM.norm>
0

>  <SCORE.heavy>
42

>  <SCORE.norm>
-1.26696

>  <RMSD>
5.880

$$$$
1pbr
 OpenBabel11021811403D
libRbt.so/2013.1/901 2013/11/27
 42 45  0  0  0  0  0  0  0  0999 V2000
    2.1799   -2.9636   42.0244 C   0  0  2  0  0  0  0  0  0  0  0  0
    2.6006   -3.1193   43.4036 O   0  0  0  0  0  0  0  0  0  0  0  0
    1.1403   -4.0772   41.6277 C   0  0  2  0  0  0  0  0  0  0  0  0
    0.1273   -4.3752   42.6734 N   0  3  0  0  0  0  0  0  0  0  0  0
    1.8355   -5.4140   41.3076 C   0  0  1  0  0  0  0  0  0  0  0  0
    0.9230   -6.3264   40.7009 O   0  0  0  0  0  0  0  0  0  0  0  0
    3.0391   -5.2011   40.3772 C   0  0  2  0  0  0  0  0  0  0  0  0
    3.6421   -6.4511   40.0576 O   0  0  0  0  0  0  0  0  0  0  0  0
    4.0409   -4.2024   40.9981 C   0  0  2  0  0  0  0  0  0  0  0  0
    3.3425   -2.9486   41.1506 O   0  0  0  0  0  0  0  0  0  0  0  0
    5.2827   -3.9476   40.1453 C   0  0  0  0  0  0  0  0  0  0  0  0
    5.8096   -5.1618   39.6270 O   0  0  0  0  0  0  0  0  0  0  0  0
    3.4868   -0.2976   46.4793 C   0  0  1  0  0  0  0  0  0  0  0  0
    4.0337    0.7791   47.3252 N   0  3  0  0  0  0  0  0  0  0  0  0
    2.7631    0.2553   45.2143 C   0  0  2  0  0  0  0  0  0  0  0  0
    1.6913    1.1167   45.5907 O   0  0  0  0  0  0  0  0  0  0  0  0
    2.1839   -0.8988   44.3448 C   0  0  1  0  0  0  0  0  0  0  0  0
    1.6734   -0.3339   43.1008 O   0  0  0  0  0  0  0  0  0  0  0  0
    3.2593   -1.9862   44.0190 C   0  0  1  0  0  0  0  0  0  0  0  0
    4.0149   -2.4919   45.2894 C   0  0  1  0  0  0  0  0  0  0  0  0
    5.0917   -3.4444   44.9393 N   0  3  0  0  0  0  0  0  0  0  0  0
    4.6100   -1.2997   46.0824 C   0  0  0  0  0  0  0  0  0  0  0  0
    2.2999    0.8580   42.5276 C   0  0  1  0  0  0  0  0  0  0  0  0
    3.7742    0.5390   42.2164 C   0  0  2  0  0  0  0  0  0  0  0  0
    4.5657    1.7237   42.2179 O   0  0  0  0  0  0  0  0  0  0  0  0
    3.6019   -0.0439   40.8055 C   0  0  1  0  0  0  0  0  0  0  0  0
    2.6047    0.9153   40.1771 C   0  0  2  0  0  0  0  0  0  0  0  0
    1.7120    1.1672   41.2515 O   0  0  0  0  0  0  0  0  0  0  0  0
    1.8402    0.3630   38.9671 C   0  0  0  0  0  0  0  0  0  0  0  0
    0.4411    0.4502   39.1933 O   0  0  0  0  0  0  0  0  0  0  0  0
    5.1193   -1.6299   35.9651 C   0  0  1  0  0  0  0  0  0  0  0  0
    5.9944   -0.6009   35.5067 O   0  0  0  0  0  0  0  0  0  0  0  0
    5.8307   -2.4557   37.0730 C   0  0  2  0  0  0  0  0  0  0  0  0
    5.1202   -3.6785   37.2540 O   0  0  0  0  0  0  0  0  0  0  0  0
    5.9651   -1.7423   38.4582 C   0  0  1  0  0  0  0  0  0  0  0  0
    7.1687   -0.8822   38.4792 N   0  3  0  0  0  0  0  0  0  0  0  0
    4.6722   -0.9751   38.8410 C   0  0  1  0  0  0  0  0  0  0  0  0
    4.8134   -0.1243   40.0052 O   0  0  0  0  0  0  0  0  0  0  0  0
    3.8139   -1.0137   36.5281 C   0  0  1  0  0  0  0  0  0  0  0  0
    4.1681   -0.2159   37.6908 O   0  0  0  0  0  0  0  0  0  0  0  0
    3.0282   -0.1749   35.5028 C   0  0  0  0  0  0  0  0  0  0  0  0
    3.7349    1.0620   35.1168 N   0  3  0  0  0  0  0  0  0  0  0  0
  1  2  1  1  0  0  0
  1  3  1  0  0  0  0
  1 10  1  0  0  0  0
  3  4  1  1  0  0  0
  3  5  1  0  0  0  0
  5  6  1  6  0  0  0
  5  7  1  0  0  0  0
  7  8  1  1  0  0  0
  7  9  1  0  0  0  0
  9 10  1  0  0  0  0
  9 11  1  6  0  0  0
 11 12  1  0  0  0  0
 13 14  1  6  0  0  0
 13 15  1  0  0  0  0
 13 22  1  0  0  0  0
 15 16  1  1  0  0  0
 15 17  1  0  0  0  0
 17 18  1  6  0  0  0
 17 19  1  0  0  0  0
 19  2  1  1  0  0  0
 19 20  1  0  0  0  0
 20 21  1  6  0  0  0
 20 22  1  0  0  0  0
 23 18  1  6  0  0  0
 23 24  1  0  0  0  0
 23 28  1  0  0  0  0
 24 25  1  6  0  0  0
 24 26  1  0  0  0  0
 26 27  1  0  0  0  0
 26 38  1  6  0  0  0
 27 28  1  0  0  0  0
 27 29  1  6  0  0  0
 29 30  1  0  0  0  0
 31 32  1  1  0  0  0
 31 33  1  0  0  0  0
 31 39  1  0  0  0  0
 33 34  1  1  0  0  0
 33 35  1  0  0  0  0
 35 36  1  6  0  0  0
 35 37  1  0  0  0  0
 37 38  1  1  0  0  0
 37 40  1  0  0  0  0
 39 40  1  0  0  0  0
 39 41  1  6  0  0  0
 41 42  1  0  0  0  0
M  CHG  5   4   1  14   1  21   1  36   1  42   1
M  END
>  <CHROM.1>
-163.75434372,74.86421916,59.08087806,58.06628996,-63.90389023,-44.40977480
98.46459771,68.08343540,48.05588843,30.94589721,60.59688721,-50.77631920
178.23834263,165.23975170,123.84091574,60.87824502,-64.61021116,61.47027442
16.87468963,-146.12831595,-67.60732446,-176.06526778,3.51217192,-1.64905546
40.93419844,2.94661742,1.35676384,0.15124101

>  <Name>
1pbr

>  <RI>
0

>  <Rbt.Current_Directory>
/home/itssahil/PROJECTS/Mol_Feturizer/New_Systems/rnas/1pbr

>  <Rbt.Executable>
rbdock ($Id: //depot/dev/client3/rdock/2013.1/src/exe/rbdock.cxx#4 $)

>  <Rbt.Library>
libRbt.so (2013.1, Build901 2013/11/27)

>  <Rbt.Parameter_File>
/export/apps/rDock/src/rDock_2013.1_src/data/scripts/dock_solv.prm

>  <Rbt.Receptor>
prm/pocket_docking_3.prm

>  <SCORE>
-24.6297

>  <SCORE.INTER>
-26.9818

>  <SCORE.INTER.CONST>
1

>  <SCORE.INTER.POLAR>
-3.91555

>  <SCORE.INTER.ROT>
9

>  <SCORE.INTER.SOLV>
21.8374

>  <SCORE.INTER.VDW>
-21.8152

>  <SCORE.INTER.norm>
-0.642424

>  <SCORE.INTRA>
1.70646

>  <SCORE.INTRA.DIHEDRAL>
-2.29873

>  <SCORE.INTRA.DIHEDRAL.0>
29.7866

>  <SCORE.INTRA.POLAR>
0.109491

>  <SCORE.INTRA.POLAR.0>
-0.984091

>  <SCORE.INTRA.REPUL>
-0.274115

>  <SCORE.INTRA.REPUL.0>
0.274115

>  <SCORE.INTRA.SOLV>
2.03712

>  <SCORE.INTRA.SOLV.lig_0>
-152.978

>  <SCORE.INTRA.VDW>
2.83557

>  <SCORE.INTRA.VDW.0>
-6.10719

>  <SCORE.INTRA.norm>
0.0406299

>  <SCORE.RESTR>
0.645686

>  <SCORE.RESTR.CAVITY>
0.645686

>  <SCORE.RESTR.norm>
0.0153735

>  <SCORE.SYSTEM>
0

>  <SCORE.SYSTEM.CONST>
0

>  <SCORE.SYSTEM.DIHEDRAL>
0

>  <SCORE.SYSTEM.SOLV>
0

>  <SCORE.SYSTEM.norm>
0

>  <SCORE.heavy>
42

>  <SCORE.norm>
-0.586421

>  <RMSD>
5.900

$$$$
1pbr
 OpenBabel11021811403D
libRbt.so/2013.1/901 2013/11/27
 42 45  0  0  0  0  0  0  0  0999 V2000
    5.3601   -2.7835   42.8728 C   0  0  2  0  0  0  0  0  0  0  0  0
    5.5859   -2.5752   44.2901 O   0  0  0  0  0  0  0  0  0  0  0  0
    6.1482   -4.0465   42.3607 C   0  0  2  0  0  0  0  0  0  0  0  0
    6.1177   -5.2089   43.2860 N   0  3  0  0  0  0  0  0  0  0  0  0
    7.6355   -3.7272   42.1185 C   0  0  1  0  0  0  0  0  0  0  0  0
    8.2726   -4.7895   41.4122 O   0  0  0  0  0  0  0  0  0  0  0  0
    7.7977   -2.4195   41.3289 C   0  0  2  0  0  0  0  0  0  0  0  0
    9.1759   -2.1637   41.0770 O   0  0  0  0  0  0  0  0  0  0  0  0
    7.1025   -1.2493   42.0595 C   0  0  2  0  0  0  0  0  0  0  0  0
    5.6989   -1.5771   42.1346 O   0  0  0  0  0  0  0  0  0  0  0  0
    7.2329    0.0982   41.3514 C   0  0  0  0  0  0  0  0  0  0  0  0
    6.4206    1.0864   41.9711 O   0  0  0  0  0  0  0  0  0  0  0  0
    3.0389   -0.5251   47.0320 C   0  0  1  0  0  0  0  0  0  0  0  0
    2.2883    0.4603   47.8317 N   0  3  0  0  0  0  0  0  0  0  0  0
    2.5855   -0.5438   45.5408 C   0  0  2  0  0  0  0  0  0  0  0  0
    1.1974   -0.8553   45.4466 O   0  0  0  0  0  0  0  0  0  0  0  0
    3.3828   -1.5999   44.7207 C   0  0  1  0  0  0  0  0  0  0  0  0
    3.0380   -1.4527   43.3113 O   0  0  0  0  0  0  0  0  0  0  0  0
    4.9279   -1.4373   44.8975 C   0  0  1  0  0  0  0  0  0  0  0  0
    5.3628   -1.3651   46.3963 C   0  0  1  0  0  0  0  0  0  0  0  0
    6.8145   -1.1117   46.5304 N   0  3  0  0  0  0  0  0  0  0  0  0
    4.5692   -0.2620   47.1433 C   0  0  0  0  0  0  0  0  0  0  0  0
    1.7396   -1.9196   42.8234 C   0  0  1  0  0  0  0  0  0  0  0  0
    1.3332   -1.0654   41.6080 C   0  0  2  0  0  0  0  0  0  0  0  0
   -0.0823   -1.0452   41.4467 O   0  0  0  0  0  0  0  0  0  0  0  0
    2.0334   -1.8704   40.5028 C   0  0  1  0  0  0  0  0  0  0  0  0
    1.7233   -3.3044   40.8991 C   0  0  2  0  0  0  0  0  0  0  0  0
    1.8501   -3.2597   42.3121 O   0  0  0  0  0  0  0  0  0  0  0  0
    2.6661   -4.3629   40.3123 C   0  0  0  0  0  0  0  0  0  0  0  0
    2.5224   -4.4147   38.9006 O   0  0  0  0  0  0  0  0  0  0  0  0
    1.7439    2.1766   37.0542 C   0  0  1  0  0  0  0  0  0  0  0  0
    0.3692    2.1755   36.6737 O   0  0  0  0  0  0  0  0  0  0  0  0
    1.8497    2.2321   38.6039 C   0  0  2  0  0  0  0  0  0  0  0  0
    3.1801    2.6056   38.9545 O   0  0  0  0  0  0  0  0  0  0  0  0
    1.4870    0.9053   39.3481 C   0  0  1  0  0  0  0  0  0  0  0  0
    0.0254    0.8175   39.5601 N   0  3  0  0  0  0  0  0  0  0  0  0
    2.0645   -0.3396   38.6246 C   0  0  1  0  0  0  0  0  0  0  0  0
    1.5824   -1.6022   39.1465 O   0  0  0  0  0  0  0  0  0  0  0  0
    2.4483    0.9012   36.5268 C   0  0  1  0  0  0  0  0  0  0  0  0
    1.8338   -0.2439   37.1786 O   0  0  0  0  0  0  0  0  0  0  0  0
    2.4031    0.7531   34.9945 C   0  0  0  0  0  0  0  0  0  0  0  0
    3.1937   -0.3950   34.5092 N   0  3  0  0  0  0  0  0  0  0  0  0
  1  2  1  1  0  0  0
  1  3  1  0  0  0  0
  1 10  1  0  0  0  0
  3  4  1  1  0  0  0
  3  5  1  0  0  0  0
  5  6  1  6  0  0  0
  5  7  1  0  0  0  0
  7  8  1  1  0  0  0
  7  9  1  0  0  0  0
  9 10  1  0  0  0  0
  9 11  1  6  0  0  0
 11 12  1  0  0  0  0
 13 14  1  1  0  0  0
 13 15  1  0  0  0  0
 13 22  1  0  0  0  0
 15 16  1  1  0  0  0
 15 17  1  0  0  0  0
 17 18  1  6  0  0  0
 17 19  1  0  0  0  0
 19  2  1  1  0  0  0
 19 20  1  0  0  0  0
 20 21  1  6  0  0  0
 20 22  1  0  0  0  0
 23 18  1  6  0  0  0
 23 24  1  0  0  0  0
 23 28  1  0  0  0  0
 24 25  1  6  0  0  0
 24 26  1  0  0  0  0
 26 27  1  0  0  0  0
 26 38  1  6  0  0  0
 27 28  1  0  0  0  0
 27 29  1  6  0  0  0
 29 30  1  0  0  0  0
 31 32  1  1  0  0  0
 31 33  1  0  0  0  0
 31 39  1  0  0  0  0
 33 34  1  6  0  0  0
 33 35  1  0  0  0  0
 35 36  1  6  0  0  0
 35 37  1  0  0  0  0
 37 38  1  1  0  0  0
 37 40  1  0  0  0  0
 39 40  1  0  0  0  0
 39 41  1  6  0  0  0
 41 42  1  0  0  0  0
M  CHG  5   4   1  14   1  21   1  36   1  42   1
M  END
>  <CHROM.1>
179.54140226,59.89409873,-49.42965458,-172.58774339,65.71885490,171.83055762
56.81542410,-58.21823038,-53.16112061,-74.30676467,151.47490450,59.38305322
54.03868453,74.87332005,-65.64808637,41.07067006,175.29069625,-61.43546634
-179.91551204,-66.71644853,174.29253145,-70.49483970,3.70875484,-1.17702441
41.52719675,-1.08013048,0.49655191,-1.51398553

>  <Name>
1pbr

>  <RI>
0

>  <Rbt.Current_Directory>
/home/itssahil/PROJECTS/Mol_Feturizer/New_Systems/rnas/1pbr

>  <Rbt.Executable>
rbdock ($Id: //depot/dev/client3/rdock/2013.1/src/exe/rbdock.cxx#4 $)

>  <Rbt.Library>
libRbt.so (2013.1, Build901 2013/11/27)

>  <Rbt.Parameter_File>
/export/apps/rDock/src/rDock_2013.1_src/data/scripts/dock_solv.prm

>  <Rbt.Receptor>
prm/pocket_docking_8.prm

>  <SCORE>
-44.8931

>  <SCORE.INTER>
-31.6613

>  <SCORE.INTER.CONST>
1

>  <SCORE.INTER.POLAR>
-4.87414

>  <SCORE.INTER.ROT>
9

>  <SCORE.INTER.SOLV>
31.4063

>  <SCORE.INTER.VDW>
-24.9291

>  <SCORE.INTER.norm>
-0.753839

>  <SCORE.INTRA>
-13.2319

>  <SCORE.INTRA.DIHEDRAL>
-19.6702

>  <SCORE.INTRA.DIHEDRAL.0>
29.7866

>  <SCORE.INTRA.POLAR>
-0.935784

>  <SCORE.INTRA.POLAR.0>
-0.984091

>  <SCORE.INTRA.REPUL>
-0.274115

>  <SCORE.INTRA.REPUL.0>
0.274115

>  <SCORE.INTRA.SOLV>
-2.36333

>  <SCORE.INTRA.SOLV.lig_0>
-152.978

>  <SCORE.INTRA.VDW>
2.33714

>  <SCORE.INTRA.VDW.0>
-6.10719

>  <SCORE.INTRA.norm>
-0.315044

>  <SCORE.RESTR>
0

>  <SCORE.RESTR.CAVITY>
0

>  <SCORE.RESTR.norm>
0

>  <SCORE.SYSTEM>
0

>  <SCORE.SYSTEM.CONST>
0

>  <SCORE.SYSTEM.DIHEDRAL>
0

>  <SCORE.SYSTEM.SOLV>
0

>  <SCORE.SYSTEM.norm>
0

>  <SCORE.heavy>
42

>  <SCORE.norm>
-1.06888

>  <RMSD>
5.917

$$$$
1pbr
 OpenBabel11021811403D
libRbt.so/2013.1/901 2013/11/27
 42 45  0  0  0  0  0  0  0  0999 V2000
    3.4881    0.0807   45.5852 C   0  0  2  0  0  0  0  0  0  0  0  0
    3.6248   -1.3607   45.6669 O   0  0  0  0  0  0  0  0  0  0  0  0
    1.9837    0.5106   45.7593 C   0  0  2  0  0  0  0  0  0  0  0  0
    1.2471   -0.2366   46.8117 N   0  3  0  0  0  0  0  0  0  0  0  0
    1.1848    0.3199   44.4561 C   0  0  1  0  0  0  0  0  0  0  0  0
   -0.0899    0.9523   44.5469 O   0  0  0  0  0  0  0  0  0  0  0  0
    1.9512    0.8861   43.2512 C   0  0  2  0  0  0  0  0  0  0  0  0
    1.1791    0.7403   42.0634 O   0  0  0  0  0  0  0  0  0  0  0  0
    3.3464    0.2333   43.1340 C   0  0  2  0  0  0  0  0  0  0  0  0
    4.0660    0.5634   44.3409 O   0  0  0  0  0  0  0  0  0  0  0  0
    4.1712    0.7252   41.9459 C   0  0  0  0  0  0  0  0  0  0  0  0
    5.5371    0.3543   42.0783 O   0  0  0  0  0  0  0  0  0  0  0  0
    7.6654   -1.1882   47.0278 C   0  0  1  0  0  0  0  0  0  0  0  0
    9.0398   -1.4672   47.4827 N   0  3  0  0  0  0  0  0  0  0  0  0
    7.4499   -1.5689   45.5316 C   0  0  2  0  0  0  0  0  0  0  0  0
    8.3525   -0.8446   44.6989 O   0  0  0  0  0  0  0  0  0  0  0  0
    5.9964   -1.2535   45.0718 C   0  0  1  0  0  0  0  0  0  0  0  0
    5.8077   -1.7843   43.7266 O   0  0  0  0  0  0  0  0  0  0  0  0
    4.9287   -1.8751   46.0303 C   0  0  1  0  0  0  0  0  0  0  0  0
    5.1878   -1.5309   47.5320 C   0  0  1  0  0  0  0  0  0  0  0  0
    4.2218   -2.2131   48.4214 N   0  3  0  0  0  0  0  0  0  0  0  0
    6.6338   -1.9152   47.9393 C   0  0  0  0  0  0  0  0  0  0  0  0
    6.2156   -3.1554   43.4176 C   0  0  1  0  0  0  0  0  0  0  0  0
    5.7003   -3.5184   42.0123 C   0  0  2  0  0  0  0  0  0  0  0  0
    5.5366   -4.9272   41.8751 O   0  0  0  0  0  0  0  0  0  0  0  0
    6.8758   -2.9854   41.1794 C   0  0  1  0  0  0  0  0  0  0  0  0
    8.0798   -3.4492   41.9825 C   0  0  2  0  0  0  0  0  0  0  0  0
    7.6482   -3.2406   43.3185 O   0  0  0  0  0  0  0  0  0  0  0  0
    9.3794   -2.6788   41.7155 C   0  0  0  0  0  0  0  0  0  0  0  0
   10.4190   -3.1743   42.5462 O   0  0  0  0  0  0  0  0  0  0  0  0
    4.9431   -2.0176   36.2712 C   0  0  1  0  0  0  0  0  0  0  0  0
    5.9250   -2.4991   35.3553 O   0  0  0  0  0  0  0  0  0  0  0  0
    4.2849   -3.2217   37.0011 C   0  0  2  0  0  0  0  0  0  0  0  0
    3.0790   -2.7748   37.6165 O   0  0  0  0  0  0  0  0  0  0  0  0
    5.1745   -3.9165   38.0835 C   0  0  1  0  0  0  0  0  0  0  0  0
    6.0589   -4.9220   37.4543 N   0  3  0  0  0  0  0  0  0  0  0  0
    5.9533   -2.8846   38.9409 C   0  0  1  0  0  0  0  0  0  0  0  0
    6.9507   -3.4732   39.8115 O   0  0  0  0  0  0  0  0  0  0  0  0
    5.5953   -1.0694   37.3086 C   0  0  1  0  0  0  0  0  0  0  0  0
    6.5450   -1.8502   38.0845 O   0  0  0  0  0  0  0  0  0  0  0  0
    6.2752    0.1636   36.6846 C   0  0  0  0  0  0  0  0  0  0  0  0
    7.2539   -0.1931   35.6390 N   0  3  0  0  0  0  0  0  0  0  0  0
  1  2  1  6  0  0  0
  1  3  1  0  0  0  0
  1 10  1  0  0  0  0
  3  4  1  1  0  0  0
  3  5  1  0  0  0  0
  5  6  1  1  0  0  0
  5  7  1  0  0  0  0
  7  8  1  6  0  0  0
  7  9  1  0  0  0  0
  9 10  1  0  0  0  0
  9 11  1  6  0  0  0
 11 12  1  0  0  0  0
 13 14  1  1  0  0  0
 13 15  1  0  0  0  0
 13 22  1  0  0  0  0
 15 16  1  6  0  0  0
 15 17  1  0  0  0  0
 17 18  1  6  0  0  0
 17 19  1  0  0  0  0
 19  2  1  6  0  0  0
 19 20  1  0  0  0  0
 20 21  1  1  0  0  0
 20 22  1  0  0  0  0
 23 18  1  6  0  0  0
 23 24  1  0  0  0  0
 23 28  1  0  0  0  0
 24 25  1  1  0  0  0
 24 26  1  0  0  0  0
 26 27  1  0  0  0  0
 26 38  1  6  0  0  0
 27 28  1  0  0  0  0
 27 29  1  6  0  0  0
 29 30  1  0  0  0  0
 31 32  1  6  0  0  0
 31 33  1  0  0  0  0
 31 39  1  0  0  0  0
 33 34  1  1  0  0  0
 33 35  1  0  0  0  0
 35 36  1  6  0  0  0
 35 37  1  0  0  0  0
 37 38  1  6  0  0  0
 37 40  1  0  0  0  0
 39 40  1  0  0  0  0
 39 41  1  6  0  0  0
 41 42  1  0  0  0  0
M  CHG  5   4   1  14   1  21   1  36   1  42   1
M  END
>  <CHROM.1>
-157.29118966,-52.88751722,80.88647428,173.01691704,174.20242256,165.34272949
46.16054784,-179.46732636,167.43276413,48.18284279,171.07499078,76.78243515
-178.83203577,73.85392457,178.36434951,-59.46975083,64.83638564,50.93325220
-50.90519499,-131.54762064,-53.70357001,-127.81860425,5.36170167,-1.62050197
42.33663509,1.75221274,-0.43453886,1.47136323

>  <Name>
1pbr

>  <RI>
0

>  <Rbt.Current_Directory>
/home/itssahil/PROJECTS/Mol_Feturizer/New_Systems/rnas/1pbr

>  <Rbt.Executable>
rbdock ($Id: //depot/dev/client3/rdock/2013.1/src/exe/rbdock.cxx#4 $)

>  <Rbt.Library>
libRbt.so (2013.1, Build901 2013/11/27)

>  <Rbt.Parameter_File>
/export/apps/rDock/src/rDock_2013.1_src/data/scripts/dock_solv.prm

>  <Rbt.Receptor>
prm/pocket_docking_8.prm

>  <SCORE>
-43.3512

>  <SCORE.INTER>
-34.3957

>  <SCORE.INTER.CONST>
1

>  <SCORE.INTER.POLAR>
-4.26594

>  <SCORE.INTER.ROT>
9

>  <SCORE.INTER.SOLV>
22.5176

>  <SCORE.INTER.VDW>
-25.8165

>  <SCORE.INTER.norm>
-0.818945

>  <SCORE.INTRA>
-8.95549

>  <SCORE.INTRA.DIHEDRAL>
-9.36405

>  <SCORE.INTRA.DIHEDRAL.0>
29.7866

>  <SCORE.INTRA.POLAR>
-1.26579

>  <SCORE.INTRA.POLAR.0>
-0.984091

>  <SCORE.INTRA.REPUL>
-0.274115

>  <SCORE.INTRA.REPUL.0>
0.274115

>  <SCORE.INTRA.SOLV>
1.13524

>  <SCORE.INTRA.SOLV.lig_0>
-152.978

>  <SCORE.INTRA.VDW>
0.83316

>  <SCORE.INTRA.VDW.0>
-6.10719

>  <SCORE.INTRA.norm>
-0.213226

>  <SCORE.RESTR>
0

>  <SCORE.RESTR.CAVITY>
0

>  <SCORE.RESTR.norm>
0

>  <SCORE.SYSTEM>
0

>  <SCORE.SYSTEM.CONST>
0

>  <SCORE.SYSTEM.DIHEDRAL>
0

>  <SCORE.SYSTEM.SOLV>
0

>  <SCORE.SYSTEM.norm>
0

>  <SCORE.heavy>
42

>  <SCORE.norm>
-1.03217

>  <RMSD>
5.942

$$$$
1pbr
 OpenBabel11021811403D
libRbt.so/2013.1/901 2013/11/27
 42 45  0  0  0  0  0  0  0  0999 V2000
    2.0451   -4.6699   42.1344 C   0  0  2  0  0  0  0  0  0  0  0  0
    2.6080   -5.5256   43.1610 O   0  0  0  0  0  0  0  0  0  0  0  0
    0.5694   -5.1004   41.7947 C   0  0  2  0  0  0  0  0  0  0  0  0
   -0.2538   -5.4649   42.9769 N   0  3  0  0  0  0  0  0  0  0  0  0
    0.5366   -6.3196   40.8540 C   0  0  1  0  0  0  0  0  0  0  0  0
   -0.7792   -6.5326   40.3474 O   0  0  0  0  0  0  0  0  0  0  0  0
    1.5121   -6.1384   39.6813 C   0  0  2  0  0  0  0  0  0  0  0  0
    1.4360   -7.2545   38.8000 O   0  0  0  0  0  0  0  0  0  0  0  0
    2.9467   -5.8879   40.1966 C   0  0  2  0  0  0  0  0  0  0  0  0
    2.9088   -4.6662   40.9642 O   0  0  0  0  0  0  0  0  0  0  0  0
    3.9888   -5.7167   39.0925 C   0  0  0  0  0  0  0  0  0  0  0  0
    3.3728   -5.5951   37.8173 O   0  0  0  0  0  0  0  0  0  0  0  0
    4.6164   -4.1063   46.6481 C   0  0  1  0  0  0  0  0  0  0  0  0
    5.5787   -3.6029   47.6453 N   0  3  0  0  0  0  0  0  0  0  0  0
    4.2973   -3.0482   45.5489 C   0  0  2  0  0  0  0  0  0  0  0  0
    3.7559   -1.8676   46.1368 O   0  0  0  0  0  0  0  0  0  0  0  0
    3.2704   -3.5981   44.5161 C   0  0  1  0  0  0  0  0  0  0  0  0
    3.1430   -2.6356   43.4278 O   0  0  0  0  0  0  0  0  0  0  0  0
    3.7045   -4.9839   43.9361 C   0  0  1  0  0  0  0  0  0  0  0  0
    4.0740   -6.0178   45.0475 C   0  0  1  0  0  0  0  0  0  0  0  0
    4.5750   -7.2839   44.4683 N   0  3  0  0  0  0  0  0  0  0  0  0
    5.1361   -5.4284   46.0113 C   0  0  0  0  0  0  0  0  0  0  0  0
    2.7706   -1.2501   43.7168 C   0  0  1  0  0  0  0  0  0  0  0  0
    3.6903   -0.3138   42.9109 C   0  0  2  0  0  0  0  0  0  0  0  0
    3.7988    0.9612   43.5376 O   0  0  0  0  0  0  0  0  0  0  0  0
    2.8862   -0.2530   41.6034 C   0  0  1  0  0  0  0  0  0  0  0  0
    1.4594   -0.1071   42.1058 C   0  0  2  0  0  0  0  0  0  0  0  0
    1.4456   -0.9763   43.2278 O   0  0  0  0  0  0  0  0  0  0  0  0
    0.3696   -0.5115   41.1046 C   0  0  0  0  0  0  0  0  0  0  0  0
    0.5952    0.1246   39.8553 O   0  0  0  0  0  0  0  0  0  0  0  0
    4.4240    0.4954   36.5636 C   0  0  1  0  0  0  0  0  0  0  0  0
    5.6165    1.2650   36.7066 O   0  0  0  0  0  0  0  0  0  0  0  0
    4.5336   -0.7906   37.4296 C   0  0  2  0  0  0  0  0  0  0  0  0
    3.5338   -1.7123   37.0014 O   0  0  0  0  0  0  0  0  0  0  0  0
    4.3906   -0.5739   38.9718 C   0  0  1  0  0  0  0  0  0  0  0  0
    5.6942   -0.1972   39.5614 N   0  3  0  0  0  0  0  0  0  0  0  0
    3.2637    0.4369   39.3113 C   0  0  1  0  0  0  0  0  0  0  0  0
    3.2290    0.8367   40.7035 O   0  0  0  0  0  0  0  0  0  0  0  0
    3.1932    1.3239   37.0100 C   0  0  1  0  0  0  0  0  0  0  0  0
    3.3421    1.6064   38.4284 O   0  0  0  0  0  0  0  0  0  0  0  0
    2.9923    2.6230   36.2075 C   0  0  0  0  0  0  0  0  0  0  0  0
    2.8758    2.3839   34.7557 N   0  3  0  0  0  0  0  0  0  0  0  0
  1  2  1  1  0  0  0
  1  3  1  0  0  0  0
  1 10  1  0  0  0  0
  3  4  1  1  0  0  0
  3  5  1  0  0  0  0
  5  6  1  6  0  0  0
  5  7  1  0  0  0  0
  7  8  1  6  0  0  0
  7  9  1  0  0  0  0
  9 10  1  0  0  0  0
  9 11  1  6  0  0  0
 11 12  1  0  0  0  0
 13 14  1  1  0  0  0
 13 15  1  0  0  0  0
 13 22  1  0  0  0  0
 15 16  1  1  0  0  0
 15 17  1  0  0  0  0
 17 18  1  6  0  0  0
 17 19  1  0  0  0  0
 19  2  1  1  0  0  0
 19 20  1  0  0  0  0
 20 21  1  6  0  0  0
 20 22  1  0  0  0  0
 23 18  1  6  0  0  0
 23 24  1  0  0  0  0
 23 28  1  0  0  0  0
 24 25  1  1  0  0  0
 24 26  1  0  0  0  0
 26 27  1  0  0  0  0
 26 38  1  6  0  0  0
 27 28  1  0  0  0  0
 27 29  1  6  0  0  0
 29 30  1  0  0  0  0
 31 32  1  1  0  0  0
 31 33  1  0  0  0  0
 31 39  1  0  0  0  0
 33 34  1  6  0  0  0
 33 35  1  0  0  0  0
 35 36  1  6  0  0  0
 35 37  1  0  0  0  0
 37 38  1  1  0  0  0
 37 40  1  0  0  0  0
 39 40  1  0  0  0  0
 39 41  1  6  0  0  0
 41 42  1  0  0  0  0
M  CHG  5   4   1  14   1  21   1  36   1  42   1
M  END
>  <CHROM.1>
-156.92054437,52.64651583,-178.83519885,-174.28570053,176.95620756,10.14276662
-169.61402564,60.61964072,-55.17382121,-56.15208793,134.92788932,64.97711179
100.54321598,138.85148481,-50.26712063,-61.97721563,61.00480369,-179.00614496
65.19685884,-65.96871583,56.66489464,-16.52216643,3.02948187,-2.52164205
41.20296999,1.66146726,1.24370545,2.19263557

>  <Name>
1pbr

>  <RI>
0

>  <Rbt.Current_Directory>
/home/itssahil/PROJECTS/Mol_Feturizer/New_Systems/rnas/1pbr

>  <Rbt.Executable>
rbdock ($Id: //depot/dev/client3/rdock/2013.1/src/exe/rbdock.cxx#4 $)

>  <Rbt.Library>
libRbt.so (2013.1, Build901 2013/11/27)

>  <Rbt.Parameter_File>
/export/apps/rDock/src/rDock_2013.1_src/data/scripts/dock_solv.prm

>  <Rbt.Receptor>
prm/pocket_docking_6.prm

>  <SCORE>
-26.0416

>  <SCORE.INTER>
-27.8174

>  <SCORE.INTER.CONST>
1

>  <SCORE.INTER.POLAR>
-5.58319

>  <SCORE.INTER.ROT>
9

>  <SCORE.INTER.SOLV>
13.9395

>  <SCORE.INTER.VDW>
-14.1808

>  <SCORE.INTER.norm>
-0.662318

>  <SCORE.INTRA>
1.77579

>  <SCORE.INTRA.DIHEDRAL>
-0.118796

>  <SCORE.INTRA.DIHEDRAL.0>
29.7866

>  <SCORE.INTRA.POLAR>
0.387913

>  <SCORE.INTRA.POLAR.0>
-0.984091

>  <SCORE.INTRA.REPUL>
-0.274115

>  <SCORE.INTRA.REPUL.0>
0.274115

>  <SCORE.INTRA.SOLV>
-2.67978

>  <SCORE.INTRA.SOLV.lig_0>
-152.978

>  <SCORE.INTRA.VDW>
3.22675

>  <SCORE.INTRA.VDW.0>
-6.10719

>  <SCORE.INTRA.norm>
0.0422808

>  <SCORE.RESTR>
0

>  <SCORE.RESTR.CAVITY>
0

>  <SCORE.RESTR.norm>
0

>  <SCORE.SYSTEM>
0

>  <SCORE.SYSTEM.CONST>
0

>  <SCORE.SYSTEM.DIHEDRAL>
0

>  <SCORE.SYSTEM.SOLV>
0

>  <SCORE.SYSTEM.norm>
0

>  <SCORE.heavy>
42

>  <SCORE.norm>
-0.620037

>  <RMSD>
5.972

$$$$
1pbr
 OpenBabel11021811403D
libRbt.so/2013.1/901 2013/11/27
 42 45  0  0  0  0  0  0  0  0999 V2000
    1.6392   -2.9267   41.5287 C   0  0  2  0  0  0  0  0  0  0  0  0
    2.3758   -3.2427   42.7373 O   0  0  0  0  0  0  0  0  0  0  0  0
    0.2674   -3.6981   41.4921 C   0  0  2  0  0  0  0  0  0  0  0  0
   -0.4474   -3.7465   42.7940 N   0  3  0  0  0  0  0  0  0  0  0  0
    0.4510   -5.1611   41.0465 C   0  0  1  0  0  0  0  0  0  0  0  0
   -0.8089   -5.7660   40.7639 O   0  0  0  0  0  0  0  0  0  0  0  0
    1.3506   -5.2509   39.8046 C   0  0  2  0  0  0  0  0  0  0  0  0
    1.4733   -6.6054   39.3818 O   0  0  0  0  0  0  0  0  0  0  0  0
    2.7202   -4.5880   40.0717 C   0  0  2  0  0  0  0  0  0  0  0  0
    2.4631   -3.1975   40.3612 O   0  0  0  0  0  0  0  0  0  0  0  0
    3.6882   -4.6508   38.8915 C   0  0  0  0  0  0  0  0  0  0  0  0
    3.0238   -5.0534   37.7011 O   0  0  0  0  0  0  0  0  0  0  0  0
    3.7288   -0.6390   45.8353 C   0  0  1  0  0  0  0  0  0  0  0  0
    4.4148    0.3659   46.6681 N   0  3  0  0  0  0  0  0  0  0  0  0
    2.8900    0.0128   44.6945 C   0  0  2  0  0  0  0  0  0  0  0  0
    1.9065    0.8897   45.2387 O   0  0  0  0  0  0  0  0  0  0  0  0
    2.1658   -1.0668   43.8380 C   0  0  1  0  0  0  0  0  0  0  0  0
    1.5415   -0.4122   42.6939 O   0  0  0  0  0  0  0  0  0  0  0  0
    3.1489   -2.1722   43.3315 C   0  0  1  0  0  0  0  0  0  0  0  0
    4.0221   -2.7784   44.4764 C   0  0  1  0  0  0  0  0  0  0  0  0
    5.0096   -3.7480   43.9528 N   0  3  0  0  0  0  0  0  0  0  0  0
    4.7549   -1.6570   45.2573 C   0  0  0  0  0  0  0  0  0  0  0  0
    2.2946    0.5699   41.9127 C   0  0  1  0  0  0  0  0  0  0  0  0
    2.9702   -0.1523   40.7321 C   0  0  2  0  0  0  0  0  0  0  0  0
    4.1277    0.5541   40.2945 O   0  0  0  0  0  0  0  0  0  0  0  0
    1.8224   -0.0759   39.7140 C   0  0  1  0  0  0  0  0  0  0  0  0
    1.3213    1.3473   39.8954 C   0  0  2  0  0  0  0  0  0  0  0  0
    1.3991    1.5162   41.3026 O   0  0  0  0  0  0  0  0  0  0  0  0
   -0.1099    1.6035   39.4059 C   0  0  0  0  0  0  0  0  0  0  0  0
   -1.0386    0.9260   40.2394 O   0  0  0  0  0  0  0  0  0  0  0  0
    5.9638    0.5193   36.3911 C   0  0  1  0  0  0  0  0  0  0  0  0
    5.9113   -0.6012   35.5100 O   0  0  0  0  0  0  0  0  0  0  0  0
    4.7862    1.4819   36.0714 C   0  0  2  0  0  0  0  0  0  0  0  0
    5.0543    2.7438   36.6784 O   0  0  0  0  0  0  0  0  0  0  0  0
    3.3752    0.9910   36.5337 C   0  0  1  0  0  0  0  0  0  0  0  0
    2.7805    0.1002   35.5129 N   0  3  0  0  0  0  0  0  0  0  0  0
    3.4218    0.3428   37.9424 C   0  0  1  0  0  0  0  0  0  0  0  0
    2.1921   -0.3188   38.3288 O   0  0  0  0  0  0  0  0  0  0  0  0
    5.8703    0.0490   37.8644 C   0  0  1  0  0  0  0  0  0  0  0  0
    4.5670   -0.5685   38.0488 O   0  0  0  0  0  0  0  0  0  0  0  0
    6.9992   -0.9106   38.2849 C   0  0  0  0  0  0  0  0  0  0  0  0
    7.8950   -1.2622   37.1658 N   0  3  0  0  0  0  0  0  0  0  0  0
  1  2  1  1  0  0  0
  1  3  1  0  0  0  0
  1 10  1  0  0  0  0
  3  4  1  1  0  0  0
  3  5  1  0  0  0  0
  5  6  1  6  0  0  0
  5  7  1  0  0  0  0
  7  8  1  1  0  0  0
  7  9  1  0  0  0  0
  9 10  1  0  0  0  0
  9 11  1  6  0  0  0
 11 12  1  0  0  0  0
 13 14  1  6  0  0  0
 13 15  1  0  0  0  0
 13 22  1  0  0  0  0
 15 16  1  1  0  0  0
 15 17  1  0  0  0  0
 17 18  1  6  0  0  0
 17 19  1  0  0  0  0
 19  2  1  1  0  0  0
 19 20  1  0  0  0  0
 20 21  1  6  0  0  0
 20 22  1  0  0  0  0
 23 18  1  1  0  0  0
 23 24  1  0  0  0  0
 23 28  1  0  0  0  0
 24 25  1  6  0  0  0
 24 26  1  0  0  0  0
 26 27  1  0  0  0  0
 26 38  1  6  0  0  0
 27 28  1  0  0  0  0
 27 29  1  1  0  0  0
 29 30  1  0  0  0  0
 31 32  1  6  0  0  0
 31 33  1  0  0  0  0
 31 39  1  0  0  0  0
 33 34  1  1  0  0  0
 33 35  1  0  0  0  0
 35 36  1  6  0  0  0
 35 37  1  0  0  0  0
 37 38  1  6  0  0  0
 37 40  1  0  0  0  0
 39 40  1  0  0  0  0
 39 41  1  6  0  0  0
 41 42  1  0  0  0  0
M  CHG  5   4   1  14   1  21   1  36   1  42   1
M  END
>  <CHROM.1>
-144.22415761,65.67496869,105.35826922,-179.21805098,69.89778193,12.55989932
-164.84371575,72.18293926,-170.61594481,45.95488902,93.00823557,179.34091755
76.84335492,-43.08692537,68.79777073,-178.71824886,57.80427560,72.73911851
56.55766602,-138.33922188,-3.94143873,85.77146860,2.93735074,-1.35747791
40.45407938,2.44734666,1.11518120,1.09105789

>  <Name>
1pbr

>  <RI>
0

>  <Rbt.Current_Directory>
/home/itssahil/PROJECTS/Mol_Feturizer/New_Systems/rnas/1pbr

>  <Rbt.Executable>
rbdock ($Id: //depot/dev/client3/rdock/2013.1/src/exe/rbdock.cxx#4 $)

>  <Rbt.Library>
libRbt.so (2013.1, Build901 2013/11/27)

>  <Rbt.Parameter_File>
/export/apps/rDock/src/rDock_2013.1_src/data/scripts/dock_solv.prm

>  <Rbt.Receptor>
prm/pocket_docking_3.prm

>  <SCORE>
-27.9394

>  <SCORE.INTER>
-40.5588

>  <SCORE.INTER.CONST>
1

>  <SCORE.INTER.POLAR>
-6.43023

>  <SCORE.INTER.ROT>
9

>  <SCORE.INTER.SOLV>
28.1416

>  <SCORE.INTER.VDW>
-24.5856

>  <SCORE.INTER.norm>
-0.965686

>  <SCORE.INTRA>
11.411

>  <SCORE.INTRA.DIHEDRAL>
6.845

>  <SCORE.INTRA.DIHEDRAL.0>
29.7866

>  <SCORE.INTRA.POLAR>
0.188208

>  <SCORE.INTRA.POLAR.0>
-0.984091

>  <SCORE.INTRA.REPUL>
0.176825

>  <SCORE.INTRA.REPUL.0>
0.274115

>  <SCORE.INTRA.SOLV>
0.406997

>  <SCORE.INTRA.SOLV.lig_0>
-152.978

>  <SCORE.INTRA.VDW>
6.26094

>  <SCORE.INTRA.VDW.0>
-6.10719

>  <SCORE.INTRA.norm>
0.27169

>  <SCORE.RESTR>
1.20838

>  <SCORE.RESTR.CAVITY>
1.20838

>  <SCORE.RESTR.norm>
0.0287709

>  <SCORE.SYSTEM>
0

>  <SCORE.SYSTEM.CONST>
0

>  <SCORE.SYSTEM.DIHEDRAL>
0

>  <SCORE.SYSTEM.SOLV>
0

>  <SCORE.SYSTEM.norm>
0

>  <SCORE.heavy>
42

>  <SCORE.norm>
-0.665225

>  <RMSD>
5.977

$$$$
1pbr
 OpenBabel11021811403D
libRbt.so/2013.1/901 2013/11/27
 42 45  0  0  0  0  0  0  0  0999 V2000
    3.1580   -3.9700   39.6871 C   0  0  2  0  0  0  0  0  0  0  0  0
    2.4465   -4.4259   40.8656 O   0  0  0  0  0  0  0  0  0  0  0  0
    3.2488   -5.1152   38.6107 C   0  0  2  0  0  0  0  0  0  0  0  0
    2.0047   -5.9124   38.4526 N   0  3  0  0  0  0  0  0  0  0  0  0
    4.3659   -6.1214   38.9460 C   0  0  1  0  0  0  0  0  0  0  0  0
    4.6116   -6.9909   37.8428 O   0  0  0  0  0  0  0  0  0  0  0  0
    5.6663   -5.3965   39.3243 C   0  0  2  0  0  0  0  0  0  0  0  0
    6.6985   -6.3415   39.5881 O   0  0  0  0  0  0  0  0  0  0  0  0
    5.4307   -4.4316   40.5075 C   0  0  2  0  0  0  0  0  0  0  0  0
    4.4644   -3.4548   40.0655 O   0  0  0  0  0  0  0  0  0  0  0  0
    6.6812   -3.6820   40.9641 C   0  0  0  0  0  0  0  0  0  0  0  0
    7.6874   -4.5818   41.4094 O   0  0  0  0  0  0  0  0  0  0  0  0
    0.3710   -2.4895   44.0516 C   0  0  1  0  0  0  0  0  0  0  0  0
   -0.0569   -1.6448   45.1818 N   0  3  0  0  0  0  0  0  0  0  0  0
    0.5481   -1.6713   42.7368 C   0  0  2  0  0  0  0  0  0  0  0  0
   -0.6753   -1.0324   42.3797 O   0  0  0  0  0  0  0  0  0  0  0  0
    0.9874   -2.5863   41.5564 C   0  0  1  0  0  0  0  0  0  0  0  0
    1.3000   -1.7456   40.4064 O   0  0  0  0  0  0  0  0  0  0  0  0
    2.2356   -3.4555   41.9194 C   0  0  1  0  0  0  0  0  0  0  0  0
    2.0662   -4.2275   43.2670 C   0  0  1  0  0  0  0  0  0  0  0  0
    3.2984   -4.9606   43.6330 N   0  3  0  0  0  0  0  0  0  0  0  0
    1.6791   -3.2538   44.4099 C   0  0  0  0  0  0  0  0  0  0  0  0
    2.0608   -0.5089   40.5900 C   0  0  1  0  0  0  0  0  0  0  0  0
    2.6241   -0.0693   39.2256 C   0  0  2  0  0  0  0  0  0  0  0  0
    3.7924    0.7302   39.3876 O   0  0  0  0  0  0  0  0  0  0  0  0
    1.4250    0.7480   38.7217 C   0  0  1  0  0  0  0  0  0  0  0  0
    1.0172    1.5253   39.9623 C   0  0  2  0  0  0  0  0  0  0  0  0
    1.1865    0.5612   40.9901 O   0  0  0  0  0  0  0  0  0  0  0  0
   -0.4233    2.0532   39.9585 C   0  0  0  0  0  0  0  0  0  0  0  0
   -1.3348    0.9838   40.1626 O   0  0  0  0  0  0  0  0  0  0  0  0
   -0.7607    4.6415   35.6939 C   0  0  1  0  0  0  0  0  0  0  0  0
    0.0518    4.7503   34.5265 O   0  0  0  0  0  0  0  0  0  0  0  0
   -1.3486    3.2053   35.7805 C   0  0  2  0  0  0  0  0  0  0  0  0
   -2.4290    3.2129   36.7106 O   0  0  0  0  0  0  0  0  0  0  0  0
   -0.3342    2.0902   36.1968 C   0  0  1  0  0  0  0  0  0  0  0  0
    0.4044    1.5986   35.0128 N   0  3  0  0  0  0  0  0  0  0  0  0
    0.6056    2.5606   37.3380 C   0  0  1  0  0  0  0  0  0  0  0  0
    1.6987    1.6510   37.6153 O   0  0  0  0  0  0  0  0  0  0  0  0
    0.0778    4.9413   36.9618 C   0  0  1  0  0  0  0  0  0  0  0  0
    1.1019    3.9147   37.0667 O   0  0  0  0  0  0  0  0  0  0  0  0
    0.7042    6.3482   36.9761 C   0  0  0  0  0  0  0  0  0  0  0  0
   -0.2952    7.4152   37.1787 N   0  3  0  0  0  0  0  0  0  0  0  0
  1  2  1  1  0  0  0
  1  3  1  0  0  0  0
  1 10  1  0  0  0  0
  3  4  1  1  0  0  0
  3  5  1  0  0  0  0
  5  6  1  6  0  0  0
  5  7  1  0  0  0  0
  7  8  1  1  0  0  0
  7  9  1  0  0  0  0
  9 10  1  0  0  0  0
  9 11  1  6  0  0  0
 11 12  1  0  0  0  0
 13 14  1  1  0  0  0
 13 15  1  0  0  0  0
 13 22  1  0  0  0  0
 15 16  1  6  0  0  0
 15 17  1  0  0  0  0
 17 18  1  6  0  0  0
 17 19  1  0  0  0  0
 19  2  1  6  0  0  0
 19 20  1  0  0  0  0
 20 21  1  1  0  0  0
 20 22  1  0  0  0  0
 23 18  1  6  0  0  0
 23 24  1  0  0  0  0
 23 28  1  0  0  0  0
 24 25  1  1  0  0  0
 24 26  1  0  0  0  0
 26 27  1  0  0  0  0
 26 38  1  6  0  0  0
 27 28  1  0  0  0  0
 27 29  1  6  0  0  0
 29 30  1  0  0  0  0
 31 32  1  6  0  0  0
 31 33  1  0  0  0  0
 31 39  1  0  0  0  0
 33 34  1  1  0  0  0
 33 35  1  0  0  0  0
 35 36  1  6  0  0  0
 35 37  1  0  0  0  0
 37 38  1  6  0  0  0
 37 40  1  0  0  0  0
 39 40  1  0  0  0  0
 39 41  1  6  0  0  0
 41 42  1  0  0  0  0
M  CHG  5   4   1  14   1  21   1  36   1  42   1
M  END
>  <CHROM.1>
-177.39731787,82.08519097,-50.19699522,48.93619633,-168.56850308,-60.98945238
-176.41375670,-34.60140438,-63.84369405,42.54647850,162.22577118,98.26098288
171.07735392,-169.71427999,73.46763481,-58.12725412,66.56584271,74.03329041
49.21466990,-96.63514761,71.29741105,24.83503245,1.86170027,-0.83268767,39.54947728
-0.91623002,0.84824270,-0.96102912

>  <Name>
1pbr

>  <RI>
0

>  <Rbt.Current_Directory>
/home/itssahil/PROJECTS/Mol_Feturizer/New_Systems/rnas/1pbr

>  <Rbt.Executable>
rbdock ($Id: //depot/dev/client3/rdock/2013.1/src/exe/rbdock.cxx#4 $)

>  <Rbt.Library>
libRbt.so (2013.1, Build901 2013/11/27)

>  <Rbt.Parameter_File>
/export/apps/rDock/src/rDock_2013.1_src/data/scripts/dock_solv.prm

>  <Rbt.Receptor>
prm/pocket_docking_6.prm

>  <SCORE>
-49.3688

>  <SCORE.INTER>
-46.371

>  <SCORE.INTER.CONST>
1

>  <SCORE.INTER.POLAR>
-8.67578

>  <SCORE.INTER.ROT>
9

>  <SCORE.INTER.SOLV>
30.6068

>  <SCORE.INTER.VDW>
-21.797

>  <SCORE.INTER.norm>
-1.10407

>  <SCORE.INTRA>
-2.99784

>  <SCORE.INTRA.DIHEDRAL>
-8.30024

>  <SCORE.INTRA.DIHEDRAL.0>
29.7866

>  <SCORE.INTRA.POLAR>
0.152004

>  <SCORE.INTRA.POLAR.0>
-0.984091

>  <SCORE.INTRA.REPUL>
-0.274115

>  <SCORE.INTRA.REPUL.0>
0.274115

>  <SCORE.INTRA.SOLV>
-2.72014

>  <SCORE.INTRA.SOLV.lig_0>
-152.978

>  <SCORE.INTRA.VDW>
3.36611

>  <SCORE.INTRA.VDW.0>
-6.10719

>  <SCORE.INTRA.norm>
-0.0713771

>  <SCORE.RESTR>
0

>  <SCORE.RESTR.CAVITY>
0

>  <SCORE.RESTR.norm>
0

>  <SCORE.SYSTEM>
0

>  <SCORE.SYSTEM.CONST>
0

>  <SCORE.SYSTEM.DIHEDRAL>
0

>  <SCORE.SYSTEM.SOLV>
0

>  <SCORE.SYSTEM.norm>
0

>  <SCORE.heavy>
42

>  <SCORE.norm>
-1.17545

>  <RMSD>
5.988

$$$$
1pbr
 OpenBabel11021811403D
libRbt.so/2013.1/901 2013/11/27
 42 45  0  0  0  0  0  0  0  0999 V2000
    2.9614   -2.4255   43.4592 C   0  0  2  0  0  0  0  0  0  0  0  0
    3.6762   -2.4962   44.7190 O   0  0  0  0  0  0  0  0  0  0  0  0
    3.3509   -1.1218   42.6675 C   0  0  2  0  0  0  0  0  0  0  0  0
    4.7976   -0.7849   42.7087 N   0  3  0  0  0  0  0  0  0  0  0  0
    2.6051    0.1134   43.2068 C   0  0  1  0  0  0  0  0  0  0  0  0
    2.7602    1.2232   42.3249 O   0  0  0  0  0  0  0  0  0  0  0  0
    1.1099   -0.1837   43.3957 C   0  0  2  0  0  0  0  0  0  0  0  0
    0.4299    0.9812   43.8527 O   0  0  0  0  0  0  0  0  0  0  0  0
    0.9066   -1.3939   44.3340 C   0  0  2  0  0  0  0  0  0  0  0  0
    1.5299   -2.5284   43.6954 O   0  0  0  0  0  0  0  0  0  0  0  0
   -0.5569   -1.7470   44.5942 C   0  0  0  0  0  0  0  0  0  0  0  0
   -1.2832   -0.6191   45.0639 O   0  0  0  0  0  0  0  0  0  0  0  0
    5.8851   -5.3997   46.9322 C   0  0  1  0  0  0  0  0  0  0  0  0
    6.7025   -6.5381   47.3901 N   0  3  0  0  0  0  0  0  0  0  0  0
    6.7174   -4.3663   46.1143 C   0  0  2  0  0  0  0  0  0  0  0  0
    7.7916   -3.8577   46.9016 O   0  0  0  0  0  0  0  0  0  0  0  0
    5.8361   -3.1687   45.6533 C   0  0  1  0  0  0  0  0  0  0  0  0
    6.6225   -2.3294   44.7565 O   0  0  0  0  0  0  0  0  0  0  0  0
    4.5392   -3.6416   44.9187 C   0  0  1  0  0  0  0  0  0  0  0  0
    3.7434   -4.7174   45.7249 C   0  0  1  0  0  0  0  0  0  0  0  0
    2.5779   -5.2172   44.9624 N   0  3  0  0  0  0  0  0  0  0  0  0
    4.6640   -5.9045   46.1091 C   0  0  0  0  0  0  0  0  0  0  0  0
    8.0019   -2.6963   44.4335 C   0  0  1  0  0  0  0  0  0  0  0  0
    7.9801   -3.8033   43.3629 C   0  0  2  0  0  0  0  0  0  0  0  0
    9.1657   -4.5917   43.4173 O   0  0  0  0  0  0  0  0  0  0  0  0
    7.9246   -2.9219   42.1060 C   0  0  1  0  0  0  0  0  0  0  0  0
    8.9286   -1.8284   42.4313 C   0  0  2  0  0  0  0  0  0  0  0  0
    8.6797   -1.5920   43.8085 O   0  0  0  0  0  0  0  0  0  0  0  0
    8.7644   -0.5309   41.6294 C   0  0  0  0  0  0  0  0  0  0  0  0
    9.1696   -0.7349   40.2838 O   0  0  0  0  0  0  0  0  0  0  0  0
    5.4741   -5.5662   38.2245 C   0  0  1  0  0  0  0  0  0  0  0  0
    5.9665   -4.9619   37.0299 O   0  0  0  0  0  0  0  0  0  0  0  0
    6.5882   -6.4496   38.8522 C   0  0  2  0  0  0  0  0  0  0  0  0
    5.9901   -7.3237   39.8066 O   0  0  0  0  0  0  0  0  0  0  0  0
    7.7518   -5.6681   39.5457 C   0  0  1  0  0  0  0  0  0  0  0  0
    8.7742   -5.2775   38.5501 N   0  3  0  0  0  0  0  0  0  0  0  0
    7.2275   -4.4641   40.3717 C   0  0  1  0  0  0  0  0  0  0  0  0
    8.2699   -3.5828   40.8576 O   0  0  0  0  0  0  0  0  0  0  0  0
    5.0370   -4.4774   39.2365 C   0  0  1  0  0  0  0  0  0  0  0  0
    6.2205   -3.7189   39.6076 O   0  0  0  0  0  0  0  0  0  0  0  0
    3.9285   -3.5467   38.7102 C   0  0  0  0  0  0  0  0  0  0  0  0
    4.3405   -2.7905   37.5115 N   0  3  0  0  0  0  0  0  0  0  0  0
  1  2  1  1  0  0  0
  1  3  1  0  0  0  0
  1 10  1  0  0  0  0
  3  4  1  1  0  0  0
  3  5  1  0  0  0  0
  5  6  1  6  0  0  0
  5  7  1  0  0  0  0
  7  8  1  1  0  0  0
  7  9  1  0  0  0  0
  9 10  1  0  0  0  0
  9 11  1  6  0  0  0
 11 12  1  0  0  0  0
 13 14  1  6  0  0  0
 13 15  1  0  0  0  0
 13 22  1  0  0  0  0
 15 16  1  1  0  0  0
 15 17  1  0  0  0  0
 17 18  1  6  0  0  0
 17 19  1  0  0  0  0
 19  2  1  1  0  0  0
 19 20  1  0  0  0  0
 20 21  1  6  0  0  0
 20 22  1  0  0  0  0
 23 18  1  6  0  0  0
 23 24  1  0  0  0  0
 23 28  1  0  0  0  0
 24 25  1  6  0  0  0
 24 26  1  0  0  0  0
 26 27  1  0  0  0  0
 26 38  1  6  0  0  0
 27 28  1  0  0  0  0
 27 29  1  6  0  0  0
 29 30  1  0  0  0  0
 31 32  1  6  0  0  0
 31 33  1  0  0  0  0
 31 39  1  0  0  0  0
 33 34  1  1  0  0  0
 33 35  1  0  0  0  0
 35 36  1  6  0  0  0
 35 37  1  0  0  0  0
 37 38  1  6  0  0  0
 37 40  1  0  0  0  0
 39 40  1  0  0  0  0
 39 41  1  6  0  0  0
 41 42  1  0  0  0  0
M  CHG  5   4   1  14   1  21   1  36   1  42   1
M  END
>  <CHROM.1>
-119.96247348,141.08556941,-141.26248422,-169.90910877,-173.91034924,-53.75333408
-64.96112516,-175.95673405,69.77803401,0.37756311,79.20073046,-48.76784928
62.27542707,74.67160332,-71.91203740,-170.17759388,-61.63718292,-55.58571756
69.61477503,-150.37055283,-61.27155201,-64.02289321,5.27832667,-3.13827597
42.67128551,2.54443213,-0.48787915,1.61800982

>  <Name>
1pbr

>  <RI>
0

>  <Rbt.Current_Directory>
/home/itssahil/PROJECTS/Mol_Feturizer/New_Systems/rnas/1pbr

>  <Rbt.Executable>
rbdock ($Id: //depot/dev/client3/rdock/2013.1/src/exe/rbdock.cxx#4 $)

>  <Rbt.Library>
libRbt.so (2013.1, Build901 2013/11/27)

>  <Rbt.Parameter_File>
/export/apps/rDock/src/rDock_2013.1_src/data/scripts/dock_solv.prm

>  <Rbt.Receptor>
prm/pocket_docking_7.prm

>  <SCORE>
-26.3674

>  <SCORE.INTER>
-25.7547

>  <SCORE.INTER.CONST>
1

>  <SCORE.INTER.POLAR>
-4.87156

>  <SCORE.INTER.ROT>
9

>  <SCORE.INTER.SOLV>
16.4887

>  <SCORE.INTER.VDW>
-16.0275

>  <SCORE.INTER.norm>
-0.613207

>  <SCORE.INTRA>
-0.612682

>  <SCORE.INTRA.DIHEDRAL>
2.17496

>  <SCORE.INTRA.DIHEDRAL.0>
29.7866

>  <SCORE.INTRA.POLAR>
-2.0799

>  <SCORE.INTRA.POLAR.0>
-0.984091

>  <SCORE.INTRA.REPUL>
-0.0798968

>  <SCORE.INTRA.REPUL.0>
0.274115

>  <SCORE.INTRA.SOLV>
4.84974

>  <SCORE.INTRA.SOLV.lig_0>
-152.978

>  <SCORE.INTRA.VDW>
3.34612

>  <SCORE.INTRA.VDW.0>
-6.10719

>  <SCORE.INTRA.norm>
-0.0145877

>  <SCORE.RESTR>
0

>  <SCORE.RESTR.CAVITY>
0

>  <SCORE.RESTR.norm>
0

>  <SCORE.SYSTEM>
0

>  <SCORE.SYSTEM.CONST>
0

>  <SCORE.SYSTEM.DIHEDRAL>
0

>  <SCORE.SYSTEM.SOLV>
0

>  <SCORE.SYSTEM.norm>
0

>  <SCORE.heavy>
42

>  <SCORE.norm>
-0.627794

>  <RMSD>
5.995

$$$$
1pbr
 OpenBabel11021811403D
libRbt.so/2013.1/901 2013/11/27
 42 45  0  0  0  0  0  0  0  0999 V2000
    6.8353   -5.7441   40.7229 C   0  0  2  0  0  0  0  0  0  0  0  0
    6.8724   -4.3099   40.9346 O   0  0  0  0  0  0  0  0  0  0  0  0
    7.3739   -6.1122   39.2902 C   0  0  2  0  0  0  0  0  0  0  0  0
    8.5698   -5.3396   38.8642 N   0  3  0  0  0  0  0  0  0  0  0  0
    6.3041   -5.8833   38.2059 C   0  0  1  0  0  0  0  0  0  0  0  0
    6.7071   -6.4629   36.9670 O   0  0  0  0  0  0  0  0  0  0  0  0
    4.9520   -6.4757   38.6310 C   0  0  2  0  0  0  0  0  0  0  0  0
    3.9878   -6.2932   37.5989 O   0  0  0  0  0  0  0  0  0  0  0  0
    4.4939   -5.8805   39.9809 C   0  0  2  0  0  0  0  0  0  0  0  0
    5.4905   -6.2451   40.9593 O   0  0  0  0  0  0  0  0  0  0  0  0
    3.1433   -6.4012   40.4699 C   0  0  0  0  0  0  0  0  0  0  0  0
    2.7879   -5.8193   41.7171 O   0  0  0  0  0  0  0  0  0  0  0  0
    4.0380   -4.2945   44.1242 C   0  0  1  0  0  0  0  0  0  0  0  0
    3.2299   -4.0129   45.3248 N   0  3  0  0  0  0  0  0  0  0  0  0
    3.8464   -3.2143   43.0168 C   0  0  2  0  0  0  0  0  0  0  0  0
    2.4771   -3.1388   42.6269 O   0  0  0  0  0  0  0  0  0  0  0  0
    4.6991   -3.5401   41.7558 C   0  0  1  0  0  0  0  0  0  0  0  0
    4.6115   -2.4160   40.8308 O   0  0  0  0  0  0  0  0  0  0  0  0
    6.1986   -3.8042   42.1122 C   0  0  1  0  0  0  0  0  0  0  0  0
    6.3743   -4.8483   43.2610 C   0  0  1  0  0  0  0  0  0  0  0  0
    7.7953   -5.0031   43.6434 N   0  3  0  0  0  0  0  0  0  0  0  0
    5.5409   -4.4398   44.5032 C   0  0  0  0  0  0  0  0  0  0  0  0
    4.7183   -1.0456   41.3332 C   0  0  1  0  0  0  0  0  0  0  0  0
    5.3507   -0.1666   40.2380 C   0  0  2  0  0  0  0  0  0  0  0  0
    6.0028    0.9668   40.8041 O   0  0  0  0  0  0  0  0  0  0  0  0
    4.0761    0.2180   39.4717 C   0  0  1  0  0  0  0  0  0  0  0  0
    3.1004    0.5230   40.5963 C   0  0  2  0  0  0  0  0  0  0  0  0
    3.4095   -0.4871   41.5444 O   0  0  0  0  0  0  0  0  0  0  0  0
    1.6171    0.4563   40.2105 C   0  0  0  0  0  0  0  0  0  0  0  0
    1.1050    1.7662   40.0148 O   0  0  0  0  0  0  0  0  0  0  0  0
    2.5313    1.7261   34.6046 C   0  0  1  0  0  0  0  0  0  0  0  0
    3.7590    2.0958   33.9795 O   0  0  0  0  0  0  0  0  0  0  0  0
    2.6574    0.2866   35.1769 C   0  0  2  0  0  0  0  0  0  0  0  0
    1.3492   -0.2068   35.4558 O   0  0  0  0  0  0  0  0  0  0  0  0
    3.5312    0.1527   36.4670 C   0  0  1  0  0  0  0  0  0  0  0  0
    4.9603    0.0179   36.1087 N   0  3  0  0  0  0  0  0  0  0  0  0
    3.2692    1.3111   37.4652 C   0  0  1  0  0  0  0  0  0  0  0  0
    4.1997    1.3560   38.5748 O   0  0  0  0  0  0  0  0  0  0  0  0
    2.1909    2.7157   35.7471 C   0  0  1  0  0  0  0  0  0  0  0  0
    3.2287    2.5964   36.7584 O   0  0  0  0  0  0  0  0  0  0  0  0
    2.0400    4.1762   35.2820 C   0  0  0  0  0  0  0  0  0  0  0  0
    1.7805    5.1061   36.3985 N   0  3  0  0  0  0  0  0  0  0  0  0
  1  2  1  6  0  0  0
  1  3  1  0  0  0  0
  1 10  1  0  0  0  0
  3  4  1  6  0  0  0
  3  5  1  0  0  0  0
  5  6  1  6  0  0  0
  5  7  1  0  0  0  0
  7  8  1  6  0  0  0
  7  9  1  0  0  0  0
  9 10  1  0  0  0  0
  9 11  1  1  0  0  0
 11 12  1  0  0  0  0
 13 14  1  1  0  0  0
 13 15  1  0  0  0  0
 13 22  1  0  0  0  0
 15 16  1  6  0  0  0
 15 17  1  0  0  0  0
 17 18  1  6  0  0  0
 17 19  1  0  0  0  0
 19  2  1  6  0  0  0
 19 20  1  0  0  0  0
 20 21  1  1  0  0  0
 20 22  1  0  0  0  0
 23 18  1  6  0  0  0
 23 24  1  0  0  0  0
 23 28  1  0  0  0  0
 24 25  1  1  0  0  0
 24 26  1  0  0  0  0
 26 27  1  0  0  0  0
 26 38  1  6  0  0  0
 27 28  1  0  0  0  0
 27 29  1  6  0  0  0
 29 30  1  0  0  0  0
 31 32  1  1  0  0  0
 31 33  1  0  0  0  0
 31 39  1  0  0  0  0
 33 34  1  1  0  0  0
 33 35  1  0  0  0  0
 35 36  1  6  0  0  0
 35 37  1  0  0  0  0
 37 38  1  1  0  0  0
 37 40  1  0  0  0  0
 39 40  1  0  0  0  0
 39 41  1  6  0  0  0
 41 42  1  0  0  0  0
M  CHG  5   4   1  14   1  21   1  36   1  42   1
M  END
>  <CHROM.1>
169.74176968,-87.59789157,22.88317856,175.28410117,165.50696353,179.67136402
178.70197954,-178.47719775,67.53141804,43.66633341,149.38856004,-46.41612433
75.20217284,152.76407533,-101.43681276,64.05977184,-169.67456369,59.94274648
149.79765457,-66.60138264,-177.23069381,-104.89171258,4.30594797,-2.02868003
39.54996088,-0.80418108,1.13052491,-1.32845077

>  <Name>
1pbr

>  <RI>
0

>  <Rbt.Current_Directory>
/home/itssahil/PROJECTS/Mol_Feturizer/New_Systems/rnas/1pbr

>  <Rbt.Executable>
rbdock ($Id: //depot/dev/client3/rdock/2013.1/src/exe/rbdock.cxx#4 $)

>  <Rbt.Library>
libRbt.so (2013.1, Build901 2013/11/27)

>  <Rbt.Parameter_File>
/export/apps/rDock/src/rDock_2013.1_src/data/scripts/dock_solv.prm

>  <Rbt.Receptor>
prm/pocket_docking_5.prm

>  <SCORE>
-31.8432

>  <SCORE.INTER>
-34.9668

>  <SCORE.INTER.CONST>
1

>  <SCORE.INTER.POLAR>
-6.09238

>  <SCORE.INTER.ROT>
9

>  <SCORE.INTER.SOLV>
22.2654

>  <SCORE.INTER.VDW>
-20.025

>  <SCORE.INTER.norm>
-0.832543

>  <SCORE.INTRA>
2.92623

>  <SCORE.INTRA.DIHEDRAL>
-2.15999

>  <SCORE.INTRA.DIHEDRAL.0>
29.7866

>  <SCORE.INTRA.POLAR>
0.815663

>  <SCORE.INTRA.POLAR.0>
-0.984091

>  <SCORE.INTRA.REPUL>
-0.274115

>  <SCORE.INTRA.REPUL.0>
0.274115

>  <SCORE.INTRA.SOLV>
-1.70943

>  <SCORE.INTRA.SOLV.lig_0>
-152.978

>  <SCORE.INTRA.VDW>
3.45826

>  <SCORE.INTRA.VDW.0>
-6.10719

>  <SCORE.INTRA.norm>
0.0696721

>  <SCORE.RESTR>
0.197311

>  <SCORE.RESTR.CAVITY>
0.197311

>  <SCORE.RESTR.norm>
0.00469787

>  <SCORE.SYSTEM>
0

>  <SCORE.SYSTEM.CONST>
0

>  <SCORE.SYSTEM.DIHEDRAL>
0

>  <SCORE.SYSTEM.SOLV>
0

>  <SCORE.SYSTEM.norm>
0

>  <SCORE.heavy>
42

>  <SCORE.norm>
-0.758173

>  <RMSD>
6.027

$$$$
1pbr
 OpenBabel11021811403D
libRbt.so/2013.1/901 2013/11/27
 42 45  0  0  0  0  0  0  0  0999 V2000
    2.4135   -3.7622   40.4198 C   0  0  2  0  0  0  0  0  0  0  0  0
    2.8416   -4.0932   41.7653 O   0  0  0  0  0  0  0  0  0  0  0  0
    1.3089   -4.7670   39.9212 C   0  0  2  0  0  0  0  0  0  0  0  0
    0.2937   -5.1248   40.9457 N   0  3  0  0  0  0  0  0  0  0  0  0
    1.9248   -6.0952   39.4424 C   0  0  1  0  0  0  0  0  0  0  0  0
    0.9557   -6.8837   38.7551 O   0  0  0  0  0  0  0  0  0  0  0  0
    3.1271   -5.8449   38.5195 C   0  0  2  0  0  0  0  0  0  0  0  0
    3.6557   -7.0821   38.0525 O   0  0  0  0  0  0  0  0  0  0  0  0
    4.1903   -4.9772   39.2288 C   0  0  2  0  0  0  0  0  0  0  0  0
    3.5644   -3.7124   39.5319 O   0  0  0  0  0  0  0  0  0  0  0  0
    5.4338   -4.6960   38.3870 C   0  0  0  0  0  0  0  0  0  0  0  0
    5.1128   -3.9289   37.2342 O   0  0  0  0  0  0  0  0  0  0  0  0
    5.3272   -2.2997   44.7340 C   0  0  1  0  0  0  0  0  0  0  0  0
    6.3973   -1.6327   45.4981 N   0  3  0  0  0  0  0  0  0  0  0  0
    4.6192   -1.3301   43.7398 C   0  0  2  0  0  0  0  0  0  0  0  0
    4.0480   -0.2281   44.4410 O   0  0  0  0  0  0  0  0  0  0  0  0
    3.4861   -2.0536   42.9548 C   0  0  1  0  0  0  0  0  0  0  0  0
    2.9799   -1.1498   41.9283 O   0  0  0  0  0  0  0  0  0  0  0  0
    3.9866   -3.3742   42.2835 C   0  0  1  0  0  0  0  0  0  0  0  0
    4.7422   -4.3121   43.2786 C   0  0  1  0  0  0  0  0  0  0  0  0
    5.2893   -5.5044   42.5941 N   0  3  0  0  0  0  0  0  0  0  0  0
    5.8882   -3.5461   43.9888 C   0  0  0  0  0  0  0  0  0  0  0  0
    2.8077    0.2726   42.2267 C   0  0  1  0  0  0  0  0  0  0  0  0
    3.9152    1.0651   41.5074 C   0  0  2  0  0  0  0  0  0  0  0  0
    4.1764    2.2982   42.1719 O   0  0  0  0  0  0  0  0  0  0  0  0
    3.2231    1.2700   40.1514 C   0  0  1  0  0  0  0  0  0  0  0  0
    1.8048    1.6300   40.5616 C   0  0  2  0  0  0  0  0  0  0  0  0
    1.5785    0.7575   41.6580 O   0  0  0  0  0  0  0  0  0  0  0  0
    0.7376    1.4157   39.4805 C   0  0  0  0  0  0  0  0  0  0  0  0
   -0.5272    1.8593   39.9495 O   0  0  0  0  0  0  0  0  0  0  0  0
    2.1706    4.1536   35.7490 C   0  0  1  0  0  0  0  0  0  0  0  0
    2.9306    5.3550   35.8665 O   0  0  0  0  0  0  0  0  0  0  0  0
    3.1342    2.9533   35.5336 C   0  0  2  0  0  0  0  0  0  0  0  0
    2.3775    1.8452   35.0517 O   0  0  0  0  0  0  0  0  0  0  0  0
    3.9362    2.5027   36.7983 C   0  0  1  0  0  0  0  0  0  0  0  0
    5.1614    3.3184   36.9480 N   0  3  0  0  0  0  0  0  0  0  0  0
    3.0533    2.5059   38.0740 C   0  0  1  0  0  0  0  0  0  0  0  0
    3.7924    2.3055   39.3039 O   0  0  0  0  0  0  0  0  0  0  0  0
    1.3268    3.9246   37.0281 C   0  0  1  0  0  0  0  0  0  0  0  0
    2.2481    3.7311   38.1360 O   0  0  0  0  0  0  0  0  0  0  0  0
    0.3324    5.0613   37.3304 C   0  0  0  0  0  0  0  0  0  0  0  0
    0.8307    6.3832   36.9029 N   0  3  0  0  0  0  0  0  0  0  0  0
  1  2  1  1  0  0  0
  1  3  1  0  0  0  0
  1 10  1  0  0  0  0
  3  4  1  1  0  0  0
  3  5  1  0  0  0  0
  5  6  1  6  0  0  0
  5  7  1  0  0  0  0
  7  8  1  1  0  0  0
  7  9  1  0  0  0  0
  9 10  1  0  0  0  0
  9 11  1  6  0  0  0
 11 12  1  0  0  0  0
 13 14  1  6  0  0  0
 13 15  1  0  0  0  0
 13 22  1  0  0  0  0
 15 16  1  1  0  0  0
 15 17  1  0  0  0  0
 17 18  1  6  0  0  0
 17 19  1  0  0  0  0
 19  2  1  1  0  0  0
 19 20  1  0  0  0  0
 20 21  1  6  0  0  0
 20 22  1  0  0  0  0
 23 18  1  6  0  0  0
 23 24  1  0  0  0  0
 23 28  1  0  0  0  0
 24 25  1  1  0  0  0
 24 26  1  0  0  0  0
 26 27  1  0  0  0  0
 26 38  1  1  0  0  0
 27 28  1  0  0  0  0
 27 29  1  6  0  0  0
 29 30  1  0  0  0  0
 31 32  1  1  0  0  0
 31 33  1  0  0  0  0
 31 39  1  0  0  0  0
 33 34  1  1  0  0  0
 33 35  1  0  0  0  0
 35 36  1  1  0  0  0
 35 37  1  0  0  0  0
 37 38  1  1  0  0  0
 37 40  1  0  0  0  0
 39 40  1  0  0  0  0
 39 41  1  1  0  0  0
 41 42  1  0  0  0  0
M  CHG  5   4   1  14   1  21   1  36   1  42   1
M  END
>  <CHROM.1>
171.45518545,87.72478079,149.87518354,-170.51260164,-60.62575268,63.93181833
59.92588299,7.66070707,76.91981592,-40.02984334,106.85773299,64.96107308
169.47509415,-176.65078027,-176.52929926,-177.87930605,57.09258361,55.06414258
-159.69058325,-130.04928364,-32.48751469,96.76913718,3.10821739,-0.73779342
39.93232341,1.00393276,1.26862534,-3.04112712

>  <Name>
1pbr

>  <RI>
0

>  <Rbt.Current_Directory>
/home/itssahil/PROJECTS/Mol_Feturizer/New_Systems/rnas/1pbr

>  <Rbt.Executable>
rbdock ($Id: //depot/dev/client3/rdock/2013.1/src/exe/rbdock.cxx#4 $)

>  <Rbt.Library>
libRbt.so (2013.1, Build901 2013/11/27)

>  <Rbt.Parameter_File>
/export/apps/rDock/src/rDock_2013.1_src/data/scripts/dock_solv.prm

>  <Rbt.Receptor>
prm/pocket_docking_7.prm

>  <SCORE>
-43.2762

>  <SCORE.INTER>
-48.9268

>  <SCORE.INTER.CONST>
1

>  <SCORE.INTER.POLAR>
-8.3796

>  <SCORE.INTER.ROT>
9

>  <SCORE.INTER.SOLV>
29.2361

>  <SCORE.INTER.VDW>
-24.0313

>  <SCORE.INTER.norm>
-1.16492

>  <SCORE.INTRA>
5.64204

>  <SCORE.INTRA.DIHEDRAL>
2.92642

>  <SCORE.INTRA.DIHEDRAL.0>
29.7866

>  <SCORE.INTRA.POLAR>
0.249149

>  <SCORE.INTRA.POLAR.0>
-0.984091

>  <SCORE.INTRA.REPUL>
-0.274115

>  <SCORE.INTRA.REPUL.0>
0.274115

>  <SCORE.INTRA.SOLV>
0.0966199

>  <SCORE.INTRA.SOLV.lig_0>
-152.978

>  <SCORE.INTRA.VDW>
4.65399

>  <SCORE.INTRA.VDW.0>
-6.10719

>  <SCORE.INTRA.norm>
0.134334

>  <SCORE.RESTR>
0.00859641

>  <SCORE.RESTR.CAVITY>
0.00859641

>  <SCORE.RESTR.norm>
0.000204677

>  <SCORE.SYSTEM>
0

>  <SCORE.SYSTEM.CONST>
0

>  <SCORE.SYSTEM.DIHEDRAL>
0

>  <SCORE.SYSTEM.SOLV>
0

>  <SCORE.SYSTEM.norm>
0

>  <SCORE.heavy>
42

>  <SCORE.norm>
-1.03039

>  <RMSD>
6.092

$$$$
1pbr
 OpenBabel11021811403D
libRbt.so/2013.1/901 2013/11/27
 42 45  0  0  0  0  0  0  0  0999 V2000
    2.9289    1.1371   42.0400 C   0  0  2  0  0  0  0  0  0  0  0  0
    2.9617   -0.0405   41.1942 O   0  0  0  0  0  0  0  0  0  0  0  0
    4.0657    1.0765   43.1273 C   0  0  2  0  0  0  0  0  0  0  0  0
    5.3701    0.5696   42.6275 N   0  3  0  0  0  0  0  0  0  0  0  0
    3.6737    0.1677   44.3076 C   0  0  1  0  0  0  0  0  0  0  0  0
    4.5833    0.3286   45.3940 O   0  0  0  0  0  0  0  0  0  0  0  0
    2.2464    0.4711   44.7874 C   0  0  2  0  0  0  0  0  0  0  0  0
    1.9179   -0.3474   45.9056 O   0  0  0  0  0  0  0  0  0  0  0  0
    1.2361    0.3226   43.6282 C   0  0  2  0  0  0  0  0  0  0  0  0
    1.6057    1.2910   42.6238 O   0  0  0  0  0  0  0  0  0  0  0  0
   -0.2157    0.5870   44.0237 C   0  0  0  0  0  0  0  0  0  0  0  0
   -0.6220   -0.2615   45.0893 O   0  0  0  0  0  0  0  0  0  0  0  0
    4.8907    1.1458   37.5776 C   0  0  1  0  0  0  0  0  0  0  0  0
    5.2791    1.4254   36.1831 N   0  3  0  0  0  0  0  0  0  0  0  0
    3.6813    2.0141   38.0392 C   0  0  2  0  0  0  0  0  0  0  0  0
    3.9945    3.4008   37.9315 O   0  0  0  0  0  0  0  0  0  0  0  0
    3.2987    1.7101   39.5173 C   0  0  1  0  0  0  0  0  0  0  0  0
    2.0655    2.4210   39.8351 O   0  0  0  0  0  0  0  0  0  0  0  0
    3.0963    0.1802   39.7695 C   0  0  1  0  0  0  0  0  0  0  0  0
    4.2914   -0.6831   39.2528 C   0  0  1  0  0  0  0  0  0  0  0  0
    4.0277   -2.1301   39.4146 N   0  3  0  0  0  0  0  0  0  0  0  0
    4.5883   -0.3700   37.7634 C   0  0  0  0  0  0  0  0  0  0  0  0
    0.7956    1.9756   39.2599 C   0  0  1  0  0  0  0  0  0  0  0  0
    0.2233    3.1102   38.3898 C   0  0  2  0  0  0  0  0  0  0  0  0
   -1.1937    3.0077   38.2819 O   0  0  0  0  0  0  0  0  0  0  0  0
    0.9329    2.7814   37.0676 C   0  0  1  0  0  0  0  0  0  0  0  0
    0.8035    1.2688   36.9968 C   0  0  2  0  0  0  0  0  0  0  0  0
    1.0153    0.8857   38.3470 O   0  0  0  0  0  0  0  0  0  0  0  0
    1.8142    0.5688   36.0791 C   0  0  0  0  0  0  0  0  0  0  0  0
    1.5377    0.8810   34.7217 O   0  0  0  0  0  0  0  0  0  0  0  0
   -0.7979    7.4809   35.0518 C   0  0  1  0  0  0  0  0  0  0  0  0
   -1.3852    7.1953   33.7836 O   0  0  0  0  0  0  0  0  0  0  0  0
   -1.5904    6.7406   36.1652 C   0  0  2  0  0  0  0  0  0  0  0  0
   -1.2459    7.3135   37.4244 O   0  0  0  0  0  0  0  0  0  0  0  0
   -1.3610    5.1952   36.2361 C   0  0  1  0  0  0  0  0  0  0  0  0
   -2.2568    4.4982   35.2870 N   0  3  0  0  0  0  0  0  0  0  0  0
    0.1317    4.8228   36.0367 C   0  0  1  0  0  0  0  0  0  0  0  0
    0.3698    3.4023   35.8793 O   0  0  0  0  0  0  0  0  0  0  0  0
    0.6831    7.0260   35.0726 C   0  0  1  0  0  0  0  0  0  0  0  0
    0.7031    5.5805   34.9175 O   0  0  0  0  0  0  0  0  0  0  0  0
    1.5591    7.7071   34.0046 C   0  0  0  0  0  0  0  0  0  0  0  0
    2.9853    7.3452   34.1216 N   0  3  0  0  0  0  0  0  0  0  0  0
  1  2  1  1  0  0  0
  1  3  1  0  0  0  0
  1 10  1  0  0  0  0
  3  4  1  6  0  0  0
  3  5  1  0  0  0  0
  5  6  1  1  0  0  0
  5  7  1  0  0  0  0
  7  8  1  1  0  0  0
  7  9  1  0  0  0  0
  9 10  1  0  0  0  0
  9 11  1  1  0  0  0
 11 12  1  0  0  0  0
 13 14  1  6  0  0  0
 13 15  1  0  0  0  0
 13 22  1  0  0  0  0
 15 16  1  1  0  0  0
 15 17  1  0  0  0  0
 17 18  1  6  0  0  0
 17 19  1  0  0  0  0
 19  2  1  1  0  0  0
 19 20  1  0  0  0  0
 20 21  1  6  0  0  0
 20 22  1  0  0  0  0
 23 18  1  6  0  0  0
 23 24  1  0  0  0  0
 23 28  1  0  0  0  0
 24 25  1  6  0  0  0
 24 26  1  0  0  0  0
 26 27  1  0  0  0  0
 26 38  1  6  0  0  0
 27 28  1  0  0  0  0
 27 29  1  6  0  0  0
 29 30  1  0  0  0  0
 31 32  1  6  0  0  0
 31 33  1  0  0  0  0
 31 39  1  0  0  0  0
 33 34  1  1  0  0  0
 33 35  1  0  0  0  0
 35 36  1  6  0  0  0
 35 37  1  0  0  0  0
 37 38  1  6  0  0  0
 37 40  1  0  0  0  0
 39 40  1  0  0  0  0
 39 41  1  6  0  0  0
 41 42  1  0  0  0  0
M  CHG  5   4   1  14   1  21   1  36   1  42   1
M  END
>  <CHROM.1>
-123.29739201,4.81103742,50.56334801,60.48818490,-54.74633660,-56.66864390
-63.45499937,64.82599754,148.33665716,71.52582833,-118.39371939,-174.75309914
-61.74862286,48.44661548,-69.04564528,-176.74247938,64.33196707,60.79596055
71.94126306,-104.46677814,175.01440104,58.60241832,1.72749652,2.45343601
38.87512416,1.23025388,-0.64231787,1.97893140

>  <Name>
1pbr

>  <RI>
0

>  <Rbt.Current_Directory>
/home/itssahil/PROJECTS/Mol_Feturizer/New_Systems/rnas/1pbr

>  <Rbt.Executable>
rbdock ($Id: //depot/dev/client3/rdock/2013.1/src/exe/rbdock.cxx#4 $)

>  <Rbt.Library>
libRbt.so (2013.1, Build901 2013/11/27)

>  <Rbt.Parameter_File>
/export/apps/rDock/src/rDock_2013.1_src/data/scripts/dock_solv.prm

>  <Rbt.Receptor>
prm/blind_docking_80.prm

>  <SCORE>
-16.8805

>  <SCORE.INTER>
-29.6801

>  <SCORE.INTER.CONST>
1

>  <SCORE.INTER.POLAR>
-4.35721

>  <SCORE.INTER.ROT>
9

>  <SCORE.INTER.SOLV>
31.5879

>  <SCORE.INTER.VDW>
-25.392

>  <SCORE.INTER.norm>
-0.706668

>  <SCORE.INTRA>
9.44147

>  <SCORE.INTRA.DIHEDRAL>
4.84643

>  <SCORE.INTRA.DIHEDRAL.0>
29.7866

>  <SCORE.INTRA.POLAR>
0.984091

>  <SCORE.INTRA.POLAR.0>
-0.984091

>  <SCORE.INTRA.REPUL>
-0.274115

>  <SCORE.INTRA.REPUL.0>
0.274115

>  <SCORE.INTRA.SOLV>
-0.215646

>  <SCORE.INTRA.SOLV.lig_0>
-152.978

>  <SCORE.INTRA.VDW>
5.15075

>  <SCORE.INTRA.VDW.0>
-6.10719

>  <SCORE.INTRA.norm>
0.224797

>  <SCORE.RESTR>
3.35812

>  <SCORE.RESTR.CAVITY>
3.35812

>  <SCORE.RESTR.norm>
0.0799553

>  <SCORE.SYSTEM>
0

>  <SCORE.SYSTEM.CONST>
0

>  <SCORE.SYSTEM.DIHEDRAL>
0

>  <SCORE.SYSTEM.SOLV>
0

>  <SCORE.SYSTEM.norm>
0

>  <SCORE.heavy>
42

>  <SCORE.norm>
-0.401916

>  <RMSD>
6.163

$$$$
1pbr
 OpenBabel11021811403D
libRbt.so/2013.1/901 2013/11/27
 42 45  0  0  0  0  0  0  0  0999 V2000
    1.8339    0.0310   38.4951 C   0  0  2  0  0  0  0  0  0  0  0  0
    1.3681   -1.2998   38.1558 O   0  0  0  0  0  0  0  0  0  0  0  0
    2.4369    0.0587   39.9491 C   0  0  2  0  0  0  0  0  0  0  0  0
    3.2746   -1.1201   40.2913 N   0  3  0  0  0  0  0  0  0  0  0  0
    1.3320    0.1279   41.0201 C   0  0  1  0  0  0  0  0  0  0  0  0
    1.8867    0.4174   42.3014 O   0  0  0  0  0  0  0  0  0  0  0  0
    0.2846    1.1937   40.6644 C   0  0  2  0  0  0  0  0  0  0  0  0
   -0.7040    1.2736   41.6864 O   0  0  0  0  0  0  0  0  0  0  0  0
   -0.3248    0.9189   39.2717 C   0  0  2  0  0  0  0  0  0  0  0  0
    0.7571    0.9926   38.3191 O   0  0  0  0  0  0  0  0  0  0  0  0
   -1.3947    1.9229   38.8459 C   0  0  0  0  0  0  0  0  0  0  0  0
   -0.8341    3.2104   38.6253 O   0  0  0  0  0  0  0  0  0  0  0  0
    5.0268   -3.0782   36.8675 C   0  0  1  0  0  0  0  0  0  0  0  0
    6.0901   -3.8495   36.1978 N   0  3  0  0  0  0  0  0  0  0  0  0
    4.4232   -1.9784   35.9423 C   0  0  2  0  0  0  0  0  0  0  0  0
    5.4381   -1.0696   35.5221 O   0  0  0  0  0  0  0  0  0  0  0  0
    3.3127   -1.1701   36.6753 C   0  0  1  0  0  0  0  0  0  0  0  0
    2.6737   -0.2788   35.7139 O   0  0  0  0  0  0  0  0  0  0  0  0
    2.2335   -2.1022   37.3169 C   0  0  1  0  0  0  0  0  0  0  0  0
    2.8549   -3.2332   38.1975 C   0  0  1  0  0  0  0  0  0  0  0  0
    1.8180   -4.1567   38.7090 N   0  3  0  0  0  0  0  0  0  0  0  0
    3.9146   -4.0314   37.3946 C   0  0  0  0  0  0  0  0  0  0  0  0
    3.4905    0.6037   34.8798 C   0  0  1  0  0  0  0  0  0  0  0  0
    2.6483    1.8330   34.4903 C   0  0  2  0  0  0  0  0  0  0  0  0
    3.1180    2.4115   33.2758 O   0  0  0  0  0  0  0  0  0  0  0  0
    2.9404    2.7213   35.7091 C   0  0  1  0  0  0  0  0  0  0  0  0
    4.4339    2.5213   35.9065 C   0  0  2  0  0  0  0  0  0  0  0  0
    4.5891    1.1356   35.6412 O   0  0  0  0  0  0  0  0  0  0  0  0
    4.9586    2.8578   37.3083 C   0  0  0  0  0  0  0  0  0  0  0  0
    4.7354    4.2304   37.5957 O   0  0  0  0  0  0  0  0  0  0  0  0
   -1.5988    5.0306   35.4057 C   0  0  1  0  0  0  0  0  0  0  0  0
   -1.7090    5.3687   36.7871 O   0  0  0  0  0  0  0  0  0  0  0  0
   -0.6471    6.0383   34.7027 C   0  0  2  0  0  0  0  0  0  0  0  0
   -0.8332    5.9305   33.2934 O   0  0  0  0  0  0  0  0  0  0  0  0
    0.8730    5.8603   35.0244 C   0  0  1  0  0  0  0  0  0  0  0  0
    1.2210    6.5714   36.2743 N   0  3  0  0  0  0  0  0  0  0  0  0
    1.2873    4.3655   35.0489 C   0  0  1  0  0  0  0  0  0  0  0  0
    2.6267    4.1322   35.5496 O   0  0  0  0  0  0  0  0  0  0  0  0
   -1.0470    3.5915   35.2473 C   0  0  1  0  0  0  0  0  0  0  0  0
    0.3009    3.5731   35.7921 O   0  0  0  0  0  0  0  0  0  0  0  0
   -1.9236    2.5117   35.9090 C   0  0  0  0  0  0  0  0  0  0  0  0
   -3.0660    3.0805   36.6505 N   0  3  0  0  0  0  0  0  0  0  0  0
  1  2  1  1  0  0  0
  1  3  1  0  0  0  0
  1 10  1  0  0  0  0
  3  4  1  1  0  0  0
  3  5  1  0  0  0  0
  5  6  1  1  0  0  0
  5  7  1  0  0  0  0
  7  8  1  1  0  0  0
  7  9  1  0  0  0  0
  9 10  1  0  0  0  0
  9 11  1  6  0  0  0
 11 12  1  0  0  0  0
 13 14  1  6  0  0  0
 13 15  1  0  0  0  0
 13 22  1  0  0  0  0
 15 16  1  1  0  0  0
 15 17  1  0  0  0  0
 17 18  1  6  0  0  0
 17 19  1  0  0  0  0
 19  2  1  1  0  0  0
 19 20  1  0  0  0  0
 20 21  1  6  0  0  0
 20 22  1  0  0  0  0
 23 18  1  1  0  0  0
 23 24  1  0  0  0  0
 23 28  1  0  0  0  0
 24 25  1  6  0  0  0
 24 26  1  0  0  0  0
 26 27  1  0  0  0  0
 26 38  1  6  0  0  0
 27 28  1  0  0  0  0
 27 29  1  1  0  0  0
 29 30  1  0  0  0  0
 31 32  1  1  0  0  0
 31 33  1  0  0  0  0
 31 39  1  0  0  0  0
 33 34  1  6  0  0  0
 33 35  1  0  0  0  0
 35 36  1  1  0  0  0
 35 37  1  0  0  0  0
 37 38  1  1  0  0  0
 37 40  1  0  0  0  0
 39 40  1  0  0  0  0
 39 41  1  1  0  0  0
 41 42  1  0  0  0  0
M  CHG  5   4   1  14   1  21   1  36   1  42   1
M  END
>  <CHROM.1>
-100.73405004,-14.73216774,-62.89443947,-67.62484338,155.61835975,67.47569299
69.70724662,-119.58096004,142.71736514,-51.31640440,-153.45299709,-61.50627870
-48.79195433,50.47521947,-61.80088891,-57.48915370,-57.83809889,-173.24224255
90.30960825,173.35883854,-4.30133691,67.01212204,1.76002109,1.38748719,37.08332687
0.91247516,-0.68508697,2.38541026

>  <Name>
1pbr

>  <RI>
0

>  <Rbt.Current_Directory>
/home/itssahil/PROJECTS/Mol_Feturizer/New_Systems/rnas/1pbr

>  <Rbt.Executable>
rbdock ($Id: //depot/dev/client3/rdock/2013.1/src/exe/rbdock.cxx#4 $)

>  <Rbt.Library>
libRbt.so (2013.1, Build901 2013/11/27)

>  <Rbt.Parameter_File>
/export/apps/rDock/src/rDock_2013.1_src/data/scripts/dock_solv.prm

>  <Rbt.Receptor>
prm/blind_docking_80.prm

>  <SCORE>
-21.3954

>  <SCORE.INTER>
-41.9994

>  <SCORE.INTER.CONST>
1

>  <SCORE.INTER.POLAR>
-8.02005

>  <SCORE.INTER.ROT>
9

>  <SCORE.INTER.SOLV>
42.6025

>  <SCORE.INTER.VDW>
-25.067

>  <SCORE.INTER.norm>
-0.999986

>  <SCORE.INTRA>
17.3519

>  <SCORE.INTRA.DIHEDRAL>
6.58788

>  <SCORE.INTRA.DIHEDRAL.0>
29.7866

>  <SCORE.INTRA.POLAR>
-0.407089

>  <SCORE.INTRA.POLAR.0>
-0.984091

>  <SCORE.INTRA.REPUL>
0.619467

>  <SCORE.INTRA.REPUL.0>
0.274115

>  <SCORE.INTRA.SOLV>
8.86446

>  <SCORE.INTRA.SOLV.lig_0>
-152.978

>  <SCORE.INTRA.VDW>
7.91252

>  <SCORE.INTRA.VDW.0>
-6.10719

>  <SCORE.INTRA.norm>
0.413141

>  <SCORE.RESTR>
3.25206

>  <SCORE.RESTR.CAVITY>
3.25206

>  <SCORE.RESTR.norm>
0.0774299

>  <SCORE.SYSTEM>
0

>  <SCORE.SYSTEM.CONST>
0

>  <SCORE.SYSTEM.DIHEDRAL>
0

>  <SCORE.SYSTEM.SOLV>
0

>  <SCORE.SYSTEM.norm>
0

>  <SCORE.heavy>
42

>  <SCORE.norm>
-0.509415

>  <RMSD>
6.172

$$$$
1pbr
 OpenBabel11021811403D
libRbt.so/2013.1/901 2013/11/27
 42 45  0  0  0  0  0  0  0  0999 V2000
    2.9173    0.1483   40.2531 C   0  0  2  0  0  0  0  0  0  0  0  0
    3.2708   -1.2449   40.0603 O   0  0  0  0  0  0  0  0  0  0  0  0
    4.1960    1.0116   40.5661 C   0  0  2  0  0  0  0  0  0  0  0  0
    5.3886    0.6646   39.7503 N   0  3  0  0  0  0  0  0  0  0  0  0
    4.6264    0.8745   42.0387 C   0  0  1  0  0  0  0  0  0  0  0  0
    5.6097    1.8521   42.3716 O   0  0  0  0  0  0  0  0  0  0  0  0
    3.4222    1.0199   42.9814 C   0  0  2  0  0  0  0  0  0  0  0  0
    3.8456    0.9341   44.3385 O   0  0  0  0  0  0  0  0  0  0  0  0
    2.3288   -0.0153   42.6361 C   0  0  2  0  0  0  0  0  0  0  0  0
    1.9000    0.2628   41.2862 O   0  0  0  0  0  0  0  0  0  0  0  0
    1.0995    0.0453   43.5412 C   0  0  0  0  0  0  0  0  0  0  0  0
    1.4480   -0.1872   44.8995 O   0  0  0  0  0  0  0  0  0  0  0  0
    5.0446   -1.8509   36.2270 C   0  0  1  0  0  0  0  0  0  0  0  0
    5.3809   -2.2497   34.8480 N   0  3  0  0  0  0  0  0  0  0  0  0
    3.8138   -0.8959   36.2819 C   0  0  2  0  0  0  0  0  0  0  0  0
    4.0659    0.2848   35.5236 O   0  0  0  0  0  0  0  0  0  0  0  0
    3.4866   -0.4792   37.7457 C   0  0  1  0  0  0  0  0  0  0  0  0
    2.2346    0.2688   37.7485 O   0  0  0  0  0  0  0  0  0  0  0  0
    3.3553   -1.7158   38.6937 C   0  0  1  0  0  0  0  0  0  0  0  0
    4.5700   -2.6926   38.5884 C   0  0  1  0  0  0  0  0  0  0  0  0
    4.3714   -3.8999   39.4205 N   0  3  0  0  0  0  0  0  0  0  0  0
    4.8109   -3.1086   37.1141 C   0  0  0  0  0  0  0  0  0  0  0  0
    2.2550    1.7285   37.8521 C   0  0  1  0  0  0  0  0  0  0  0  0
    2.2581    2.3237   36.4316 C   0  0  2  0  0  0  0  0  0  0  0  0
    2.8434    3.6228   36.4222 O   0  0  0  0  0  0  0  0  0  0  0  0
    0.7425    2.3665   36.1849 C   0  0  1  0  0  0  0  0  0  0  0  0
    0.2116    2.8818   37.5124 C   0  0  2  0  0  0  0  0  0  0  0  0
    1.0356    2.2044   38.4488 O   0  0  0  0  0  0  0  0  0  0  0  0
   -1.2673    2.5791   37.7865 C   0  0  0  0  0  0  0  0  0  0  0  0
   -1.4541    2.2646   39.1585 O   0  0  0  0  0  0  0  0  0  0  0  0
   -1.5660    7.1139   35.1698 C   0  0  1  0  0  0  0  0  0  0  0  0
   -2.3335    6.9155   33.9839 O   0  0  0  0  0  0  0  0  0  0  0  0
   -2.0218    6.0985   36.2546 C   0  0  2  0  0  0  0  0  0  0  0  0
   -1.5330    6.5369   37.5201 O   0  0  0  0  0  0  0  0  0  0  0  0
   -1.5649    4.6208   36.0233 C   0  0  1  0  0  0  0  0  0  0  0  0
   -2.5137    3.9232   35.1276 N   0  3  0  0  0  0  0  0  0  0  0  0
   -0.0983    4.5409   35.5237 C   0  0  1  0  0  0  0  0  0  0  0  0
    0.3065    3.2189   35.0904 O   0  0  0  0  0  0  0  0  0  0  0  0
   -0.0578    6.9202   34.8722 C   0  0  1  0  0  0  0  0  0  0  0  0
    0.1391    5.5364   34.4721 O   0  0  0  0  0  0  0  0  0  0  0  0
    0.4962    7.8858   33.8078 C   0  0  0  0  0  0  0  0  0  0  0  0
    1.8865    7.5733   33.4231 N   0  3  0  0  0  0  0  0  0  0  0  0
  1  2  1  1  0  0  0
  1  3  1  0  0  0  0
  1 10  1  0  0  0  0
  3  4  1  6  0  0  0
  3  5  1  0  0  0  0
  5  6  1  1  0  0  0
  5  7  1  0  0  0  0
  7  8  1  1  0  0  0
  7  9  1  0  0  0  0
  9 10  1  0  0  0  0
  9 11  1  1  0  0  0
 11 12  1  0  0  0  0
 13 14  1  6  0  0  0
 13 15  1  0  0  0  0
 13 22  1  0  0  0  0
 15 16  1  6  0  0  0
 15 17  1  0  0  0  0
 17 18  1  6  0  0  0
 17 19  1  0  0  0  0
 19  2  1  1  0  0  0
 19 20  1  0  0  0  0
 20 21  1  1  0  0  0
 20 22  1  0  0  0  0
 23 18  1  6  0  0  0
 23 24  1  0  0  0  0
 23 28  1  0  0  0  0
 24 25  1  1  0  0  0
 24 26  1  0  0  0  0
 26 27  1  0  0  0  0
 26 38  1  6  0  0  0
 27 28  1  0  0  0  0
 27 29  1  1  0  0  0
 29 30  1  0  0  0  0
 31 32  1  6  0  0  0
 31 33  1  0  0  0  0
 31 39  1  0  0  0  0
 33 34  1  1  0  0  0
 33 35  1  0  0  0  0
 35 36  1  6  0  0  0
 35 37  1  0  0  0  0
 37 38  1  6  0  0  0
 37 40  1  0  0  0  0
 39 40  1  0  0  0  0
 39 41  1  6  0  0  0
 41 42  1  0  0  0  0
M  CHG  5   4   1  14   1  21   1  36   1  42   1
M  END
>  <CHROM.1>
-100.92020689,18.08868955,57.07133819,-62.73180811,43.08455319,-59.88969919
54.51006565,54.29212970,-63.34340578,-102.02115531,92.42353811,68.93474589
162.94792424,-95.72333162,141.89758128,-51.89840333,-61.77473703,-179.83828577
117.94893305,-83.91143825,-172.93232937,50.53562421,1.88942921,1.91398347
38.05213895,0.74323549,-0.89459597,1.73441750

>  <Name>
1pbr

>  <RI>
0

>  <Rbt.Current_Directory>
/home/itssahil/PROJECTS/Mol_Feturizer/New_Systems/rnas/1pbr

>  <Rbt.Executable>
rbdock ($Id: //depot/dev/client3/rdock/2013.1/src/exe/rbdock.cxx#4 $)

>  <Rbt.Library>
libRbt.so (2013.1, Build901 2013/11/27)

>  <Rbt.Parameter_File>
/export/apps/rDock/src/rDock_2013.1_src/data/scripts/dock_solv.prm

>  <Rbt.Receptor>
prm/blind_docking_80.prm

>  <SCORE>
-14.6812

>  <SCORE.INTER>
-38.091

>  <SCORE.INTER.CONST>
1

>  <SCORE.INTER.POLAR>
-5.78362

>  <SCORE.INTER.ROT>
9

>  <SCORE.INTER.SOLV>
36.5706

>  <SCORE.INTER.VDW>
-27.9055

>  <SCORE.INTER.norm>
-0.906929

>  <SCORE.INTRA>
17.4482

>  <SCORE.INTRA.DIHEDRAL>
9.93566

>  <SCORE.INTRA.DIHEDRAL.0>
29.7866

>  <SCORE.INTRA.POLAR>
0.0304947

>  <SCORE.INTRA.POLAR.0>
-0.984091

>  <SCORE.INTRA.REPUL>
-0.217475

>  <SCORE.INTRA.REPUL.0>
0.274115

>  <SCORE.INTRA.SOLV>
1.9151

>  <SCORE.INTRA.SOLV.lig_0>
-152.978

>  <SCORE.INTRA.VDW>
12.5065

>  <SCORE.INTRA.VDW.0>
-6.10719

>  <SCORE.INTRA.norm>
0.415434

>  <SCORE.RESTR>
5.96158

>  <SCORE.RESTR.CAVITY>
5.96158

>  <SCORE.RESTR.norm>
0.141942

>  <SCORE.SYSTEM>
0

>  <SCORE.SYSTEM.CONST>
0

>  <SCORE.SYSTEM.DIHEDRAL>
0

>  <SCORE.SYSTEM.SOLV>
0

>  <SCORE.SYSTEM.norm>
0

>  <SCORE.heavy>
42

>  <SCORE.norm>
-0.349553

>  <RMSD>
6.211

$$$$
1pbr
 OpenBabel11021811403D
libRbt.so/2013.1/901 2013/11/27
 42 45  0  0  0  0  0  0  0  0999 V2000
    2.7470   -2.6555   44.3436 C   0  0  2  0  0  0  0  0  0  0  0  0
    1.4454   -2.7235   44.9795 O   0  0  0  0  0  0  0  0  0  0  0  0
    3.5408   -1.3855   44.8287 C   0  0  2  0  0  0  0  0  0  0  0  0
    3.4199   -1.1014   46.2823 N   0  3  0  0  0  0  0  0  0  0  0  0
    3.0728   -0.1116   44.1001 C   0  0  1  0  0  0  0  0  0  0  0  0
    3.9666    0.9712   44.3494 O   0  0  0  0  0  0  0  0  0  0  0  0
    2.9678   -0.3488   42.5861 C   0  0  2  0  0  0  0  0  0  0  0  0
    2.5765    0.8505   41.9253 O   0  0  0  0  0  0  0  0  0  0  0  0
    2.0185   -1.5290   42.2816 C   0  0  2  0  0  0  0  0  0  0  0  0
    2.5950   -2.7000   42.8978 O   0  0  0  0  0  0  0  0  0  0  0  0
    1.8393   -1.8218   40.7929 C   0  0  0  0  0  0  0  0  0  0  0  0
    3.0659   -2.2198   40.1949 O   0  0  0  0  0  0  0  0  0  0  0  0
   -0.8598   -6.2508   45.6518 C   0  0  1  0  0  0  0  0  0  0  0  0
   -1.7355   -7.4331   45.5559 N   0  3  0  0  0  0  0  0  0  0  0  0
    0.4582   -6.4247   44.8379 C   0  0  2  0  0  0  0  0  0  0  0  0
    1.1852   -7.5589   45.3044 O   0  0  0  0  0  0  0  0  0  0  0  0
    1.3708   -5.1698   44.9651 C   0  0  1  0  0  0  0  0  0  0  0  0
    2.4992   -5.3200   44.0535 O   0  0  0  0  0  0  0  0  0  0  0  0
    0.6040   -3.8489   44.6299 C   0  0  1  0  0  0  0  0  0  0  0  0
   -0.7417   -3.7134   45.4117 C   0  0  1  0  0  0  0  0  0  0  0  0
   -1.4908   -2.5054   45.0007 N   0  3  0  0  0  0  0  0  0  0  0  0
   -1.6243   -4.9712   45.2030 C   0  0  0  0  0  0  0  0  0  0  0  0
    3.5295   -6.3235   44.3242 C   0  0  1  0  0  0  0  0  0  0  0  0
    4.5150   -6.3502   43.1410 C   0  0  2  0  0  0  0  0  0  0  0  0
    5.1587   -7.6173   43.0393 O   0  0  0  0  0  0  0  0  0  0  0  0
    5.4763   -5.2446   43.6030 C   0  0  1  0  0  0  0  0  0  0  0  0
    5.6399   -5.5533   45.0820 C   0  0  2  0  0  0  0  0  0  0  0  0
    4.3242   -5.9310   45.4574 O   0  0  0  0  0  0  0  0  0  0  0  0
    6.1246   -4.3808   45.9446 C   0  0  0  0  0  0  0  0  0  0  0  0
    7.3882   -3.9261   45.4832 O   0  0  0  0  0  0  0  0  0  0  0  0
    7.7909   -4.6869   38.7709 C   0  0  1  0  0  0  0  0  0  0  0  0
    9.0457   -5.3598   38.8565 O   0  0  0  0  0  0  0  0  0  0  0  0
    6.6459   -5.6894   39.0866 C   0  0  2  0  0  0  0  0  0  0  0  0
    5.4142   -5.1259   38.6417 O   0  0  0  0  0  0  0  0  0  0  0  0
    6.5016   -6.0892   40.5916 C   0  0  1  0  0  0  0  0  0  0  0  0
    7.4191   -7.2030   40.9182 N   0  3  0  0  0  0  0  0  0  0  0  0
    6.6793   -4.8692   41.5333 C   0  0  1  0  0  0  0  0  0  0  0  0
    6.7688   -5.2152   42.9373 O   0  0  0  0  0  0  0  0  0  0  0  0
    7.7447   -3.5067   39.7737 C   0  0  1  0  0  0  0  0  0  0  0  0
    7.8315   -4.0628   41.1142 O   0  0  0  0  0  0  0  0  0  0  0  0
    8.8414   -2.4501   39.5433 C   0  0  0  0  0  0  0  0  0  0  0  0
    8.6842   -1.7355   38.2615 N   0  3  0  0  0  0  0  0  0  0  0  0
  1  2  1  1  0  0  0
  1  3  1  0  0  0  0
  1 10  1  0  0  0  0
  3  4  1  1  0  0  0
  3  5  1  0  0  0  0
  5  6  1  6  0  0  0
  5  7  1  0  0  0  0
  7  8  1  6  0  0  0
  7  9  1  0  0  0  0
  9 10  1  0  0  0  0
  9 11  1  6  0  0  0
 11 12  1  0  0  0  0
 13 14  1  6  0  0  0
 13 15  1  0  0  0  0
 13 22  1  0  0  0  0
 15 16  1  1  0  0  0
 15 17  1  0  0  0  0
 17 18  1  6  0  0  0
 17 19  1  0  0  0  0
 19  2  1  1  0  0  0
 19 20  1  0  0  0  0
 20 21  1  6  0  0  0
 20 22  1  0  0  0  0
 23 18  1  6  0  0  0
 23 24  1  0  0  0  0
 23 28  1  0  0  0  0
 24 25  1  1  0  0  0
 24 26  1  0  0  0  0
 26 27  1  0  0  0  0
 26 38  1  6  0  0  0
 27 28  1  0  0  0  0
 27 29  1  1  0  0  0
 29 30  1  0  0  0  0
 31 32  1  1  0  0  0
 31 33  1  0  0  0  0
 31 39  1  0  0  0  0
 33 34  1  1  0  0  0
 33 35  1  0  0  0  0
 35 36  1  1  0  0  0
 35 37  1  0  0  0  0
 37 38  1  1  0  0  0
 37 40  1  0  0  0  0
 39 40  1  0  0  0  0
 39 41  1  6  0  0  0
 41 42  1  0  0  0  0
M  CHG  5   4   1  14   1  21   1  36   1  42   1
M  END
>  <CHROM.1>
-179.74360045,57.74327859,137.09917458,-177.28562711,176.90175570,63.27917491
58.59693577,130.19835683,-54.57274856,-69.71471551,174.71552465,17.37981826
62.75460532,66.63552255,-59.47056354,-179.96419176,67.05814734,69.67277140
-70.12788278,-89.98794545,65.75575166,-178.36743488,3.94247600,-4.02057210
42.98617067,3.03198835,-0.60337496,2.93997500

>  <Name>
1pbr

>  <RI>
0

>  <Rbt.Current_Directory>
/home/itssahil/PROJECTS/Mol_Feturizer/New_Systems/rnas/1pbr

>  <Rbt.Executable>
rbdock ($Id: //depot/dev/client3/rdock/2013.1/src/exe/rbdock.cxx#4 $)

>  <Rbt.Library>
libRbt.so (2013.1, Build901 2013/11/27)

>  <Rbt.Parameter_File>
/export/apps/rDock/src/rDock_2013.1_src/data/scripts/dock_solv.prm

>  <Rbt.Receptor>
prm/pocket_docking_8.prm

>  <SCORE>
-37.0005

>  <SCORE.INTER>
-32.9836

>  <SCORE.INTER.CONST>
1

>  <SCORE.INTER.POLAR>
-5.85679

>  <SCORE.INTER.ROT>
9

>  <SCORE.INTER.SOLV>
20.669

>  <SCORE.INTER.VDW>
-18.9561

>  <SCORE.INTER.norm>
-0.785323

>  <SCORE.INTRA>
-4.01695

>  <SCORE.INTRA.DIHEDRAL>
-13.5826

>  <SCORE.INTRA.DIHEDRAL.0>
29.7866

>  <SCORE.INTRA.POLAR>
0.869179

>  <SCORE.INTRA.POLAR.0>
-0.984091

>  <SCORE.INTRA.REPUL>
-0.273989

>  <SCORE.INTRA.REPUL.0>
0.274115

>  <SCORE.INTRA.SOLV>
-2.51384

>  <SCORE.INTRA.SOLV.lig_0>
-152.978

>  <SCORE.INTRA.VDW>
2.44598

>  <SCORE.INTRA.VDW.0>
-6.10719

>  <SCORE.INTRA.norm>
-0.0956418

>  <SCORE.RESTR>
0

>  <SCORE.RESTR.CAVITY>
0

>  <SCORE.RESTR.norm>
0

>  <SCORE.SYSTEM>
0

>  <SCORE.SYSTEM.CONST>
0

>  <SCORE.SYSTEM.DIHEDRAL>
0

>  <SCORE.SYSTEM.SOLV>
0

>  <SCORE.SYSTEM.norm>
0

>  <SCORE.heavy>
42

>  <SCORE.norm>
-0.880965

>  <RMSD>
6.223

$$$$
1pbr
 OpenBabel11021811403D
libRbt.so/2013.1/901 2013/11/27
 42 45  0  0  0  0  0  0  0  0999 V2000
    2.6771    0.6329   40.1589 C   0  0  2  0  0  0  0  0  0  0  0  0
    3.3195   -0.6056   39.7632 O   0  0  0  0  0  0  0  0  0  0  0  0
    3.7182    1.6215   40.8047 C   0  0  2  0  0  0  0  0  0  0  0  0
    5.0343    1.6665   40.1161 N   0  3  0  0  0  0  0  0  0  0  0  0
    4.0117    1.2570   42.2722 C   0  0  1  0  0  0  0  0  0  0  0  0
    4.7401    2.2998   42.9167 O   0  0  0  0  0  0  0  0  0  0  0  0
    2.7114    0.9895   43.0451 C   0  0  2  0  0  0  0  0  0  0  0  0
    2.9998    0.6973   44.4088 O   0  0  0  0  0  0  0  0  0  0  0  0
    1.8884   -0.1254   42.3622 C   0  0  2  0  0  0  0  0  0  0  0  0
    1.5555    0.3495   41.0405 O   0  0  0  0  0  0  0  0  0  0  0  0
    0.5844   -0.4710   43.0792 C   0  0  0  0  0  0  0  0  0  0  0  0
    0.0767    0.6484   43.7932 O   0  0  0  0  0  0  0  0  0  0  0  0
    5.1882   -1.5493   36.0449 C   0  0  1  0  0  0  0  0  0  0  0  0
    5.5137   -1.8897   34.6478 N   0  3  0  0  0  0  0  0  0  0  0  0
    4.5886   -0.1168   36.1793 C   0  0  2  0  0  0  0  0  0  0  0  0
    5.5064    0.8553   35.6843 O   0  0  0  0  0  0  0  0  0  0  0  0
    4.2653    0.2237   37.6637 C   0  0  1  0  0  0  0  0  0  0  0  0
    3.5554    1.4970   37.7057 O   0  0  0  0  0  0  0  0  0  0  0  0
    3.3920   -0.8810   38.3435 C   0  0  1  0  0  0  0  0  0  0  0  0
    3.9757   -2.3177   38.1543 C   0  0  1  0  0  0  0  0  0  0  0  0
    3.0783   -3.3488   38.7209 N   0  3  0  0  0  0  0  0  0  0  0  0
    4.2270   -2.6124   36.6528 C   0  0  0  0  0  0  0  0  0  0  0  0
    2.0962    1.5174   37.8148 C   0  0  1  0  0  0  0  0  0  0  0  0
    1.5941    2.9275   37.4520 C   0  0  2  0  0  0  0  0  0  0  0  0
    0.3368    3.1970   38.0658 O   0  0  0  0  0  0  0  0  0  0  0  0
    1.4739    2.7564   35.9301 C   0  0  1  0  0  0  0  0  0  0  0  0
    0.8433    1.3792   35.8067 C   0  0  2  0  0  0  0  0  0  0  0  0
    1.5089    0.6514   36.8275 O   0  0  0  0  0  0  0  0  0  0  0  0
    1.0363    0.6914   34.4490 C   0  0  0  0  0  0  0  0  0  0  0  0
    2.3506    0.1627   34.3530 O   0  0  0  0  0  0  0  0  0  0  0  0
    1.7623    7.4371   33.2645 C   0  0  1  0  0  0  0  0  0  0  0  0
    0.4454    7.9853   33.2682 O   0  0  0  0  0  0  0  0  0  0  0  0
    2.2513    7.2611   34.7293 C   0  0  2  0  0  0  0  0  0  0  0  0
    3.6649    7.0764   34.7164 O   0  0  0  0  0  0  0  0  0  0  0  0
    1.5967    6.0789   35.5166 C   0  0  1  0  0  0  0  0  0  0  0  0
    0.3118    6.5067   36.1125 N   0  3  0  0  0  0  0  0  0  0  0  0
    1.4577    4.8070   34.6392 C   0  0  1  0  0  0  0  0  0  0  0  0
    0.6679    3.7548   35.2459 O   0  0  0  0  0  0  0  0  0  0  0  0
    1.7718    6.0669   32.5412 C   0  0  1  0  0  0  0  0  0  0  0  0
    0.9405    5.1557   33.3109 O   0  0  0  0  0  0  0  0  0  0  0  0
    1.3052    6.1333   31.0749 C   0  0  0  0  0  0  0  0  0  0  0  0
   -0.1211    6.4905   30.9461 N   0  3  0  0  0  0  0  0  0  0  0  0
  1  2  1  1  0  0  0
  1  3  1  0  0  0  0
  1 10  1  0  0  0  0
  3  4  1  6  0  0  0
  3  5  1  0  0  0  0
  5  6  1  1  0  0  0
  5  7  1  0  0  0  0
  7  8  1  1  0  0  0
  7  9  1  0  0  0  0
  9 10  1  0  0  0  0
  9 11  1  1  0  0  0
 11 12  1  0  0  0  0
 13 14  1  6  0  0  0
 13 15  1  0  0  0  0
 13 22  1  0  0  0  0
 15 16  1  1  0  0  0
 15 17  1  0  0  0  0
 17 18  1  6  0  0  0
 17 19  1  0  0  0  0
 19  2  1  1  0  0  0
 19 20  1  0  0  0  0
 20 21  1  6  0  0  0
 20 22  1  0  0  0  0
 23 18  1  6  0  0  0
 23 24  1  0  0  0  0
 23 28  1  0  0  0  0
 24 25  1  1  0  0  0
 24 26  1  0  0  0  0
 26 27  1  0  0  0  0
 26 38  1  1  0  0  0
 27 28  1  0  0  0  0
 27 29  1  6  0  0  0
 29 30  1  0  0  0  0
 31 32  1  1  0  0  0
 31 33  1  0  0  0  0
 31 39  1  0  0  0  0
 33 34  1  6  0  0  0
 33 35  1  0  0  0  0
 35 36  1  6  0  0  0
 35 37  1  0  0  0  0
 37 38  1  1  0  0  0
 37 40  1  0  0  0  0
 39 40  1  0  0  0  0
 39 41  1  6  0  0  0
 41 42  1  0  0  0  0
M  CHG  5   4   1  14   1  21   1  36   1  42   1
M  END
>  <CHROM.1>
-113.15799949,63.13944678,-55.20460169,-162.77343925,-54.34062928,28.21643306
-170.97392829,159.31760335,71.70731841,98.50981672,-164.61753946,-176.54426262
-57.57864703,98.38881655,77.26246974,67.49839976,72.66317619,74.27856511
178.05883787,-95.92981922,-66.57240666,38.95211773,2.46296655,2.08566685
37.37553994,1.12018099,-1.16590826,1.82022264

>  <Name>
1pbr

>  <RI>
0

>  <Rbt.Current_Directory>
/home/itssahil/PROJECTS/Mol_Feturizer/New_Systems/rnas/1pbr

>  <Rbt.Executable>
rbdock ($Id: //depot/dev/client3/rdock/2013.1/src/exe/rbdock.cxx#4 $)

>  <Rbt.Library>
libRbt.so (2013.1, Build901 2013/11/27)

>  <Rbt.Parameter_File>
/export/apps/rDock/src/rDock_2013.1_src/data/scripts/dock_solv.prm

>  <Rbt.Receptor>
prm/blind_docking_100.prm

>  <SCORE>
-20.9409

>  <SCORE.INTER>
-29.9887

>  <SCORE.INTER.CONST>
1

>  <SCORE.INTER.POLAR>
-3.94716

>  <SCORE.INTER.ROT>
9

>  <SCORE.INTER.SOLV>
35.8641

>  <SCORE.INTER.VDW>
-28.39

>  <SCORE.INTER.norm>
-0.714016

>  <SCORE.INTRA>
6.72821

>  <SCORE.INTRA.DIHEDRAL>
4.61

>  <SCORE.INTRA.DIHEDRAL.0>
29.7866

>  <SCORE.INTRA.POLAR>
-0.557312

>  <SCORE.INTRA.POLAR.0>
-0.984091

>  <SCORE.INTRA.REPUL>
-0.274115

>  <SCORE.INTRA.REPUL.0>
0.274115

>  <SCORE.INTRA.SOLV>
4.60681

>  <SCORE.INTRA.SOLV.lig_0>
-152.978

>  <SCORE.INTRA.VDW>
5.38524

>  <SCORE.INTRA.VDW.0>
-6.10719

>  <SCORE.INTRA.norm>
0.160195

>  <SCORE.RESTR>
2.31953

>  <SCORE.RESTR.CAVITY>
2.31953

>  <SCORE.RESTR.norm>
0.055227

>  <SCORE.SYSTEM>
0

>  <SCORE.SYSTEM.CONST>
0

>  <SCORE.SYSTEM.DIHEDRAL>
0

>  <SCORE.SYSTEM.SOLV>
0

>  <SCORE.SYSTEM.norm>
0

>  <SCORE.heavy>
42

>  <SCORE.norm>
-0.498594

>  <RMSD>
6.330

$$$$
1pbr
 OpenBabel11021811403D
libRbt.so/2013.1/901 2013/11/27
 42 45  0  0  0  0  0  0  0  0999 V2000
    2.1476   -1.5098   43.9872 C   0  0  2  0  0  0  0  0  0  0  0  0
    3.0023   -1.6991   45.1434 O   0  0  0  0  0  0  0  0  0  0  0  0
    1.1303   -0.3332   44.2304 C   0  0  2  0  0  0  0  0  0  0  0  0
    1.7106    0.8517   44.9141 N   0  3  0  0  0  0  0  0  0  0  0  0
   -0.0646   -0.7853   45.0909 C   0  0  1  0  0  0  0  0  0  0  0  0
   -1.0960    0.1993   45.0817 O   0  0  0  0  0  0  0  0  0  0  0  0
   -0.6308   -2.1225   44.5901 C   0  0  2  0  0  0  0  0  0  0  0  0
   -1.7605   -2.5022   45.3696 O   0  0  0  0  0  0  0  0  0  0  0  0
    0.4673   -3.2090   44.5711 C   0  0  2  0  0  0  0  0  0  0  0  0
    1.4849   -2.7601   43.6512 O   0  0  0  0  0  0  0  0  0  0  0  0
   -0.0159   -4.5810   44.1040 C   0  0  0  0  0  0  0  0  0  0  0  0
    0.9544   -5.5859   44.3674 O   0  0  0  0  0  0  0  0  0  0  0  0
    7.2294   -2.2247   45.3953 C   0  0  1  0  0  0  0  0  0  0  0  0
    8.6228   -2.7024   45.3301 N   0  3  0  0  0  0  0  0  0  0  0  0
    6.6511   -1.8969   43.9854 C   0  0  2  0  0  0  0  0  0  0  0  0
    7.4379   -0.8951   43.3453 O   0  0  0  0  0  0  0  0  0  0  0  0
    5.1847   -1.3830   44.0815 C   0  0  1  0  0  0  0  0  0  0  0  0
    4.6456   -1.2572   42.7322 O   0  0  0  0  0  0  0  0  0  0  0  0
    4.2778   -2.3456   44.9158 C   0  0  1  0  0  0  0  0  0  0  0  0
    4.8951   -2.7093   46.3041 C   0  0  1  0  0  0  0  0  0  0  0  0
    4.0642   -3.6974   47.0273 N   0  3  0  0  0  0  0  0  0  0  0  0
    6.3341   -3.2615   46.1348 C   0  0  0  0  0  0  0  0  0  0  0  0
    5.5093   -0.8106   41.6384 C   0  0  1  0  0  0  0  0  0  0  0  0
    6.3526   -2.0058   41.1563 C   0  0  2  0  0  0  0  0  0  0  0  0
    7.5641   -1.5658   40.5489 O   0  0  0  0  0  0  0  0  0  0  0  0
    5.3703   -2.5971   40.1339 C   0  0  1  0  0  0  0  0  0  0  0  0
    4.8508   -1.3561   39.4270 C   0  0  2  0  0  0  0  0  0  0  0  0
    4.7173   -0.4341   40.4979 O   0  0  0  0  0  0  0  0  0  0  0  0
    3.5096   -1.5299   38.7027 C   0  0  0  0  0  0  0  0  0  0  0  0
    3.2470   -0.3988   37.8854 O   0  0  0  0  0  0  0  0  0  0  0  0
    4.5163   -7.6043   38.9255 C   0  0  1  0  0  0  0  0  0  0  0  0
    4.0288   -7.4906   37.5898 O   0  0  0  0  0  0  0  0  0  0  0  0
    6.0576   -7.4041   38.9303 C   0  0  2  0  0  0  0  0  0  0  0  0
    6.5730   -7.8808   40.1712 O   0  0  0  0  0  0  0  0  0  0  0  0
    6.5427   -5.9328   38.7162 C   0  0  1  0  0  0  0  0  0  0  0  0
    6.6164   -5.6205   37.2719 N   0  3  0  0  0  0  0  0  0  0  0  0
    5.6756   -4.9176   39.5065 C   0  0  1  0  0  0  0  0  0  0  0  0
    5.9428   -3.5319   39.1784 O   0  0  0  0  0  0  0  0  0  0  0  0
    3.8475   -6.5420   39.8337 C   0  0  1  0  0  0  0  0  0  0  0  0
    4.2506   -5.2313   39.3505 O   0  0  0  0  0  0  0  0  0  0  0  0
    2.3131   -6.6567   39.9008 C   0  0  0  0  0  0  0  0  0  0  0  0
    1.8625   -7.8402   40.6590 N   0  3  0  0  0  0  0  0  0  0  0  0
  1  2  1  1  0  0  0
  1  3  1  0  0  0  0
  1 10  1  0  0  0  0
  3  4  1  1  0  0  0
  3  5  1  0  0  0  0
  5  6  1  6  0  0  0
  5  7  1  0  0  0  0
  7  8  1  1  0  0  0
  7  9  1  0  0  0  0
  9 10  1  0  0  0  0
  9 11  1  6  0  0  0
 11 12  1  0  0  0  0
 13 14  1  6  0  0  0
 13 15  1  0  0  0  0
 13 22  1  0  0  0  0
 15 16  1  1  0  0  0
 15 17  1  0  0  0  0
 17 18  1  6  0  0  0
 17 19  1  0  0  0  0
 19  2  1  1  0  0  0
 19 20  1  0  0  0  0
 20 21  1  6  0  0  0
 20 22  1  0  0  0  0
 23 18  1  1  0  0  0
 23 24  1  0  0  0  0
 23 28  1  0  0  0  0
 24 25  1  6  0  0  0
 24 26  1  0  0  0  0
 26 27  1  0  0  0  0
 26 38  1  6  0  0  0
 27 28  1  0  0  0  0
 27 29  1  1  0  0  0
 29 30  1  0  0  0  0
 31 32  1  6  0  0  0
 31 33  1  0  0  0  0
 31 39  1  0  0  0  0
 33 34  1  1  0  0  0
 33 35  1  0  0  0  0
 35 36  1  6  0  0  0
 35 37  1  0  0  0  0
 37 38  1  6  0  0  0
 37 40  1  0  0  0  0
 39 40  1  0  0  0  0
 39 41  1  6  0  0  0
 41 42  1  0  0  0  0
M  CHG  5   4   1  14   1  21   1  36   1  42   1
M  END
>  <CHROM.1>
-156.83794100,68.58975707,-33.39543296,-69.29313884,162.39239584,-168.00451444
66.93889040,-49.64446059,-58.93463339,-36.37412174,80.19410061,-51.80600915
66.70272231,101.48276145,-169.36966158,-174.65381953,68.13338599,-58.50683512
-169.60574624,-166.12338734,71.10698179,-173.38885371,3.93869189,-3.19412429
42.23924545,2.07018841,0.29320784,0.83200806

>  <Name>
1pbr

>  <RI>
0

>  <Rbt.Current_Directory>
/home/itssahil/PROJECTS/Mol_Feturizer/New_Systems/rnas/1pbr

>  <Rbt.Executable>
rbdock ($Id: //depot/dev/client3/rdock/2013.1/src/exe/rbdock.cxx#4 $)

>  <Rbt.Library>
libRbt.so (2013.1, Build901 2013/11/27)

>  <Rbt.Parameter_File>
/export/apps/rDock/src/rDock_2013.1_src/data/scripts/dock_solv.prm

>  <Rbt.Receptor>
prm/pocket_docking_8.prm

>  <SCORE>
-33.4886

>  <SCORE.INTER>
-31.7226

>  <SCORE.INTER.CONST>
1

>  <SCORE.INTER.POLAR>
-5.746

>  <SCORE.INTER.ROT>
9

>  <SCORE.INTER.SOLV>
21.7844

>  <SCORE.INTER.VDW>
-18.8566

>  <SCORE.INTER.norm>
-0.755301

>  <SCORE.INTRA>
-1.76594

>  <SCORE.INTRA.DIHEDRAL>
-9.32925

>  <SCORE.INTRA.DIHEDRAL.0>
29.7866

>  <SCORE.INTRA.POLAR>
0.47184

>  <SCORE.INTRA.POLAR.0>
-0.984091

>  <SCORE.INTRA.REPUL>
-0.274115

>  <SCORE.INTRA.REPUL.0>
0.274115

>  <SCORE.INTRA.SOLV>
-5.0153

>  <SCORE.INTRA.SOLV.lig_0>
-152.978

>  <SCORE.INTRA.VDW>
5.17265

>  <SCORE.INTRA.VDW.0>
-6.10719

>  <SCORE.INTRA.norm>
-0.0420463

>  <SCORE.RESTR>
0

>  <SCORE.RESTR.CAVITY>
0

>  <SCORE.RESTR.norm>
0

>  <SCORE.SYSTEM>
0

>  <SCORE.SYSTEM.CONST>
0

>  <SCORE.SYSTEM.DIHEDRAL>
0

>  <SCORE.SYSTEM.SOLV>
0

>  <SCORE.SYSTEM.norm>
0

>  <SCORE.heavy>
42

>  <SCORE.norm>
-0.797347

>  <RMSD>
6.377

$$$$
1pbr
 OpenBabel11021811403D
libRbt.so/2013.1/901 2013/11/27
 42 45  0  0  0  0  0  0  0  0999 V2000
    2.9687    0.7541   41.3820 C   0  0  2  0  0  0  0  0  0  0  0  0
    3.7508   -0.2881   40.7454 O   0  0  0  0  0  0  0  0  0  0  0  0
    3.7229    1.3315   42.6374 C   0  0  2  0  0  0  0  0  0  0  0  0
    5.1831    1.5269   42.4430 N   0  3  0  0  0  0  0  0  0  0  0  0
    3.5705    0.4115   43.8634 C   0  0  1  0  0  0  0  0  0  0  0  0
    4.0253    1.0652   45.0463 O   0  0  0  0  0  0  0  0  0  0  0  0
    2.1087   -0.0222   44.0496 C   0  0  2  0  0  0  0  0  0  0  0  0
    1.9802   -0.8356   45.2115 O   0  0  0  0  0  0  0  0  0  0  0  0
    1.5785   -0.7197   42.7773 C   0  0  2  0  0  0  0  0  0  0  0  0
    1.6445    0.2495   41.7098 O   0  0  0  0  0  0  0  0  0  0  0  0
    0.1333   -1.2038   42.8833 C   0  0  0  0  0  0  0  0  0  0  0  0
   -0.1423   -2.2167   41.9248 O   0  0  0  0  0  0  0  0  0  0  0  0
    5.8166    0.5586   37.1090 C   0  0  1  0  0  0  0  0  0  0  0  0
    6.2536    0.7157   35.7096 N   0  3  0  0  0  0  0  0  0  0  0  0
    4.6154    1.4878   37.4603 C   0  0  2  0  0  0  0  0  0  0  0  0
    4.9654    2.8540   37.2516 O   0  0  0  0  0  0  0  0  0  0  0  0
    4.1809    1.3131   38.9450 C   0  0  1  0  0  0  0  0  0  0  0  0
    2.9565    2.0742   39.1649 O   0  0  0  0  0  0  0  0  0  0  0  0
    3.9337   -0.1866   39.3126 C   0  0  1  0  0  0  0  0  0  0  0  0
    5.1225   -1.1149   38.9055 C   0  0  1  0  0  0  0  0  0  0  0  0
    4.8188   -2.5379   39.1746 N   0  3  0  0  0  0  0  0  0  0  0  0
    5.4718   -0.9301   37.4061 C   0  0  0  0  0  0  0  0  0  0  0  0
    1.6540    1.4410   38.9541 C   0  0  1  0  0  0  0  0  0  0  0  0
    0.5584    2.3695   39.5105 C   0  0  2  0  0  0  0  0  0  0  0  0
   -0.6048    1.6299   39.8715 O   0  0  0  0  0  0  0  0  0  0  0  0
    0.3297    3.2438   38.2683 C   0  0  1  0  0  0  0  0  0  0  0  0
    0.3344    2.2202   37.1451 C   0  0  2  0  0  0  0  0  0  0  0  0
    1.3703    1.3373   37.5476 O   0  0  0  0  0  0  0  0  0  0  0  0
    0.6270    2.7840   35.7485 C   0  0  0  0  0  0  0  0  0  0  0  0
    1.9183    3.3740   35.7219 O   0  0  0  0  0  0  0  0  0  0  0  0
   -1.1485    7.3629   35.5374 C   0  0  1  0  0  0  0  0  0  0  0  0
   -2.0131    6.7141   34.6067 O   0  0  0  0  0  0  0  0  0  0  0  0
   -1.8801    7.5162   36.9001 C   0  0  2  0  0  0  0  0  0  0  0  0
   -1.1761    8.4737   37.6876 O   0  0  0  0  0  0  0  0  0  0  0  0
   -2.0351    6.1993   37.7292 C   0  0  1  0  0  0  0  0  0  0  0  0
   -3.2365    5.4546   37.2921 N   0  3  0  0  0  0  0  0  0  0  0  0
   -0.7464    5.3364   37.6895 C   0  0  1  0  0  0  0  0  0  0  0  0
   -0.9042    4.0133   38.2583 O   0  0  0  0  0  0  0  0  0  0  0  0
    0.1492    6.5385   35.7298 C   0  0  1  0  0  0  0  0  0  0  0  0
   -0.2216    5.2631   36.3211 O   0  0  0  0  0  0  0  0  0  0  0  0
    0.9539    6.3316   34.4330 C   0  0  0  0  0  0  0  0  0  0  0  0
    2.3755    6.0263   34.6868 N   0  3  0  0  0  0  0  0  0  0  0  0
  1  2  1  1  0  0  0
  1  3  1  0  0  0  0
  1 10  1  0  0  0  0
  3  4  1  6  0  0  0
  3  5  1  0  0  0  0
  5  6  1  1  0  0  0
  5  7  1  0  0  0  0
  7  8  1  1  0  0  0
  7  9  1  0  0  0  0
  9 10  1  0  0  0  0
  9 11  1  1  0  0  0
 11 12  1  0  0  0  0
 13 14  1  6  0  0  0
 13 15  1  0  0  0  0
 13 22  1  0  0  0  0
 15 16  1  1  0  0  0
 15 17  1  0  0  0  0
 17 18  1  6  0  0  0
 17 19  1  0  0  0  0
 19  2  1  1  0  0  0
 19 20  1  0  0  0  0
 20 21  1  6  0  0  0
 20 22  1  0  0  0  0
 23 18  1  6  0  0  0
 23 24  1  0  0  0  0
 23 28  1  0  0  0  0
 24 25  1  6  0  0  0
 24 26  1  0  0  0  0
 26 27  1  0  0  0  0
 26 38  1  1  0  0  0
 27 28  1  0  0  0  0
 27 29  1  6  0  0  0
 29 30  1  0  0  0  0
 31 32  1  6  0  0  0
 31 33  1  0  0  0  0
 31 39  1  0  0  0  0
 33 34  1  1  0  0  0
 33 35  1  0  0  0  0
 35 36  1  6  0  0  0
 35 37  1  0  0  0  0
 37 38  1  6  0  0  0
 37 40  1  0  0  0  0
 39 40  1  0  0  0  0
 39 41  1  6  0  0  0
 41 42  1  0  0  0  0
M  CHG  5   4   1  14   1  21   1  36   1  42   1
M  END
>  <CHROM.1>
-130.56512221,40.21624962,-169.26444007,-68.16299814,64.36092260,-159.27425314
-173.18330234,-57.41800916,-51.91379362,89.99391253,169.30229838,73.05063659
-164.42630869,141.74154357,61.20345628,-44.20232774,70.43022258,173.30951875
-62.58292738,-177.28975805,157.94855162,-168.42636199,1.78335812,2.33511131
38.92162461,1.04408428,-0.57945433,2.10346243

>  <Name>
1pbr

>  <RI>
0

>  <Rbt.Current_Directory>
/home/itssahil/PROJECTS/Mol_Feturizer/New_Systems/rnas/1pbr

>  <Rbt.Executable>
rbdock ($Id: //depot/dev/client3/rdock/2013.1/src/exe/rbdock.cxx#4 $)

>  <Rbt.Library>
libRbt.so (2013.1, Build901 2013/11/27)

>  <Rbt.Parameter_File>
/export/apps/rDock/src/rDock_2013.1_src/data/scripts/dock_solv.prm

>  <Rbt.Receptor>
prm/blind_docking_60.prm

>  <SCORE>
-36.728

>  <SCORE.INTER>
-40.4923

>  <SCORE.INTER.CONST>
1

>  <SCORE.INTER.POLAR>
-5.9748

>  <SCORE.INTER.ROT>
9

>  <SCORE.INTER.SOLV>
28.5666

>  <SCORE.INTER.VDW>
-26.201

>  <SCORE.INTER.norm>
-0.964101

>  <SCORE.INTRA>
0.762688

>  <SCORE.INTRA.DIHEDRAL>
-3.33621

>  <SCORE.INTRA.DIHEDRAL.0>
29.7866

>  <SCORE.INTRA.POLAR>
-0.164267

>  <SCORE.INTRA.POLAR.0>
-0.984091

>  <SCORE.INTRA.REPUL>
-0.274115

>  <SCORE.INTRA.REPUL.0>
0.274115

>  <SCORE.INTRA.SOLV>
0.00708679

>  <SCORE.INTRA.SOLV.lig_0>
-152.978

>  <SCORE.INTRA.VDW>
4.35633

>  <SCORE.INTRA.VDW.0>
-6.10719

>  <SCORE.INTRA.norm>
0.0181592

>  <SCORE.RESTR>
3.00156

>  <SCORE.RESTR.CAVITY>
3.00156

>  <SCORE.RESTR.norm>
0.0714658

>  <SCORE.SYSTEM>
0

>  <SCORE.SYSTEM.CONST>
0

>  <SCORE.SYSTEM.DIHEDRAL>
0

>  <SCORE.SYSTEM.SOLV>
0

>  <SCORE.SYSTEM.norm>
0

>  <SCORE.heavy>
42

>  <SCORE.norm>
-0.874476

>  <RMSD>
6.435

$$$$
1pbr
 OpenBabel11021811403D
libRbt.so/2013.1/901 2013/11/27
 42 45  0  0  0  0  0  0  0  0999 V2000
    8.0225   -3.5337   44.0996 C   0  0  2  0  0  0  0  0  0  0  0  0
    7.8703   -2.1207   43.8109 O   0  0  0  0  0  0  0  0  0  0  0  0
    9.2056   -4.1510   43.2644 C   0  0  2  0  0  0  0  0  0  0  0  0
   10.4118   -3.2878   43.1737 N   0  3  0  0  0  0  0  0  0  0  0  0
    8.7803   -4.4511   41.8147 C   0  0  1  0  0  0  0  0  0  0  0  0
    9.7635   -5.2438   41.1527 O   0  0  0  0  0  0  0  0  0  0  0  0
    7.4276   -5.1780   41.7757 C   0  0  2  0  0  0  0  0  0  0  0  0
    7.0720   -5.4856   40.4314 O   0  0  0  0  0  0  0  0  0  0  0  0
    6.3416   -4.3525   42.5009 C   0  0  2  0  0  0  0  0  0  0  0  0
    6.7618   -4.2237   43.8757 O   0  0  0  0  0  0  0  0  0  0  0  0
    4.9553   -4.9944   42.4918 C   0  0  0  0  0  0  0  0  0  0  0  0
    4.9739   -6.2695   43.1197 O   0  0  0  0  0  0  0  0  0  0  0  0
    4.8146   -1.5712   46.7382 C   0  0  1  0  0  0  0  0  0  0  0  0
    3.8128   -1.0519   47.6872 N   0  3  0  0  0  0  0  0  0  0  0  0
    4.4127   -1.3120   45.2547 C   0  0  2  0  0  0  0  0  0  0  0  0
    3.1599   -1.9271   44.9637 O   0  0  0  0  0  0  0  0  0  0  0  0
    5.4788   -1.8800   44.2727 C   0  0  1  0  0  0  0  0  0  0  0  0
    5.1358   -1.4603   42.9187 O   0  0  0  0  0  0  0  0  0  0  0  0
    6.9210   -1.3857   44.6204 C   0  0  1  0  0  0  0  0  0  0  0  0
    7.2906   -1.6017   46.1228 C   0  0  1  0  0  0  0  0  0  0  0  0
    8.6194   -1.0351   46.4435 N   0  3  0  0  0  0  0  0  0  0  0  0
    6.2171   -0.9697   47.0463 C   0  0  0  0  0  0  0  0  0  0  0  0
    4.8712   -0.0491   42.6356 C   0  0  1  0  0  0  0  0  0  0  0  0
    5.4346    0.2885   41.2425 C   0  0  2  0  0  0  0  0  0  0  0  0
    5.7406    1.6761   41.1364 O   0  0  0  0  0  0  0  0  0  0  0  0
    4.2198   -0.1063   40.3891 C   0  0  1  0  0  0  0  0  0  0  0  0
    3.0606    0.4602   41.1922 C   0  0  2  0  0  0  0  0  0  0  0  0
    3.4555    0.1821   42.5268 O   0  0  0  0  0  0  0  0  0  0  0  0
    1.6928   -0.1695   40.8986 C   0  0  0  0  0  0  0  0  0  0  0  0
    0.6844    0.4787   41.6597 O   0  0  0  0  0  0  0  0  0  0  0  0
    5.9379   -1.7545   35.7165 C   0  0  1  0  0  0  0  0  0  0  0  0
    4.7304   -1.8250   34.9604 O   0  0  0  0  0  0  0  0  0  0  0  0
    6.3613   -0.2674   35.8741 C   0  0  2  0  0  0  0  0  0  0  0  0
    7.7246   -0.2254   36.2888 O   0  0  0  0  0  0  0  0  0  0  0  0
    5.5039    0.5704   36.8785 C   0  0  1  0  0  0  0  0  0  0  0  0
    4.2960    1.0991   36.2075 N   0  3  0  0  0  0  0  0  0  0  0  0
    5.1736   -0.2313   38.1650 C   0  0  1  0  0  0  0  0  0  0  0  0
    4.2082    0.4142   39.0313 O   0  0  0  0  0  0  0  0  0  0  0  0
    5.7346   -2.3919   37.1140 C   0  0  1  0  0  0  0  0  0  0  0  0
    4.7484   -1.5937   37.8240 O   0  0  0  0  0  0  0  0  0  0  0  0
    5.3153   -3.8732   37.0682 C   0  0  0  0  0  0  0  0  0  0  0  0
    5.0427   -4.4302   38.4076 N   0  3  0  0  0  0  0  0  0  0  0  0
  1  2  1  6  0  0  0
  1  3  1  0  0  0  0
  1 10  1  0  0  0  0
  3  4  1  6  0  0  0
  3  5  1  0  0  0  0
  5  6  1  1  0  0  0
  5  7  1  0  0  0  0
  7  8  1  6  0  0  0
  7  9  1  0  0  0  0
  9 10  1  0  0  0  0
  9 11  1  1  0  0  0
 11 12  1  0  0  0  0
 13 14  1  1  0  0  0
 13 15  1  0  0  0  0
 13 22  1  0  0  0  0
 15 16  1  6  0  0  0
 15 17  1  0  0  0  0
 17 18  1  6  0  0  0
 17 19  1  0  0  0  0
 19  2  1  6  0  0  0
 19 20  1  0  0  0  0
 20 21  1  6  0  0  0
 20 22  1  0  0  0  0
 23 18  1  6  0  0  0
 23 24  1  0  0  0  0
 23 28  1  0  0  0  0
 24 25  1  1  0  0  0
 24 26  1  0  0  0  0
 26 27  1  0  0  0  0
 26 38  1  6  0  0  0
 27 28  1  0  0  0  0
 27 29  1  6  0  0  0
 29 30  1  0  0  0  0
 31 32  1  6  0  0  0
 31 33  1  0  0  0  0
 31 39  1  0  0  0  0
 33 34  1  1  0  0  0
 33 35  1  0  0  0  0
 35 36  1  6  0  0  0
 35 37  1  0  0  0  0
 37 38  1  6  0  0  0
 37 40  1  0  0  0  0
 39 40  1  0  0  0  0
 39 41  1  6  0  0  0
 41 42  1  0  0  0  0
M  CHG  5   4   1  14   1  21   1  36   1  42   1
M  END
>  <CHROM.1>
-173.07888764,-68.36113599,-67.84680561,-63.87268165,174.87213123,59.61325681
59.24922148,-27.49044771,66.32129656,51.29194409,143.16329496,66.74586289
-175.31849212,72.38550465,-177.36009336,177.60010020,57.57244070,69.81584728
177.29250295,-161.72272663,-176.23150526,-70.97730539,5.73669643,-1.89490933
41.47829816,-1.36070045,0.77817246,-1.54118228

>  <Name>
1pbr

>  <RI>
0

>  <Rbt.Current_Directory>
/home/itssahil/PROJECTS/Mol_Feturizer/New_Systems/rnas/1pbr

>  <Rbt.Executable>
rbdock ($Id: //depot/dev/client3/rdock/2013.1/src/exe/rbdock.cxx#4 $)

>  <Rbt.Library>
libRbt.so (2013.1, Build901 2013/11/27)

>  <Rbt.Parameter_File>
/export/apps/rDock/src/rDock_2013.1_src/data/scripts/dock_solv.prm

>  <Rbt.Receptor>
prm/pocket_docking_7.prm

>  <SCORE>
-33.8149

>  <SCORE.INTER>
-23.7129

>  <SCORE.INTER.CONST>
1

>  <SCORE.INTER.POLAR>
-3.24575

>  <SCORE.INTER.ROT>
9

>  <SCORE.INTER.SOLV>
16.7708

>  <SCORE.INTER.VDW>
-20.1797

>  <SCORE.INTER.norm>
-0.564592

>  <SCORE.INTRA>
-10.1021

>  <SCORE.INTRA.DIHEDRAL>
-17.2644

>  <SCORE.INTRA.DIHEDRAL.0>
29.7866

>  <SCORE.INTRA.POLAR>
-0.216208

>  <SCORE.INTRA.POLAR.0>
-0.984091

>  <SCORE.INTRA.REPUL>
-0.270014

>  <SCORE.INTRA.REPUL.0>
0.274115

>  <SCORE.INTRA.SOLV>
-0.143135

>  <SCORE.INTRA.SOLV.lig_0>
-152.978

>  <SCORE.INTRA.VDW>
0.686861

>  <SCORE.INTRA.VDW.0>
-6.10719

>  <SCORE.INTRA.norm>
-0.240526

>  <SCORE.RESTR>
0

>  <SCORE.RESTR.CAVITY>
0

>  <SCORE.RESTR.norm>
0

>  <SCORE.SYSTEM>
0

>  <SCORE.SYSTEM.CONST>
0

>  <SCORE.SYSTEM.DIHEDRAL>
0

>  <SCORE.SYSTEM.SOLV>
0

>  <SCORE.SYSTEM.norm>
0

>  <SCORE.heavy>
42

>  <SCORE.norm>
-0.805118

>  <RMSD>
6.443

$$$$
1pbr
 OpenBabel11021811403D
libRbt.so/2013.1/901 2013/11/27
 42 45  0  0  0  0  0  0  0  0999 V2000
    2.7275   -1.0206   40.4765 C   0  0  2  0  0  0  0  0  0  0  0  0
    3.8193   -0.1656   40.0523 O   0  0  0  0  0  0  0  0  0  0  0  0
    1.3379   -0.3578   40.1480 C   0  0  2  0  0  0  0  0  0  0  0  0
    1.2722    0.3110   38.8225 N   0  3  0  0  0  0  0  0  0  0  0  0
    0.9592    0.7118   41.1897 C   0  0  1  0  0  0  0  0  0  0  0  0
   -0.4011    1.1103   41.0343 O   0  0  0  0  0  0  0  0  0  0  0  0
    1.1791    0.1926   42.6186 C   0  0  2  0  0  0  0  0  0  0  0  0
    0.7829    1.1780   43.5674 O   0  0  0  0  0  0  0  0  0  0  0  0
    2.6415   -0.2645   42.8158 C   0  0  2  0  0  0  0  0  0  0  0  0
    2.8715   -1.3450   41.8870 O   0  0  0  0  0  0  0  0  0  0  0  0
    2.9542   -0.7779   44.2203 C   0  0  0  0  0  0  0  0  0  0  0  0
    1.8611   -1.5123   44.7555 O   0  0  0  0  0  0  0  0  0  0  0  0
    7.5154   -0.4002   37.9330 C   0  0  1  0  0  0  0  0  0  0  0  0
    8.6978   -0.8035   37.1498 N   0  3  0  0  0  0  0  0  0  0  0  0
    6.2181   -0.3681   37.0694 C   0  0  2  0  0  0  0  0  0  0  0  0
    6.3664    0.5422   35.9823 O   0  0  0  0  0  0  0  0  0  0  0  0
    4.9872    0.0723   37.9147 C   0  0  1  0  0  0  0  0  0  0  0  0
    3.7855   -0.0807   37.1026 O   0  0  0  0  0  0  0  0  0  0  0  0
    4.8408   -0.7708   39.2235 C   0  0  1  0  0  0  0  0  0  0  0  0
    6.1636   -0.8399   40.0517 C   0  0  1  0  0  0  0  0  0  0  0  0
    6.0226   -1.7240   41.2299 N   0  3  0  0  0  0  0  0  0  0  0  0
    7.3376   -1.3328   39.1668 C   0  0  0  0  0  0  0  0  0  0  0  0
    3.7016    0.5648   35.7918 C   0  0  1  0  0  0  0  0  0  0  0  0
    2.2463    0.4837   35.2943 C   0  0  2  0  0  0  0  0  0  0  0  0
    2.1874    0.5423   33.8719 O   0  0  0  0  0  0  0  0  0  0  0  0
    1.6952    1.7577   35.9525 C   0  0  1  0  0  0  0  0  0  0  0  0
    2.8103    2.7600   35.7043 C   0  0  2  0  0  0  0  0  0  0  0  0
    3.9732    1.9726   35.9096 O   0  0  0  0  0  0  0  0  0  0  0  0
    2.8169    3.9752   36.6409 C   0  0  0  0  0  0  0  0  0  0  0  0
    2.6900    5.1720   35.8873 O   0  0  0  0  0  0  0  0  0  0  0  0
   -1.5365    6.0454   36.0308 C   0  0  1  0  0  0  0  0  0  0  0  0
   -2.3149    5.9841   34.8370 O   0  0  0  0  0  0  0  0  0  0  0  0
   -1.9511    4.8838   36.9765 C   0  0  2  0  0  0  0  0  0  0  0  0
   -1.4564    5.1647   38.2838 O   0  0  0  0  0  0  0  0  0  0  0  0
   -1.4594    3.4625   36.5474 C   0  0  1  0  0  0  0  0  0  0  0  0
   -2.4021    2.8634   35.5771 N   0  3  0  0  0  0  0  0  0  0  0  0
    0.0017    3.4893   36.0267 C   0  0  1  0  0  0  0  0  0  0  0  0
    0.4345    2.2476   35.4184 O   0  0  0  0  0  0  0  0  0  0  0  0
   -0.0281    5.9340   35.6949 C   0  0  1  0  0  0  0  0  0  0  0  0
    0.1989    4.6209   35.1135 O   0  0  0  0  0  0  0  0  0  0  0  0
    0.4862    7.0462   34.7618 C   0  0  0  0  0  0  0  0  0  0  0  0
    1.1797    8.1263   35.4906 N   0  3  0  0  0  0  0  0  0  0  0  0
  1  2  1  1  0  0  0
  1  3  1  0  0  0  0
  1 10  1  0  0  0  0
  3  4  1  6  0  0  0
  3  5  1  0  0  0  0
  5  6  1  1  0  0  0
  5  7  1  0  0  0  0
  7  8  1  1  0  0  0
  7  9  1  0  0  0  0
  9 10  1  0  0  0  0
  9 11  1  1  0  0  0
 11 12  1  0  0  0  0
 13 14  1  6  0  0  0
 13 15  1  0  0  0  0
 13 22  1  0  0  0  0
 15 16  1  6  0  0  0
 15 17  1  0  0  0  0
 17 18  1  6  0  0  0
 17 19  1  0  0  0  0
 19  2  1  1  0  0  0
 19 20  1  0  0  0  0
 20 21  1  1  0  0  0
 20 22  1  0  0  0  0
 23 18  1  1  0  0  0
 23 24  1  0  0  0  0
 23 28  1  0  0  0  0
 24 25  1  6  0  0  0
 24 26  1  0  0  0  0
 26 27  1  0  0  0  0
 26 38  1  6  0  0  0
 27 28  1  0  0  0  0
 27 29  1  1  0  0  0
 29 30  1  0  0  0  0
 31 32  1  6  0  0  0
 31 33  1  0  0  0  0
 31 39  1  0  0  0  0
 33 34  1  1  0  0  0
 33 35  1  0  0  0  0
 35 36  1  6  0  0  0
 35 37  1  0  0  0  0
 37 38  1  6  0  0  0
 37 40  1  0  0  0  0
 39 40  1  0  0  0  0
 39 41  1  6  0  0  0
 41 42  1  0  0  0  0
M  CHG  5   4   1  14   1  21   1  36   1  42   1
M  END
>  <CHROM.1>
-128.45775703,125.32003746,152.15082170,-172.66900915,68.50518171,37.32655229
-173.49296601,175.50728896,-60.34812916,-54.57037838,-168.44832672,93.72417433
-115.34139433,-176.81592717,-120.45950678,-176.91297092,48.26283523,-59.05328665
-111.74109924,-128.89532444,99.65984589,60.30179271,2.29056442,1.68447460
38.09958239,0.92948905,-0.51316565,2.07396396

>  <Name>
1pbr

>  <RI>
0

>  <Rbt.Current_Directory>
/home/itssahil/PROJECTS/Mol_Feturizer/New_Systems/rnas/1pbr

>  <Rbt.Executable>
rbdock ($Id: //depot/dev/client3/rdock/2013.1/src/exe/rbdock.cxx#4 $)

>  <Rbt.Library>
libRbt.so (2013.1, Build901 2013/11/27)

>  <Rbt.Parameter_File>
/export/apps/rDock/src/rDock_2013.1_src/data/scripts/dock_solv.prm

>  <Rbt.Receptor>
prm/blind_docking_60.prm

>  <SCORE>
-42.3118

>  <SCORE.INTER>
-55.1619

>  <SCORE.INTER.CONST>
1

>  <SCORE.INTER.POLAR>
-9.16524

>  <SCORE.INTER.ROT>
9

>  <SCORE.INTER.SOLV>
34.3315

>  <SCORE.INTER.VDW>
-27.2676

>  <SCORE.INTER.norm>
-1.31338

>  <SCORE.INTRA>
9.44045

>  <SCORE.INTRA.DIHEDRAL>
18.3564

>  <SCORE.INTRA.DIHEDRAL.0>
29.7866

>  <SCORE.INTRA.POLAR>
-0.935857

>  <SCORE.INTRA.POLAR.0>
-0.984091

>  <SCORE.INTRA.REPUL>
-0.274115

>  <SCORE.INTRA.REPUL.0>
0.274115

>  <SCORE.INTRA.SOLV>
3.94905

>  <SCORE.INTRA.SOLV.lig_0>
-152.978

>  <SCORE.INTRA.VDW>
2.84021

>  <SCORE.INTRA.VDW.0>
-6.10719

>  <SCORE.INTRA.norm>
0.224773

>  <SCORE.RESTR>
3.40965

>  <SCORE.RESTR.CAVITY>
3.40965

>  <SCORE.RESTR.norm>
0.0811821

>  <SCORE.SYSTEM>
0

>  <SCORE.SYSTEM.CONST>
0

>  <SCORE.SYSTEM.DIHEDRAL>
0

>  <SCORE.SYSTEM.SOLV>
0

>  <SCORE.SYSTEM.norm>
0

>  <SCORE.heavy>
42

>  <SCORE.norm>
-1.00742

>  <RMSD>
6.454

$$$$
1pbr
 OpenBabel11021811403D
libRbt.so/2013.1/901 2013/11/27
 42 45  0  0  0  0  0  0  0  0999 V2000
    2.3402   -6.9867   42.1872 C   0  0  2  0  0  0  0  0  0  0  0  0
    0.9720   -6.7839   42.6232 O   0  0  0  0  0  0  0  0  0  0  0  0
    2.4223   -7.0556   40.6166 C   0  0  2  0  0  0  0  0  0  0  0  0
    1.5677   -6.0658   39.9108 N   0  3  0  0  0  0  0  0  0  0  0  0
    2.0051   -8.4406   40.0870 C   0  0  1  0  0  0  0  0  0  0  0  0
    2.3335   -8.5743   38.7059 O   0  0  0  0  0  0  0  0  0  0  0  0
    2.6847   -9.5640   40.8845 C   0  0  2  0  0  0  0  0  0  0  0  0
    2.3217  -10.8345   40.3533 O   0  0  0  0  0  0  0  0  0  0  0  0
    2.3629   -9.4382   42.3902 C   0  0  2  0  0  0  0  0  0  0  0  0
    2.8940   -8.1693   42.8275 O   0  0  0  0  0  0  0  0  0  0  0  0
    2.9841  -10.5315   43.2579 C   0  0  0  0  0  0  0  0  0  0  0  0
    3.5384  -11.5693   42.4602 O   0  0  0  0  0  0  0  0  0  0  0  0
   -1.2603   -4.0086   44.9731 C   0  0  1  0  0  0  0  0  0  0  0  0
   -1.7394   -3.0190   45.9555 N   0  3  0  0  0  0  0  0  0  0  0  0
   -0.2138   -3.4042   43.9886 C   0  0  2  0  0  0  0  0  0  0  0  0
   -0.7768   -2.3042   43.2775 O   0  0  0  0  0  0  0  0  0  0  0  0
    0.2670   -4.4637   42.9542 C   0  0  1  0  0  0  0  0  0  0  0  0
    1.3606   -3.8928   42.1764 O   0  0  0  0  0  0  0  0  0  0  0  0
    0.7519   -5.7807   43.6438 C   0  0  1  0  0  0  0  0  0  0  0  0
   -0.2833   -6.3458   44.6683 C   0  0  1  0  0  0  0  0  0  0  0  0
    0.2438   -7.5336   45.3759 N   0  3  0  0  0  0  0  0  0  0  0  0
   -0.6818   -5.2582   45.6992 C   0  0  0  0  0  0  0  0  0  0  0  0
    2.4423   -3.1755   42.8525 C   0  0  1  0  0  0  0  0  0  0  0  0
    3.5642   -2.9007   41.8338 C   0  0  2  0  0  0  0  0  0  0  0  0
    4.8228   -2.7541   42.4854 O   0  0  0  0  0  0  0  0  0  0  0  0
    3.0482   -1.5727   41.2593 C   0  0  1  0  0  0  0  0  0  0  0  0
    2.5913   -0.8346   42.5067 C   0  0  2  0  0  0  0  0  0  0  0  0
    1.9949   -1.8731   43.2687 O   0  0  0  0  0  0  0  0  0  0  0  0
    1.5829    0.2958   42.2646 C   0  0  0  0  0  0  0  0  0  0  0  0
    2.2015    1.3562   41.5511 O   0  0  0  0  0  0  0  0  0  0  0  0
    6.0111   -1.5305   36.7579 C   0  0  1  0  0  0  0  0  0  0  0  0
    6.5644   -0.2212   36.6391 O   0  0  0  0  0  0  0  0  0  0  0  0
    6.6064   -2.2297   38.0118 C   0  0  2  0  0  0  0  0  0  0  0  0
    6.3489   -3.6287   37.9161 O   0  0  0  0  0  0  0  0  0  0  0  0
    6.0686   -1.7121   39.3861 C   0  0  1  0  0  0  0  0  0  0  0  0
    6.8321   -0.5222   39.8221 N   0  3  0  0  0  0  0  0  0  0  0  0
    4.5377   -1.4635   39.3511 C   0  0  1  0  0  0  0  0  0  0  0  0
    4.0230   -0.7842   40.5227 O   0  0  0  0  0  0  0  0  0  0  0  0
    4.4688   -1.4524   36.8847 C   0  0  1  0  0  0  0  0  0  0  0  0
    4.1625   -0.7540   38.1225 O   0  0  0  0  0  0  0  0  0  0  0  0
    3.7785   -0.7767   35.6853 C   0  0  0  0  0  0  0  0  0  0  0  0
    4.0161   -1.4896   34.4149 N   0  3  0  0  0  0  0  0  0  0  0  0
  1  2  1  6  0  0  0
  1  3  1  0  0  0  0
  1 10  1  0  0  0  0
  3  4  1  6  0  0  0
  3  5  1  0  0  0  0
  5  6  1  6  0  0  0
  5  7  1  0  0  0  0
  7  8  1  6  0  0  0
  7  9  1  0  0  0  0
  9 10  1  0  0  0  0
  9 11  1  1  0  0  0
 11 12  1  0  0  0  0
 13 14  1  1  0  0  0
 13 15  1  0  0  0  0
 13 22  1  0  0  0  0
 15 16  1  6  0  0  0
 15 17  1  0  0  0  0
 17 18  1  1  0  0  0
 17 19  1  0  0  0  0
 19  2  1  6  0  0  0
 19 20  1  0  0  0  0
 20 21  1  1  0  0  0
 20 22  1  0  0  0  0
 23 18  1  6  0  0  0
 23 24  1  0  0  0  0
 23 28  1  0  0  0  0
 24 25  1  1  0  0  0
 24 26  1  0  0  0  0
 26 27  1  0  0  0  0
 26 38  1  1  0  0  0
 27 28  1  0  0  0  0
 27 29  1  6  0  0  0
 29 30  1  0  0  0  0
 31 32  1  1  0  0  0
 31 33  1  0  0  0  0
 31 39  1  0  0  0  0
 33 34  1  6  0  0  0
 33 35  1  0  0  0  0
 35 36  1  6  0  0  0
 35 37  1  0  0  0  0
 37 38  1  1  0  0  0
 37 40  1  0  0  0  0
 39 40  1  0  0  0  0
 39 41  1  6  0  0  0
 41 42  1  0  0  0  0
M  CHG  5   4   1  14   1  21   1  36   1  42   1
M  END
>  <CHROM.1>
-134.16158413,99.06690415,25.49123568,-61.47378906,60.97626350,-10.22124648
-50.80302009,145.57712248,-66.61536303,45.82522017,170.29480557,-44.73307129
66.28026074,61.71456458,-67.37421121,-172.27589273,61.52431175,71.17388287
-177.05894802,-118.66934722,60.82071373,52.83780418,2.67679363,-4.23529237
41.16988598,-2.32295992,0.93274189,0.00389900

>  <Name>
1pbr

>  <RI>
0

>  <Rbt.Current_Directory>
/home/itssahil/PROJECTS/Mol_Feturizer/New_Systems/rnas/1pbr

>  <Rbt.Executable>
rbdock ($Id: //depot/dev/client3/rdock/2013.1/src/exe/rbdock.cxx#4 $)

>  <Rbt.Library>
libRbt.so (2013.1, Build901 2013/11/27)

>  <Rbt.Parameter_File>
/export/apps/rDock/src/rDock_2013.1_src/data/scripts/dock_solv.prm

>  <Rbt.Receptor>
prm/pocket_docking_7.prm

>  <SCORE>
-26.7039

>  <SCORE.INTER>
-26.7932

>  <SCORE.INTER.CONST>
1

>  <SCORE.INTER.POLAR>
-5.43138

>  <SCORE.INTER.ROT>
9

>  <SCORE.INTER.SOLV>
30.2746

>  <SCORE.INTER.VDW>
-19.4491

>  <SCORE.INTER.norm>
-0.637933

>  <SCORE.INTRA>
0.0875224

>  <SCORE.INTRA.DIHEDRAL>
3.02513

>  <SCORE.INTRA.DIHEDRAL.0>
29.7866

>  <SCORE.INTRA.POLAR>
-0.706097

>  <SCORE.INTRA.POLAR.0>
-0.984091

>  <SCORE.INTRA.REPUL>
-0.268975

>  <SCORE.INTRA.REPUL.0>
0.274115

>  <SCORE.INTRA.SOLV>
0.187824

>  <SCORE.INTRA.SOLV.lig_0>
-152.978

>  <SCORE.INTRA.VDW>
2.22665

>  <SCORE.INTRA.VDW.0>
-6.10719

>  <SCORE.INTRA.norm>
0.00208387

>  <SCORE.RESTR>
0.00179445

>  <SCORE.RESTR.CAVITY>
0.00179445

>  <SCORE.RESTR.norm>
4.27251e-05

>  <SCORE.SYSTEM>
0

>  <SCORE.SYSTEM.CONST>
0

>  <SCORE.SYSTEM.DIHEDRAL>
0

>  <SCORE.SYSTEM.SOLV>
0

>  <SCORE.SYSTEM.norm>
0

>  <SCORE.heavy>
42

>  <SCORE.norm>
-0.635807

>  <RMSD>
6.464

$$$$
1pbr
 OpenBabel11021811403D
libRbt.so/2013.1/901 2013/11/27
 42 45  0  0  0  0  0  0  0  0999 V2000
    3.9581    0.4957   40.1591 C   0  0  2  0  0  0  0  0  0  0  0  0
    4.1315   -0.9221   39.9078 O   0  0  0  0  0  0  0  0  0  0  0  0
    4.5305    0.8871   41.5725 C   0  0  2  0  0  0  0  0  0  0  0  0
    5.8201    0.2343   41.9174 N   0  3  0  0  0  0  0  0  0  0  0  0
    3.5482    0.5250   42.7023 C   0  0  1  0  0  0  0  0  0  0  0  0
    3.9538    1.1169   43.9346 O   0  0  0  0  0  0  0  0  0  0  0  0
    2.1219    0.9824   42.3613 C   0  0  2  0  0  0  0  0  0  0  0  0
    1.2370    0.6786   43.4350 O   0  0  0  0  0  0  0  0  0  0  0  0
    1.6572    0.3718   41.0205 C   0  0  2  0  0  0  0  0  0  0  0  0
    2.5584    0.8588   40.0037 O   0  0  0  0  0  0  0  0  0  0  0  0
    0.2366    0.7593   40.6137 C   0  0  0  0  0  0  0  0  0  0  0  0
   -0.0661    0.3032   39.3019 O   0  0  0  0  0  0  0  0  0  0  0  0
    5.6832   -1.7186   36.0135 C   0  0  1  0  0  0  0  0  0  0  0  0
    5.9106   -2.1245   34.6144 N   0  3  0  0  0  0  0  0  0  0  0  0
    4.6611   -0.5475   36.1299 C   0  0  2  0  0  0  0  0  0  0  0  0
    5.1220    0.5894   35.4035 O   0  0  0  0  0  0  0  0  0  0  0  0
    4.4478   -0.1289   37.6141 C   0  0  1  0  0  0  0  0  0  0  0  0
    3.3638    0.8451   37.6723 O   0  0  0  0  0  0  0  0  0  0  0  0
    4.0980   -1.3507   38.5251 C   0  0  1  0  0  0  0  0  0  0  0  0
    5.0993   -2.5382   38.3581 C   0  0  1  0  0  0  0  0  0  0  0  0
    4.6871   -3.7142   39.1560 N   0  3  0  0  0  0  0  0  0  0  0  0
    5.2279   -2.9392   36.8657 C   0  0  0  0  0  0  0  0  0  0  0  0
    2.7411    1.3210   36.4364 C   0  0  1  0  0  0  0  0  0  0  0  0
    1.2137    1.3483   36.6324 C   0  0  2  0  0  0  0  0  0  0  0  0
    0.5352    1.2289   35.3852 O   0  0  0  0  0  0  0  0  0  0  0  0
    1.0737    2.7528   37.2389 C   0  0  1  0  0  0  0  0  0  0  0  0
    2.0120    3.5761   36.3721 C   0  0  2  0  0  0  0  0  0  0  0  0
    3.1056    2.6903   36.1879 O   0  0  0  0  0  0  0  0  0  0  0  0
    2.4916    4.8928   36.9964 C   0  0  0  0  0  0  0  0  0  0  0  0
    3.8783    4.8152   37.2923 O   0  0  0  0  0  0  0  0  0  0  0  0
   -1.0480    7.2377   35.5850 C   0  0  1  0  0  0  0  0  0  0  0  0
   -1.9236    6.7794   34.5564 O   0  0  0  0  0  0  0  0  0  0  0  0
   -1.6741    6.9239   36.9725 C   0  0  2  0  0  0  0  0  0  0  0  0
   -0.9984    7.6984   37.9606 O   0  0  0  0  0  0  0  0  0  0  0  0
   -1.6364    5.4200   37.3998 C   0  0  1  0  0  0  0  0  0  0  0  0
   -2.7960    4.6954   36.8347 N   0  3  0  0  0  0  0  0  0  0  0  0
   -0.2812    4.7526   37.0465 C   0  0  1  0  0  0  0  0  0  0  0  0
   -0.2675    3.3147   37.2232 O   0  0  0  0  0  0  0  0  0  0  0  0
    0.3321    6.5438   35.4644 C   0  0  1  0  0  0  0  0  0  0  0  0
    0.1318    5.1211   35.6875 O   0  0  0  0  0  0  0  0  0  0  0  0
    1.0411    6.7964   34.1207 C   0  0  0  0  0  0  0  0  0  0  0  0
    0.8758    8.1824   33.6407 N   0  3  0  0  0  0  0  0  0  0  0  0
  1  2  1  1  0  0  0
  1  3  1  0  0  0  0
  1 10  1  0  0  0  0
  3  4  1  1  0  0  0
  3  5  1  0  0  0  0
  5  6  1  1  0  0  0
  5  7  1  0  0  0  0
  7  8  1  1  0  0  0
  7  9  1  0  0  0  0
  9 10  1  0  0  0  0
  9 11  1  6  0  0  0
 11 12  1  0  0  0  0
 13 14  1  6  0  0  0
 13 15  1  0  0  0  0
 13 22  1  0  0  0  0
 15 16  1  6  0  0  0
 15 17  1  0  0  0  0
 17 18  1  6  0  0  0
 17 19  1  0  0  0  0
 19  2  1  1  0  0  0
 19 20  1  0  0  0  0
 20 21  1  1  0  0  0
 20 22  1  0  0  0  0
 23 18  1  1  0  0  0
 23 24  1  0  0  0  0
 23 28  1  0  0  0  0
 24 25  1  6  0  0  0
 24 26  1  0  0  0  0
 26 27  1  0  0  0  0
 26 38  1  6  0  0  0
 27 28  1  0  0  0  0
 27 29  1  1  0  0  0
 29 30  1  0  0  0  0
 31 32  1  6  0  0  0
 31 33  1  0  0  0  0
 31 39  1  0  0  0  0
 33 34  1  1  0  0  0
 33 35  1  0  0  0  0
 35 36  1  6  0  0  0
 35 37  1  0  0  0  0
 37 38  1  6  0  0  0
 37 40  1  0  0  0  0
 39 40  1  0  0  0  0
 39 41  1  6  0  0  0
 41 42  1  0  0  0  0
M  CHG  5   4   1  14   1  21   1  36   1  42   1
M  END
>  <CHROM.1>
-159.05307401,22.49727985,59.05082333,-175.10029517,-63.42886040,172.76228154
-163.41171452,172.90209710,-62.76704558,-3.75530452,136.37350912,-169.42150377
-59.49253378,-146.33892248,111.26879415,-50.75541861,-67.17862285,-54.46214628
82.14447040,-164.51273720,39.47021023,73.21439626,2.15142795,2.12580940,37.90710426
0.64358317,-0.87903373,1.86242210

>  <Name>
1pbr

>  <RI>
0

>  <Rbt.Current_Directory>
/home/itssahil/PROJECTS/Mol_Feturizer/New_Systems/rnas/1pbr

>  <Rbt.Executable>
rbdock ($Id: //depot/dev/client3/rdock/2013.1/src/exe/rbdock.cxx#4 $)

>  <Rbt.Library>
libRbt.so (2013.1, Build901 2013/11/27)

>  <Rbt.Parameter_File>
/export/apps/rDock/src/rDock_2013.1_src/data/scripts/dock_solv.prm

>  <Rbt.Receptor>
prm/blind_docking_60.prm

>  <SCORE>
-14.3251

>  <SCORE.INTER>
-35.2637

>  <SCORE.INTER.CONST>
1

>  <SCORE.INTER.POLAR>
-5.99729

>  <SCORE.INTER.ROT>
9

>  <SCORE.INTER.SOLV>
34.0981

>  <SCORE.INTER.VDW>
-24.4842

>  <SCORE.INTER.norm>
-0.839612

>  <SCORE.INTRA>
20.3006

>  <SCORE.INTRA.DIHEDRAL>
7.00446

>  <SCORE.INTRA.DIHEDRAL.0>
29.7866

>  <SCORE.INTRA.POLAR>
0.974364

>  <SCORE.INTRA.POLAR.0>
-0.984091

>  <SCORE.INTRA.REPUL>
-0.0112964

>  <SCORE.INTRA.REPUL.0>
0.274115

>  <SCORE.INTRA.SOLV>
-2.92971

>  <SCORE.INTRA.SOLV.lig_0>
-152.978

>  <SCORE.INTRA.VDW>
15.0069

>  <SCORE.INTRA.VDW.0>
-6.10719

>  <SCORE.INTRA.norm>
0.483349

>  <SCORE.RESTR>
0.637923

>  <SCORE.RESTR.CAVITY>
0.637923

>  <SCORE.RESTR.norm>
0.0151887

>  <SCORE.SYSTEM>
0

>  <SCORE.SYSTEM.CONST>
0

>  <SCORE.SYSTEM.DIHEDRAL>
0

>  <SCORE.SYSTEM.SOLV>
0

>  <SCORE.SYSTEM.norm>
0

>  <SCORE.heavy>
42

>  <SCORE.norm>
-0.341074

>  <RMSD>
6.471

$$$$
1pbr
 OpenBabel11021811403D
libRbt.so/2013.1/901 2013/11/27
 42 45  0  0  0  0  0  0  0  0999 V2000
    3.4516    0.7702   40.1979 C   0  0  2  0  0  0  0  0  0  0  0  0
    4.0990   -0.4908   39.8916 O   0  0  0  0  0  0  0  0  0  0  0  0
    4.3025    1.5994   41.2307 C   0  0  2  0  0  0  0  0  0  0  0  0
    5.7681    1.5685   40.9872 N   0  3  0  0  0  0  0  0  0  0  0  0
    4.0941    1.0956   42.6713 C   0  0  1  0  0  0  0  0  0  0  0  0
    4.6531    2.0092   43.6127 O   0  0  0  0  0  0  0  0  0  0  0  0
    2.6017    0.8976   42.9762 C   0  0  2  0  0  0  0  0  0  0  0  0
    2.4261    0.4741   44.3246 O   0  0  0  0  0  0  0  0  0  0  0  0
    1.9602   -0.0753   41.9621 C   0  0  2  0  0  0  0  0  0  0  0  0
    2.0931    0.5306   40.6588 O   0  0  0  0  0  0  0  0  0  0  0  0
    0.4764   -0.3461   42.2050 C   0  0  0  0  0  0  0  0  0  0  0  0
   -0.3388    0.5683   41.4841 O   0  0  0  0  0  0  0  0  0  0  0  0
    6.5045   -0.7299   36.3753 C   0  0  1  0  0  0  0  0  0  0  0  0
    7.0569   -0.9530   35.0266 N   0  3  0  0  0  0  0  0  0  0  0  0
    5.3899    0.3598   36.3840 C   0  0  2  0  0  0  0  0  0  0  0  0
    5.9018    1.5991   35.8996 O   0  0  0  0  0  0  0  0  0  0  0  0
    4.8320    0.5862   37.8196 C   0  0  1  0  0  0  0  0  0  0  0  0
    3.6855    1.4840   37.7378 O   0  0  0  0  0  0  0  0  0  0  0  0
    4.3958   -0.7531   38.4988 C   0  0  1  0  0  0  0  0  0  0  0  0
    5.5022   -1.8542   38.4347 C   0  0  1  0  0  0  0  0  0  0  0  0
    5.0256   -3.1380   38.9953 N   0  3  0  0  0  0  0  0  0  0  0  0
    5.9779   -2.0668   36.9743 C   0  0  0  0  0  0  0  0  0  0  0  0
    2.3278    0.9377   37.7324 C   0  0  1  0  0  0  0  0  0  0  0  0
    1.3328    2.0914   37.5068 C   0  0  2  0  0  0  0  0  0  0  0  0
    0.0526    1.7766   38.0473 O   0  0  0  0  0  0  0  0  0  0  0  0
    1.3278    2.1083   35.9707 C   0  0  1  0  0  0  0  0  0  0  0  0
    1.2774    0.6283   35.6295 C   0  0  2  0  0  0  0  0  0  0  0  0
    2.1442    0.0660   36.6028 O   0  0  0  0  0  0  0  0  0  0  0  0
    1.7554    0.2666   34.2173 C   0  0  0  0  0  0  0  0  0  0  0  0
    3.1714    0.3451   34.1470 O   0  0  0  0  0  0  0  0  0  0  0  0
   -0.1813    7.1047   34.9788 C   0  0  1  0  0  0  0  0  0  0  0  0
   -0.6512    7.0765   33.6323 O   0  0  0  0  0  0  0  0  0  0  0  0
   -1.2079    6.3857   35.8980 C   0  0  2  0  0  0  0  0  0  0  0  0
   -0.9294    6.7378   37.2512 O   0  0  0  0  0  0  0  0  0  0  0  0
   -1.2363    4.8266   35.7796 C   0  0  1  0  0  0  0  0  0  0  0  0
   -2.1117    4.4115   34.6614 N   0  3  0  0  0  0  0  0  0  0  0  0
    0.1916    4.2286   35.6780 C   0  0  1  0  0  0  0  0  0  0  0  0
    0.2187    2.8171   35.3524 O   0  0  0  0  0  0  0  0  0  0  0  0
    1.1958    6.4020   35.0820 C   0  0  1  0  0  0  0  0  0  0  0  0
    1.0049    5.0034   34.7338 O   0  0  0  0  0  0  0  0  0  0  0  0
    2.2895    7.0434   34.2076 C   0  0  0  0  0  0  0  0  0  0  0  0
    1.9226    7.0898   32.7786 N   0  3  0  0  0  0  0  0  0  0  0  0
  1  2  1  1  0  0  0
  1  3  1  0  0  0  0
  1 10  1  0  0  0  0
  3  4  1  6  0  0  0
  3  5  1  0  0  0  0
  5  6  1  1  0  0  0
  5  7  1  0  0  0  0
  7  8  1  1  0  0  0
  7  9  1  0  0  0  0
  9 10  1  0  0  0  0
  9 11  1  1  0  0  0
 11 12  1  0  0  0  0
 13 14  1  6  0  0  0
 13 15  1  0  0  0  0
 13 22  1  0  0  0  0
 15 16  1  1  0  0  0
 15 17  1  0  0  0  0
 17 18  1  6  0  0  0
 17 19  1  0  0  0  0
 19  2  1  1  0  0  0
 19 20  1  0  0  0  0
 20 21  1  6  0  0  0
 20 22  1  0  0  0  0
 23 18  1  6  0  0  0
 23 24  1  0  0  0  0
 23 28  1  0  0  0  0
 24 25  1  6  0  0  0
 24 26  1  0  0  0  0
 26 27  1  0  0  0  0
 26 38  1  1  0  0  0
 27 28  1  0  0  0  0
 27 29  1  6  0  0  0
 29 30  1  0  0  0  0
 31 32  1  6  0  0  0
 31 33  1  0  0  0  0
 31 39  1  0  0  0  0
 33 34  1  1  0  0  0
 33 35  1  0  0  0  0
 35 36  1  6  0  0  0
 35 37  1  0  0  0  0
 37 38  1  6  0  0  0
 37 40  1  0  0  0  0
 39 40  1  0  0  0  0
 39 41  1  6  0  0  0
 41 42  1  0  0  0  0
M  CHG  5   4   1  14   1  21   1  36   1  42   1
M  END
>  <CHROM.1>
-123.07316479,37.20225708,43.63173153,49.42727908,73.92646720,91.15565195
-61.91968058,-127.86421009,-171.25186598,98.06475049,-174.76687165,-162.89399221
-27.99284690,62.36772751,74.85849401,71.97173912,71.88237780,-55.35724251
159.15480340,-146.69461643,-57.28879717,14.16157259,2.46280958,1.93259497
37.70925588,0.91641320,-0.77329897,1.86576372

>  <Name>
1pbr

>  <RI>
0

>  <Rbt.Current_Directory>
/home/itssahil/PROJECTS/Mol_Feturizer/New_Systems/rnas/1pbr

>  <Rbt.Executable>
rbdock ($Id: //depot/dev/client3/rdock/2013.1/src/exe/rbdock.cxx#4 $)

>  <Rbt.Library>
libRbt.so (2013.1, Build901 2013/11/27)

>  <Rbt.Parameter_File>
/export/apps/rDock/src/rDock_2013.1_src/data/scripts/dock_solv.prm

>  <Rbt.Receptor>
prm/blind_docking_60.prm

>  <SCORE>
-34.8886

>  <SCORE.INTER>
-45.0104

>  <SCORE.INTER.CONST>
1

>  <SCORE.INTER.POLAR>
-6.59651

>  <SCORE.INTER.ROT>
9

>  <SCORE.INTER.SOLV>
39.1621

>  <SCORE.INTER.VDW>
-30.6726

>  <SCORE.INTER.norm>
-1.07168

>  <SCORE.INTRA>
10.0243

>  <SCORE.INTRA.DIHEDRAL>
9.04575

>  <SCORE.INTRA.DIHEDRAL.0>
29.7866

>  <SCORE.INTRA.POLAR>
-0.102509

>  <SCORE.INTRA.POLAR.0>
-0.984091

>  <SCORE.INTRA.REPUL>
-0.274115

>  <SCORE.INTRA.REPUL.0>
0.274115

>  <SCORE.INTRA.SOLV>
0.798676

>  <SCORE.INTRA.SOLV.lig_0>
-152.978

>  <SCORE.INTRA.VDW>
6.82115

>  <SCORE.INTRA.VDW.0>
-6.10719

>  <SCORE.INTRA.norm>
0.238673

>  <SCORE.RESTR>
0.0975328

>  <SCORE.RESTR.CAVITY>
0.0975328

>  <SCORE.RESTR.norm>
0.00232221

>  <SCORE.SYSTEM>
0

>  <SCORE.SYSTEM.CONST>
0

>  <SCORE.SYSTEM.DIHEDRAL>
0

>  <SCORE.SYSTEM.SOLV>
0

>  <SCORE.SYSTEM.norm>
0

>  <SCORE.heavy>
42

>  <SCORE.norm>
-0.83068

>  <RMSD>
6.498

$$$$
1pbr
 OpenBabel11021811403D
libRbt.so/2013.1/901 2013/11/27
 42 45  0  0  0  0  0  0  0  0999 V2000
    4.1071   -4.2209   43.9055 C   0  0  2  0  0  0  0  0  0  0  0  0
    4.6915   -3.5507   45.0510 O   0  0  0  0  0  0  0  0  0  0  0  0
    2.5564   -4.4105   44.0996 C   0  0  2  0  0  0  0  0  0  0  0  0
    1.8623   -3.2396   44.6960 N   0  3  0  0  0  0  0  0  0  0  0  0
    2.2415   -5.6098   45.0134 C   0  0  1  0  0  0  0  0  0  0  0  0
    0.8528   -5.9299   44.9678 O   0  0  0  0  0  0  0  0  0  0  0  0
    3.0634   -6.8428   44.6085 C   0  0  2  0  0  0  0  0  0  0  0  0
    2.7273   -7.9524   45.4356 O   0  0  0  0  0  0  0  0  0  0  0  0
    4.5749   -6.5245   44.6307 C   0  0  2  0  0  0  0  0  0  0  0  0
    4.7969   -5.4779   43.6618 O   0  0  0  0  0  0  0  0  0  0  0  0
    5.4701   -7.7055   44.2596 C   0  0  0  0  0  0  0  0  0  0  0  0
    5.2543   -8.1130   42.9150 O   0  0  0  0  0  0  0  0  0  0  0  0
    8.1778   -1.1195   45.4296 C   0  0  1  0  0  0  0  0  0  0  0  0
    9.5434   -0.5653   45.4729 N   0  3  0  0  0  0  0  0  0  0  0  0
    7.7303   -1.4744   43.9793 C   0  0  2  0  0  0  0  0  0  0  0  0
    7.7696   -0.3162   43.1489 O   0  0  0  0  0  0  0  0  0  0  0  0
    6.2820   -2.0451   43.9584 C   0  0  1  0  0  0  0  0  0  0  0  0
    5.9853   -2.5139   42.6096 O   0  0  0  0  0  0  0  0  0  0  0  0
    6.0997   -3.2235   44.9700 C   0  0  1  0  0  0  0  0  0  0  0  0
    6.6027   -2.8728   46.4069 C   0  0  1  0  0  0  0  0  0  0  0  0
    6.5097   -4.0370   47.3154 N   0  3  0  0  0  0  0  0  0  0  0  0
    8.0653   -2.3595   46.3641 C   0  0  0  0  0  0  0  0  0  0  0  0
    6.8993   -3.4401   41.9397 C   0  0  1  0  0  0  0  0  0  0  0  0
    6.4030   -3.6677   40.4996 C   0  0  2  0  0  0  0  0  0  0  0  0
    6.8478   -4.9247   39.9974 O   0  0  0  0  0  0  0  0  0  0  0  0
    7.1044   -2.4857   39.8134 C   0  0  1  0  0  0  0  0  0  0  0  0
    8.4887   -2.5213   40.4395 C   0  0  2  0  0  0  0  0  0  0  0  0
    8.1987   -2.8408   41.7917 O   0  0  0  0  0  0  0  0  0  0  0  0
    9.2761   -1.2071   40.3592 C   0  0  0  0  0  0  0  0  0  0  0  0
   10.5673   -1.3772   40.9251 O   0  0  0  0  0  0  0  0  0  0  0  0
    7.6636    0.5895   35.4426 C   0  0  1  0  0  0  0  0  0  0  0  0
    8.1633   -0.2602   34.4115 O   0  0  0  0  0  0  0  0  0  0  0  0
    6.2073    0.1740   35.7921 C   0  0  2  0  0  0  0  0  0  0  0  0
    5.5985    1.2317   36.5293 O   0  0  0  0  0  0  0  0  0  0  0  0
    6.0665   -1.1532   36.6073 C   0  0  1  0  0  0  0  0  0  0  0  0
    6.0641   -2.3188   35.6960 N   0  3  0  0  0  0  0  0  0  0  0  0
    7.1409   -1.2640   37.7210 C   0  0  1  0  0  0  0  0  0  0  0  0
    7.1930   -2.5614   38.3639 O   0  0  0  0  0  0  0  0  0  0  0  0
    8.5555    0.4836   36.7051 C   0  0  1  0  0  0  0  0  0  0  0  0
    8.4582   -0.8795   37.2014 O   0  0  0  0  0  0  0  0  0  0  0  0
   10.0245    0.8792   36.4651 C   0  0  0  0  0  0  0  0  0  0  0  0
   10.2018    2.3340   36.2902 N   0  3  0  0  0  0  0  0  0  0  0  0
  1  2  1  1  0  0  0
  1  3  1  0  0  0  0
  1 10  1  0  0  0  0
  3  4  1  1  0  0  0
  3  5  1  0  0  0  0
  5  6  1  6  0  0  0
  5  7  1  0  0  0  0
  7  8  1  1  0  0  0
  7  9  1  0  0  0  0
  9 10  1  0  0  0  0
  9 11  1  6  0  0  0
 11 12  1  0  0  0  0
 13 14  1  6  0  0  0
 13 15  1  0  0  0  0
 13 22  1  0  0  0  0
 15 16  1  6  0  0  0
 15 17  1  0  0  0  0
 17 18  1  6  0  0  0
 17 19  1  0  0  0  0
 19  2  1  1  0  0  0
 19 20  1  0  0  0  0
 20 21  1  1  0  0  0
 20 22  1  0  0  0  0
 23 18  1  1  0  0  0
 23 24  1  0  0  0  0
 23 28  1  0  0  0  0
 24 25  1  6  0  0  0
 24 26  1  0  0  0  0
 26 27  1  0  0  0  0
 26 38  1  6  0  0  0
 27 28  1  0  0  0  0
 27 29  1  1  0  0  0
 29 30  1  0  0  0  0
 31 32  1  6  0  0  0
 31 33  1  0  0  0  0
 31 39  1  0  0  0  0
 33 34  1  1  0  0  0
 33 35  1  0  0  0  0
 35 36  1  6  0  0  0
 35 37  1  0  0  0  0
 37 38  1  6  0  0  0
 37 40  1  0  0  0  0
 39 40  1  0  0  0  0
 39 41  1  6  0  0  0
 41 42  1  0  0  0  0
M  CHG  5   4   1  14   1  21   1  36   1  42   1
M  END
>  <CHROM.1>
-175.74269487,72.05269393,-67.51260548,58.50318209,58.71530112,64.19271501
-174.83948285,33.24295533,-62.99843623,52.25259749,-175.25985642,60.75377403
-58.60247832,147.68820963,-177.63274525,-65.91236589,59.32661746,-61.81563537
40.83308701,-127.34743703,72.69377981,59.97943439,6.43530525,-2.74913506
41.55159217,2.07961815,0.72080639,1.77288014

>  <Name>
1pbr

>  <RI>
0

>  <Rbt.Current_Directory>
/home/itssahil/PROJECTS/Mol_Feturizer/New_Systems/rnas/1pbr

>  <Rbt.Executable>
rbdock ($Id: //depot/dev/client3/rdock/2013.1/src/exe/rbdock.cxx#4 $)

>  <Rbt.Library>
libRbt.so (2013.1, Build901 2013/11/27)

>  <Rbt.Parameter_File>
/export/apps/rDock/src/rDock_2013.1_src/data/scripts/dock_solv.prm

>  <Rbt.Receptor>
prm/pocket_docking_8.prm

>  <SCORE>
-34.0801

>  <SCORE.INTER>
-28.2765

>  <SCORE.INTER.CONST>
1

>  <SCORE.INTER.POLAR>
-4.91536

>  <SCORE.INTER.ROT>
9

>  <SCORE.INTER.SOLV>
19.1089

>  <SCORE.INTER.VDW>
-18.4361

>  <SCORE.INTER.norm>
-0.67325

>  <SCORE.INTRA>
-5.80358

>  <SCORE.INTRA.DIHEDRAL>
-13.0046

>  <SCORE.INTRA.DIHEDRAL.0>
29.7866

>  <SCORE.INTRA.POLAR>
0.887875

>  <SCORE.INTRA.POLAR.0>
-0.984091

>  <SCORE.INTRA.REPUL>
-0.274115

>  <SCORE.INTRA.REPUL.0>
0.274115

>  <SCORE.INTRA.SOLV>
-5.03692

>  <SCORE.INTRA.SOLV.lig_0>
-152.978

>  <SCORE.INTRA.VDW>
1.56898

>  <SCORE.INTRA.VDW.0>
-6.10719

>  <SCORE.INTRA.norm>
-0.138181

>  <SCORE.RESTR>
0

>  <SCORE.RESTR.CAVITY>
0

>  <SCORE.RESTR.norm>
0

>  <SCORE.SYSTEM>
0

>  <SCORE.SYSTEM.CONST>
0

>  <SCORE.SYSTEM.DIHEDRAL>
0

>  <SCORE.SYSTEM.SOLV>
0

>  <SCORE.SYSTEM.norm>
0

>  <SCORE.heavy>
42

>  <SCORE.norm>
-0.811431

>  <RMSD>
6.697

$$$$
1pbr
 OpenBabel11021811403D
libRbt.so/2013.1/901 2013/11/27
 42 45  0  0  0  0  0  0  0  0999 V2000
    5.2614   -1.3231   43.3556 C   0  0  2  0  0  0  0  0  0  0  0  0
    5.6235   -0.9586   44.7117 O   0  0  0  0  0  0  0  0  0  0  0  0
    5.9083   -0.3313   42.3182 C   0  0  2  0  0  0  0  0  0  0  0  0
    7.3112    0.0516   42.6240 N   0  3  0  0  0  0  0  0  0  0  0  0
    5.1138    0.9847   42.2202 C   0  0  1  0  0  0  0  0  0  0  0  0
    5.5476    1.7556   41.1018 O   0  0  0  0  0  0  0  0  0  0  0  0
    3.6070    0.7119   42.0987 C   0  0  2  0  0  0  0  0  0  0  0  0
    2.8935    1.9372   41.9653 O   0  0  0  0  0  0  0  0  0  0  0  0
    3.1069   -0.1377   43.2881 C   0  0  2  0  0  0  0  0  0  0  0  0
    3.8140   -1.3947   43.2315 O   0  0  0  0  0  0  0  0  0  0  0  0
    1.6096   -0.4394   43.2577 C   0  0  0  0  0  0  0  0  0  0  0  0
    0.8421    0.7421   43.4463 O   0  0  0  0  0  0  0  0  0  0  0  0
    5.3801   -3.1194   48.3832 C   0  0  1  0  0  0  0  0  0  0  0  0
    4.9620   -3.8538   49.5914 N   0  3  0  0  0  0  0  0  0  0  0  0
    5.1178   -3.9311   47.0785 C   0  0  2  0  0  0  0  0  0  0  0  0
    5.8206   -5.1710   47.1140 O   0  0  0  0  0  0  0  0  0  0  0  0
    5.5788   -3.1409   45.8189 C   0  0  1  0  0  0  0  0  0  0  0  0
    5.1550   -3.8712   44.6297 O   0  0  0  0  0  0  0  0  0  0  0  0
    4.9830   -1.6956   45.7809 C   0  0  1  0  0  0  0  0  0  0  0  0
    5.2052   -0.9127   47.1145 C   0  0  1  0  0  0  0  0  0  0  0  0
    4.5456    0.4116   47.0846 N   0  3  0  0  0  0  0  0  0  0  0  0
    4.6798   -1.7304   48.3226 C   0  0  0  0  0  0  0  0  0  0  0  0
    3.7423   -4.2033   44.4403 C   0  0  1  0  0  0  0  0  0  0  0  0
    3.4317   -4.1949   42.9318 C   0  0  2  0  0  0  0  0  0  0  0  0
    2.0516   -3.9318   42.6946 O   0  0  0  0  0  0  0  0  0  0  0  0
    3.8131   -5.6454   42.5991 C   0  0  1  0  0  0  0  0  0  0  0  0
    3.2153   -6.4143   43.7657 C   0  0  2  0  0  0  0  0  0  0  0  0
    3.4854   -5.5544   44.8622 O   0  0  0  0  0  0  0  0  0  0  0  0
    3.8222   -7.8013   44.0137 C   0  0  0  0  0  0  0  0  0  0  0  0
    2.9800   -8.5552   44.8732 O   0  0  0  0  0  0  0  0  0  0  0  0
    5.1201   -4.6250   37.7203 C   0  0  1  0  0  0  0  0  0  0  0  0
    5.8883   -5.7966   37.4517 O   0  0  0  0  0  0  0  0  0  0  0  0
    3.6071   -4.9733   37.6487 C   0  0  2  0  0  0  0  0  0  0  0  0
    2.8668   -3.7593   37.5444 O   0  0  0  0  0  0  0  0  0  0  0  0
    3.0519   -5.7990   38.8552 C   0  0  1  0  0  0  0  0  0  0  0  0
    3.2829   -7.2443   38.6391 N   0  3  0  0  0  0  0  0  0  0  0  0
    3.6185   -5.2963   40.2091 C   0  0  1  0  0  0  0  0  0  0  0  0
    3.3083   -6.1549   41.3341 O   0  0  0  0  0  0  0  0  0  0  0  0
    5.4633   -4.0680   39.1248 C   0  0  1  0  0  0  0  0  0  0  0  0
    5.0638   -5.0650   40.1047 O   0  0  0  0  0  0  0  0  0  0  0  0
    6.9453   -3.6870   39.2989 C   0  0  0  0  0  0  0  0  0  0  0  0
    7.8619   -4.7935   38.9611 N   0  3  0  0  0  0  0  0  0  0  0  0
  1  2  1  1  0  0  0
  1  3  1  0  0  0  0
  1 10  1  0  0  0  0
  3  4  1  1  0  0  0
  3  5  1  0  0  0  0
  5  6  1  6  0  0  0
  5  7  1  0  0  0  0
  7  8  1  1  0  0  0
  7  9  1  0  0  0  0
  9 10  1  0  0  0  0
  9 11  1  6  0  0  0
 11 12  1  0  0  0  0
 13 14  1  1  0  0  0
 13 15  1  0  0  0  0
 13 22  1  0  0  0  0
 15 16  1  1  0  0  0
 15 17  1  0  0  0  0
 17 18  1  6  0  0  0
 17 19  1  0  0  0  0
 19  2  1  6  0  0  0
 19 20  1  0  0  0  0
 20 21  1  6  0  0  0
 20 22  1  0  0  0  0
 23 18  1  6  0  0  0
 23 24  1  0  0  0  0
 23 28  1  0  0  0  0
 24 25  1  1  0  0  0
 24 26  1  0  0  0  0
 26 27  1  0  0  0  0
 26 38  1  6  0  0  0
 27 28  1  0  0  0  0
 27 29  1  1  0  0  0
 29 30  1  0  0  0  0
 31 32  1  1  0  0  0
 31 33  1  0  0  0  0
 31 39  1  0  0  0  0
 33 34  1  1  0  0  0
 33 35  1  0  0  0  0
 35 36  1  6  0  0  0
 35 37  1  0  0  0  0
 37 38  1  1  0  0  0
 37 40  1  0  0  0  0
 39 40  1  0  0  0  0
 39 41  1  6  0  0  0
 41 42  1  0  0  0  0
M  CHG  5   4   1  14   1  21   1  36   1  42   1
M  END
>  <CHROM.1>
173.49845715,72.14571991,52.28092715,-73.84334388,177.66822624,-67.22870950
-55.89466058,74.10978570,67.68498404,56.26040954,147.80952605,46.00025106
-50.99771750,52.13172187,-164.87681991,-63.81114738,61.33885026,55.05905673
-174.68990668,-178.23197547,-54.01032128,-13.41334737,4.39585468,-3.16954661
42.88227835,-1.13571177,-1.52728023,-1.58692076

>  <Name>
1pbr

>  <RI>
0

>  <Rbt.Current_Directory>
/home/itssahil/PROJECTS/Mol_Feturizer/New_Systems/rnas/1pbr

>  <Rbt.Executable>
rbdock ($Id: //depot/dev/client3/rdock/2013.1/src/exe/rbdock.cxx#4 $)

>  <Rbt.Library>
libRbt.so (2013.1, Build901 2013/11/27)

>  <Rbt.Parameter_File>
/export/apps/rDock/src/rDock_2013.1_src/data/scripts/dock_solv.prm

>  <Rbt.Receptor>
prm/pocket_docking_8.prm

>  <SCORE>
-43.3097

>  <SCORE.INTER>
-35.767

>  <SCORE.INTER.CONST>
1

>  <SCORE.INTER.POLAR>
-6.25151

>  <SCORE.INTER.ROT>
9

>  <SCORE.INTER.SOLV>
27.9374

>  <SCORE.INTER.VDW>
-21.9188

>  <SCORE.INTER.norm>
-0.851595

>  <SCORE.INTRA>
-7.54273

>  <SCORE.INTRA.DIHEDRAL>
-16.1201

>  <SCORE.INTRA.DIHEDRAL.0>
29.7866

>  <SCORE.INTRA.POLAR>
0.365567

>  <SCORE.INTRA.POLAR.0>
-0.984091

>  <SCORE.INTRA.REPUL>
-0.274115

>  <SCORE.INTRA.REPUL.0>
0.274115

>  <SCORE.INTRA.SOLV>
-1.08008

>  <SCORE.INTRA.SOLV.lig_0>
-152.978

>  <SCORE.INTRA.VDW>
1.18502

>  <SCORE.INTRA.VDW.0>
-6.10719

>  <SCORE.INTRA.norm>
-0.179589

>  <SCORE.RESTR>
0

>  <SCORE.RESTR.CAVITY>
0

>  <SCORE.RESTR.norm>
0

>  <SCORE.SYSTEM>
0

>  <SCORE.SYSTEM.CONST>
0

>  <SCORE.SYSTEM.DIHEDRAL>
0

>  <SCORE.SYSTEM.SOLV>
0

>  <SCORE.SYSTEM.norm>
0

>  <SCORE.heavy>
42

>  <SCORE.norm>
-1.03118

>  <RMSD>
6.737

$$$$
1pbr
 OpenBabel11021811403D
libRbt.so/2013.1/901 2013/11/27
 42 45  0  0  0  0  0  0  0  0999 V2000
    1.5302   -4.8172   41.8572 C   0  0  2  0  0  0  0  0  0  0  0  0
    0.3482   -4.0601   42.2218 O   0  0  0  0  0  0  0  0  0  0  0  0
    1.5472   -5.1177   40.3120 C   0  0  2  0  0  0  0  0  0  0  0  0
    1.1129   -3.9815   39.4584 N   0  3  0  0  0  0  0  0  0  0  0  0
    0.6286   -6.3014   39.9543 C   0  0  1  0  0  0  0  0  0  0  0  0
    0.8534   -6.7289   38.6126 O   0  0  0  0  0  0  0  0  0  0  0  0
    0.8525   -7.4823   40.9108 C   0  0  2  0  0  0  0  0  0  0  0  0
    0.0272   -8.5815   40.5383 O   0  0  0  0  0  0  0  0  0  0  0  0
    0.6335   -7.0481   42.3771 C   0  0  2  0  0  0  0  0  0  0  0  0
    1.6119   -6.0259   42.6619 O   0  0  0  0  0  0  0  0  0  0  0  0
    0.8161   -8.1703   43.3975 C   0  0  0  0  0  0  0  0  0  0  0  0
    2.1314   -8.7065   43.3436 O   0  0  0  0  0  0  0  0  0  0  0  0
   -0.8723   -1.0348   44.9724 C   0  0  1  0  0  0  0  0  0  0  0  0
   -1.0059   -0.0730   46.0820 N   0  3  0  0  0  0  0  0  0  0  0  0
    0.3039   -0.6728   44.0157 C   0  0  2  0  0  0  0  0  0  0  0  0
    0.1123    0.6264   43.4610 O   0  0  0  0  0  0  0  0  0  0  0  0
    0.4164   -1.6946   42.8466 C   0  0  1  0  0  0  0  0  0  0  0  0
    1.6283   -1.4043   42.0889 O   0  0  0  0  0  0  0  0  0  0  0  0
    0.4651   -3.1712   43.3589 C   0  0  1  0  0  0  0  0  0  0  0  0
   -0.6877   -3.5046   44.3593 C   0  0  1  0  0  0  0  0  0  0  0  0
   -0.5580   -4.8749   44.9023 N   0  3  0  0  0  0  0  0  0  0  0  0
   -0.7133   -2.4817   45.5244 C   0  0  0  0  0  0  0  0  0  0  0  0
    1.8671   -0.0526   41.5812 C   0  0  1  0  0  0  0  0  0  0  0  0
    3.3720    0.2564   41.6899 C   0  0  2  0  0  0  0  0  0  0  0  0
    3.6014    1.6599   41.7779 O   0  0  0  0  0  0  0  0  0  0  0  0
    3.8352   -0.3258   40.3460 C   0  0  1  0  0  0  0  0  0  0  0  0
    2.7546    0.1572   39.3928 C   0  0  2  0  0  0  0  0  0  0  0  0
    1.5782    0.0110   40.1734 O   0  0  0  0  0  0  0  0  0  0  0  0
    2.6309   -0.6394   38.0875 C   0  0  0  0  0  0  0  0  0  0  0  0
    2.0525   -1.9104   38.3453 O   0  0  0  0  0  0  0  0  0  0  0  0
    8.9455   -0.4567   41.8836 C   0  0  1  0  0  0  0  0  0  0  0  0
    9.3782    0.8932   41.7239 O   0  0  0  0  0  0  0  0  0  0  0  0
    7.6765   -0.4884   42.7803 C   0  0  2  0  0  0  0  0  0  0  0  0
    7.4762   -1.8245   43.2356 O   0  0  0  0  0  0  0  0  0  0  0  0
    6.3615    0.0130   42.0983 C   0  0  1  0  0  0  0  0  0  0  0  0
    6.2605    1.4858   42.1963 N   0  3  0  0  0  0  0  0  0  0  0  0
    6.2340   -0.5019   40.6404 C   0  0  1  0  0  0  0  0  0  0  0  0
    5.1493    0.1023   39.8937 O   0  0  0  0  0  0  0  0  0  0  0  0
    8.6274   -1.0855   40.5037 C   0  0  1  0  0  0  0  0  0  0  0  0
    7.5101   -0.3522   39.9314 O   0  0  0  0  0  0  0  0  0  0  0  0
    9.8262   -1.1060   39.5371 C   0  0  0  0  0  0  0  0  0  0  0  0
    9.5377   -1.8347   38.2864 N   0  3  0  0  0  0  0  0  0  0  0  0
  1  2  1  1  0  0  0
  1  3  1  0  0  0  0
  1 10  1  0  0  0  0
  3  4  1  6  0  0  0
  3  5  1  0  0  0  0
  5  6  1  6  0  0  0
  5  7  1  0  0  0  0
  7  8  1  6  0  0  0
  7  9  1  0  0  0  0
  9 10  1  0  0  0  0
  9 11  1  1  0  0  0
 11 12  1  0  0  0  0
 13 14  1  1  0  0  0
 13 15  1  0  0  0  0
 13 22  1  0  0  0  0
 15 16  1  6  0  0  0
 15 17  1  0  0  0  0
 17 18  1  1  0  0  0
 17 19  1  0  0  0  0
 19  2  1  6  0  0  0
 19 20  1  0  0  0  0
 20 21  1  1  0  0  0
 20 22  1  0  0  0  0
 23 18  1  6  0  0  0
 23 24  1  0  0  0  0
 23 28  1  0  0  0  0
 24 25  1  6  0  0  0
 24 26  1  0  0  0  0
 26 27  1  0  0  0  0
 26 38  1  6  0  0  0
 27 28  1  0  0  0  0
 27 29  1  6  0  0  0
 29 30  1  0  0  0  0
 31 32  1  6  0  0  0
 31 33  1  0  0  0  0
 31 39  1  0  0  0  0
 33 34  1  6  0  0  0
 33 35  1  0  0  0  0
 35 36  1  6  0  0  0
 35 37  1  0  0  0  0
 37 38  1  6  0  0  0
 37 40  1  0  0  0  0
 39 40  1  0  0  0  0
 39 41  1  6  0  0  0
 41 42  1  0  0  0  0
M  CHG  5   4   1  14   1  21   1  36   1  42   1
M  END
>  <CHROM.1>
-150.61500193,110.16638823,90.00518304,-56.92001076,65.17215396,60.22977714
-65.39454593,123.18893062,62.94403326,-53.03872003,142.98386232,65.66725477
60.69961069,73.34480132,72.54728428,-172.48541364,63.41470144,-61.81108207
-55.93500943,-70.46925132,173.98679344,-178.20946950,3.00864991,-2.41721710
41.67962748,-2.64127464,0.45460705,0.35152843

>  <Name>
1pbr

>  <RI>
0

>  <Rbt.Current_Directory>
/home/itssahil/PROJECTS/Mol_Feturizer/New_Systems/rnas/1pbr

>  <Rbt.Executable>
rbdock ($Id: //depot/dev/client3/rdock/2013.1/src/exe/rbdock.cxx#4 $)

>  <Rbt.Library>
libRbt.so (2013.1, Build901 2013/11/27)

>  <Rbt.Parameter_File>
/export/apps/rDock/src/rDock_2013.1_src/data/scripts/dock_solv.prm

>  <Rbt.Receptor>
prm/pocket_docking_8.prm

>  <SCORE>
-42.9414

>  <SCORE.INTER>
-43.6444

>  <SCORE.INTER.CONST>
1

>  <SCORE.INTER.POLAR>
-7.29889

>  <SCORE.INTER.ROT>
9

>  <SCORE.INTER.SOLV>
32.0915

>  <SCORE.INTER.VDW>
-25.0638

>  <SCORE.INTER.norm>
-1.03915

>  <SCORE.INTRA>
0.702955

>  <SCORE.INTRA.DIHEDRAL>
-5.56737

>  <SCORE.INTRA.DIHEDRAL.0>
29.7866

>  <SCORE.INTRA.POLAR>
-0.859195

>  <SCORE.INTRA.POLAR.0>
-0.984091

>  <SCORE.INTRA.REPUL>
-0.23295

>  <SCORE.INTRA.REPUL.0>
0.274115

>  <SCORE.INTRA.SOLV>
7.13036

>  <SCORE.INTRA.SOLV.lig_0>
-152.978

>  <SCORE.INTRA.VDW>
4.00747

>  <SCORE.INTRA.VDW.0>
-6.10719

>  <SCORE.INTRA.norm>
0.016737

>  <SCORE.RESTR>
0

>  <SCORE.RESTR.CAVITY>
0

>  <SCORE.RESTR.norm>
0

>  <SCORE.SYSTEM>
0

>  <SCORE.SYSTEM.CONST>
0

>  <SCORE.SYSTEM.DIHEDRAL>
0

>  <SCORE.SYSTEM.SOLV>
0

>  <SCORE.SYSTEM.norm>
0

>  <SCORE.heavy>
42

>  <SCORE.norm>
-1.02242

>  <RMSD>
6.749

$$$$
1pbr
 OpenBabel11021811403D
libRbt.so/2013.1/901 2013/11/27
 42 45  0  0  0  0  0  0  0  0999 V2000
    3.2966    1.0292   41.0507 C   0  0  2  0  0  0  0  0  0  0  0  0
    4.0165   -0.0723   40.4412 O   0  0  0  0  0  0  0  0  0  0  0  0
    3.9369    1.4179   42.4353 C   0  0  2  0  0  0  0  0  0  0  0  0
    5.4229    1.4171   42.4490 N   0  3  0  0  0  0  0  0  0  0  0  0
    3.4950    0.4562   43.5545 C   0  0  1  0  0  0  0  0  0  0  0  0
    3.8616    0.9668   44.8345 O   0  0  0  0  0  0  0  0  0  0  0  0
    1.9773    0.2222   43.5137 C   0  0  2  0  0  0  0  0  0  0  0  0
    1.5818   -0.6336   44.5810 O   0  0  0  0  0  0  0  0  0  0  0  0
    1.5435   -0.3157   42.1320 C   0  0  2  0  0  0  0  0  0  0  0  0
    1.8850    0.6972   41.1621 O   0  0  0  0  0  0  0  0  0  0  0  0
    0.0468   -0.5970   42.0101 C   0  0  0  0  0  0  0  0  0  0  0  0
   -0.4131   -0.3730   40.6839 O   0  0  0  0  0  0  0  0  0  0  0  0
    6.2580    0.8116   36.9195 C   0  0  1  0  0  0  0  0  0  0  0  0
    6.7690    0.9711   35.5457 N   0  3  0  0  0  0  0  0  0  0  0  0
    5.0085    1.7028   37.1919 C   0  0  2  0  0  0  0  0  0  0  0  0
    5.3244    3.0781   36.9889 O   0  0  0  0  0  0  0  0  0  0  0  0
    4.4957    1.5266   38.6512 C   0  0  1  0  0  0  0  0  0  0  0  0
    3.2361    2.2479   38.7929 O   0  0  0  0  0  0  0  0  0  0  0  0
    4.2778    0.0227   39.0202 C   0  0  1  0  0  0  0  0  0  0  0  0
    5.5180   -0.8685   38.6914 C   0  0  1  0  0  0  0  0  0  0  0  0
    5.2468   -2.2985   38.9579 N   0  3  0  0  0  0  0  0  0  0  0  0
    5.9463   -0.6853   37.2124 C   0  0  0  0  0  0  0  0  0  0  0  0
    2.0292    1.7485   38.1327 C   0  0  1  0  0  0  0  0  0  0  0  0
    0.8191    2.5529   38.6433 C   0  0  2  0  0  0  0  0  0  0  0  0
   -0.3840    1.7988   38.5242 O   0  0  0  0  0  0  0  0  0  0  0  0
    0.8723    3.7242   37.6508 C   0  0  1  0  0  0  0  0  0  0  0  0
    1.1555    3.0214   36.3334 C   0  0  2  0  0  0  0  0  0  0  0  0
    2.0831    2.0193   36.7209 O   0  0  0  0  0  0  0  0  0  0  0  0
    1.7565    3.9085   35.2355 C   0  0  0  0  0  0  0  0  0  0  0  0
    2.7786    4.7310   35.7787 O   0  0  0  0  0  0  0  0  0  0  0  0
   -1.0101    7.7265   34.7313 C   0  0  1  0  0  0  0  0  0  0  0  0
   -2.3168    7.2968   34.3536 O   0  0  0  0  0  0  0  0  0  0  0  0
   -1.0099    8.1134   36.2367 C   0  0  2  0  0  0  0  0  0  0  0  0
    0.1622    8.8782   36.5082 O   0  0  0  0  0  0  0  0  0  0  0  0
   -1.0700    6.9127   37.2369 C   0  0  1  0  0  0  0  0  0  0  0  0
   -2.4725    6.4959   37.4566 N   0  3  0  0  0  0  0  0  0  0  0  0
   -0.1587    5.7403   36.7879 C   0  0  1  0  0  0  0  0  0  0  0  0
   -0.3376    4.5255   37.5569 O   0  0  0  0  0  0  0  0  0  0  0  0
    0.0202    6.5968   34.4809 C   0  0  1  0  0  0  0  0  0  0  0  0
   -0.3234    5.4848   35.3523 O   0  0  0  0  0  0  0  0  0  0  0  0
    0.1007    6.1414   33.0119 C   0  0  0  0  0  0  0  0  0  0  0  0
    1.2869    6.6746   32.3139 N   0  3  0  0  0  0  0  0  0  0  0  0
  1  2  1  1  0  0  0
  1  3  1  0  0  0  0
  1 10  1  0  0  0  0
  3  4  1  6  0  0  0
  3  5  1  0  0  0  0
  5  6  1  1  0  0  0
  5  7  1  0  0  0  0
  7  8  1  1  0  0  0
  7  9  1  0  0  0  0
  9 10  1  0  0  0  0
  9 11  1  1  0  0  0
 11 12  1  0  0  0  0
 13 14  1  6  0  0  0
 13 15  1  0  0  0  0
 13 22  1  0  0  0  0
 15 16  1  1  0  0  0
 15 17  1  0  0  0  0
 17 18  1  6  0  0  0
 17 19  1  0  0  0  0
 19  2  1  1  0  0  0
 19 20  1  0  0  0  0
 20 21  1  6  0  0  0
 20 22  1  0  0  0  0
 23 18  1  1  0  0  0
 23 24  1  0  0  0  0
 23 28  1  0  0  0  0
 24 25  1  6  0  0  0
 24 26  1  0  0  0  0
 26 27  1  0  0  0  0
 26 38  1  6  0  0  0
 27 28  1  0  0  0  0
 27 29  1  6  0  0  0
 29 30  1  0  0  0  0
 31 32  1  1  0  0  0
 31 33  1  0  0  0  0
 31 39  1  0  0  0  0
 33 34  1  1  0  0  0
 33 35  1  0  0  0  0
 35 36  1  6  0  0  0
 35 37  1  0  0  0  0
 37 38  1  1  0  0  0
 37 40  1  0  0  0  0
 39 40  1  0  0  0  0
 39 41  1  6  0  0  0
 41 42  1  0  0  0  0
M  CHG  5   4   1  14   1  21   1  36   1  42   1
M  END
>  <CHROM.1>
-137.32513599,33.25071481,-57.33555441,-69.60019198,178.42843634,148.12214766
165.33680834,65.69670364,58.73843668,70.63039392,170.40118121,-46.00200718
58.07507510,170.02201244,43.98027129,164.80555084,-56.52591353,77.06471031
96.35152139,-149.87674487,103.10256819,-86.60260866,2.05667914,2.74251417
38.32160546,1.07974596,-0.57551399,2.09715819

>  <Name>
1pbr

>  <RI>
0

>  <Rbt.Current_Directory>
/home/itssahil/PROJECTS/Mol_Feturizer/New_Systems/rnas/1pbr

>  <Rbt.Executable>
rbdock ($Id: //depot/dev/client3/rdock/2013.1/src/exe/rbdock.cxx#4 $)

>  <Rbt.Library>
libRbt.so (2013.1, Build901 2013/11/27)

>  <Rbt.Parameter_File>
/export/apps/rDock/src/rDock_2013.1_src/data/scripts/dock_solv.prm

>  <Rbt.Receptor>
prm/blind_docking_60.prm

>  <SCORE>
-32.8451

>  <SCORE.INTER>
-37.643

>  <SCORE.INTER.CONST>
1

>  <SCORE.INTER.POLAR>
-5.16855

>  <SCORE.INTER.ROT>
9

>  <SCORE.INTER.SOLV>
28.1716

>  <SCORE.INTER.VDW>
-26.8574

>  <SCORE.INTER.norm>
-0.896263

>  <SCORE.INTRA>
3.15341

>  <SCORE.INTRA.DIHEDRAL>
0.978628

>  <SCORE.INTRA.DIHEDRAL.0>
29.7866

>  <SCORE.INTRA.POLAR>
-0.00903607

>  <SCORE.INTRA.POLAR.0>
-0.984091

>  <SCORE.INTRA.REPUL>
-0.274115

>  <SCORE.INTRA.REPUL.0>
0.274115

>  <SCORE.INTRA.SOLV>
-1.34139

>  <SCORE.INTRA.SOLV.lig_0>
-152.978

>  <SCORE.INTRA.VDW>
4.73609

>  <SCORE.INTRA.VDW.0>
-6.10719

>  <SCORE.INTRA.norm>
0.0750812

>  <SCORE.RESTR>
1.64452

>  <SCORE.RESTR.CAVITY>
1.64452

>  <SCORE.RESTR.norm>
0.0391551

>  <SCORE.SYSTEM>
0

>  <SCORE.SYSTEM.CONST>
0

>  <SCORE.SYSTEM.DIHEDRAL>
0

>  <SCORE.SYSTEM.SOLV>
0

>  <SCORE.SYSTEM.norm>
0

>  <SCORE.heavy>
42

>  <SCORE.norm>
-0.782026

>  <RMSD>
6.773

$$$$
1pbr
 OpenBabel11021811403D
libRbt.so/2013.1/901 2013/11/27
 42 45  0  0  0  0  0  0  0  0999 V2000
    2.5304   -8.6004   42.1049 C   0  0  2  0  0  0  0  0  0  0  0  0
    3.4348   -7.9810   43.0545 O   0  0  0  0  0  0  0  0  0  0  0  0
    3.3252   -9.2036   40.8873 C   0  0  2  0  0  0  0  0  0  0  0  0
    4.5863   -9.8972   41.2573 N   0  3  0  0  0  0  0  0  0  0  0  0
    3.7146   -8.1154   39.8690 C   0  0  1  0  0  0  0  0  0  0  0  0
    4.1926   -8.7014   38.6601 O   0  0  0  0  0  0  0  0  0  0  0  0
    2.5212   -7.2003   39.5559 C   0  0  2  0  0  0  0  0  0  0  0  0
    2.8875   -6.2288   38.5811 O   0  0  0  0  0  0  0  0  0  0  0  0
    1.9672   -6.5617   40.8488 C   0  0  2  0  0  0  0  0  0  0  0  0
    1.5161   -7.6439   41.6906 O   0  0  0  0  0  0  0  0  0  0  0  0
    0.7874   -5.6169   40.6261 C   0  0  0  0  0  0  0  0  0  0  0  0
    1.1866   -4.4534   39.9137 O   0  0  0  0  0  0  0  0  0  0  0  0
    0.2949   -6.8280   45.7038 C   0  0  1  0  0  0  0  0  0  0  0  0
   -0.5330   -6.3517   46.8271 N   0  3  0  0  0  0  0  0  0  0  0  0
    1.0977   -5.6736   45.0311 C   0  0  2  0  0  0  0  0  0  0  0  0
    0.2109   -4.6713   44.5397 O   0  0  0  0  0  0  0  0  0  0  0  0
    1.9533   -6.1988   43.8412 C   0  0  1  0  0  0  0  0  0  0  0  0
    2.8048   -5.1147   43.3653 O   0  0  0  0  0  0  0  0  0  0  0  0
    2.8435   -7.4176   44.2501 C   0  0  1  0  0  0  0  0  0  0  0  0
    2.0361   -8.5434   44.9722 C   0  0  1  0  0  0  0  0  0  0  0  0
    2.9201   -9.6362   45.4347 N   0  3  0  0  0  0  0  0  0  0  0  0
    1.2479   -7.9649   46.1757 C   0  0  0  0  0  0  0  0  0  0  0  0
    3.6624   -4.3918   44.3054 C   0  0  1  0  0  0  0  0  0  0  0  0
    4.8231   -3.7510   43.5217 C   0  0  2  0  0  0  0  0  0  0  0  0
    5.9570   -3.5486   44.3604 O   0  0  0  0  0  0  0  0  0  0  0  0
    4.1472   -2.4289   43.1281 C   0  0  1  0  0  0  0  0  0  0  0  0
    3.4334   -2.0343   44.4104 C   0  0  2  0  0  0  0  0  0  0  0  0
    2.9495   -3.2828   44.8813 O   0  0  0  0  0  0  0  0  0  0  0  0
    2.2741   -1.0449   44.2352 C   0  0  0  0  0  0  0  0  0  0  0  0
    1.1493   -1.7064   43.6752 O   0  0  0  0  0  0  0  0  0  0  0  0
    6.6720   -1.6184   38.6948 C   0  0  1  0  0  0  0  0  0  0  0  0
    5.8610   -0.5757   38.1564 O   0  0  0  0  0  0  0  0  0  0  0  0
    7.6031   -1.0324   39.7927 C   0  0  2  0  0  0  0  0  0  0  0  0
    8.6445   -1.9708   40.0525 O   0  0  0  0  0  0  0  0  0  0  0  0
    6.9020   -0.6724   41.1435 C   0  0  1  0  0  0  0  0  0  0  0  0
    6.3140    0.6835   41.0725 N   0  3  0  0  0  0  0  0  0  0  0  0
    5.8712   -1.7524   41.5654 C   0  0  1  0  0  0  0  0  0  0  0  0
    5.0424   -1.3698   42.6905 O   0  0  0  0  0  0  0  0  0  0  0  0
    5.7821   -2.7317   39.3026 C   0  0  1  0  0  0  0  0  0  0  0  0
    5.0499   -2.1523   40.4170 O   0  0  0  0  0  0  0  0  0  0  0  0
    4.8209   -3.3828   38.2906 C   0  0  0  0  0  0  0  0  0  0  0  0
    5.4739   -3.6967   37.0047 N   0  3  0  0  0  0  0  0  0  0  0  0
  1  2  1  1  0  0  0
  1  3  1  0  0  0  0
  1 10  1  0  0  0  0
  3  4  1  1  0  0  0
  3  5  1  0  0  0  0
  5  6  1  6  0  0  0
  5  7  1  0  0  0  0
  7  8  1  6  0  0  0
  7  9  1  0  0  0  0
  9 10  1  0  0  0  0
  9 11  1  6  0  0  0
 11 12  1  0  0  0  0
 13 14  1  1  0  0  0
 13 15  1  0  0  0  0
 13 22  1  0  0  0  0
 15 16  1  6  0  0  0
 15 17  1  0  0  0  0
 17 18  1  1  0  0  0
 17 19  1  0  0  0  0
 19  2  1  6  0  0  0
 19 20  1  0  0  0  0
 20 21  1  1  0  0  0
 20 22  1  0  0  0  0
 23 18  1  6  0  0  0
 23 24  1  0  0  0  0
 23 28  1  0  0  0  0
 24 25  1  1  0  0  0
 24 26  1  0  0  0  0
 26 27  1  0  0  0  0
 26 38  1  1  0  0  0
 27 28  1  0  0  0  0
 27 29  1  6  0  0  0
 29 30  1  0  0  0  0
 31 32  1  1  0  0  0
 31 33  1  0  0  0  0
 31 39  1  0  0  0  0
 33 34  1  1  0  0  0
 33 35  1  0  0  0  0
 35 36  1  6  0  0  0
 35 37  1  0  0  0  0
 37 38  1  1  0  0  0
 37 40  1  0  0  0  0
 39 40  1  0  0  0  0
 39 41  1  6  0  0  0
 41 42  1  0  0  0  0
M  CHG  5   4   1  14   1  21   1  36   1  42   1
M  END
>  <CHROM.1>
-178.17186290,-66.42291406,-58.06611699,-174.98059134,82.38622297,-67.11434504
56.20380862,47.15652271,67.91232238,52.88920154,156.99994093,62.70842924
77.44280522,57.07514041,74.44582713,54.30629457,-67.26159546,58.12437528
-88.35629919,-176.03721494,44.73125938,28.46004464,3.57661242,-4.77271063
42.06110866,-2.83737744,1.00072196,0.61282356

>  <Name>
1pbr

>  <RI>
0

>  <Rbt.Current_Directory>
/home/itssahil/PROJECTS/Mol_Feturizer/New_Systems/rnas/1pbr

>  <Rbt.Executable>
rbdock ($Id: //depot/dev/client3/rdock/2013.1/src/exe/rbdock.cxx#4 $)

>  <Rbt.Library>
libRbt.so (2013.1, Build901 2013/11/27)

>  <Rbt.Parameter_File>
/export/apps/rDock/src/rDock_2013.1_src/data/scripts/dock_solv.prm

>  <Rbt.Receptor>
prm/pocket_docking_7.prm

>  <SCORE>
-28.6753

>  <SCORE.INTER>
-20.4784

>  <SCORE.INTER.CONST>
1

>  <SCORE.INTER.POLAR>
-4.71267

>  <SCORE.INTER.ROT>
9

>  <SCORE.INTER.SOLV>
21.7674

>  <SCORE.INTER.VDW>
-14.7992

>  <SCORE.INTER.norm>
-0.487581

>  <SCORE.INTRA>
-8.19686

>  <SCORE.INTRA.DIHEDRAL>
-15.7515

>  <SCORE.INTRA.DIHEDRAL.0>
29.7866

>  <SCORE.INTRA.POLAR>
-0.209382

>  <SCORE.INTRA.POLAR.0>
-0.984091

>  <SCORE.INTRA.REPUL>
-0.274115

>  <SCORE.INTRA.REPUL.0>
0.274115

>  <SCORE.INTRA.SOLV>
-0.709878

>  <SCORE.INTRA.SOLV.lig_0>
-152.978

>  <SCORE.INTRA.VDW>
2.11632

>  <SCORE.INTRA.VDW.0>
-6.10719

>  <SCORE.INTRA.norm>
-0.195163

>  <SCORE.RESTR>
0

>  <SCORE.RESTR.CAVITY>
0

>  <SCORE.RESTR.norm>
0

>  <SCORE.SYSTEM>
0

>  <SCORE.SYSTEM.CONST>
0

>  <SCORE.SYSTEM.DIHEDRAL>
0

>  <SCORE.SYSTEM.SOLV>
0

>  <SCORE.SYSTEM.norm>
0

>  <SCORE.heavy>
42

>  <SCORE.norm>
-0.682744

>  <RMSD>
6.775

$$$$
1pbr
 OpenBabel11021811403D
libRbt.so/2013.1/901 2013/11/27
 42 45  0  0  0  0  0  0  0  0999 V2000
    5.2303   -2.3784   44.3054 C   0  0  2  0  0  0  0  0  0  0  0  0
    6.0733   -2.1402   45.4611 O   0  0  0  0  0  0  0  0  0  0  0  0
    6.0387   -2.1690   42.9708 C   0  0  2  0  0  0  0  0  0  0  0  0
    7.4202   -2.7158   42.9950 N   0  3  0  0  0  0  0  0  0  0  0  0
    6.1721   -0.6758   42.6169 C   0  0  1  0  0  0  0  0  0  0  0  0
    6.6666   -0.5127   41.2894 O   0  0  0  0  0  0  0  0  0  0  0  0
    4.8228    0.0460   42.7515 C   0  0  2  0  0  0  0  0  0  0  0  0
    4.9564    1.4139   42.3786 O   0  0  0  0  0  0  0  0  0  0  0  0
    4.2499   -0.1259   44.1758 C   0  0  2  0  0  0  0  0  0  0  0  0
    4.0437   -1.5403   44.3765 O   0  0  0  0  0  0  0  0  0  0  0  0
    2.9146    0.5804   44.4042 C   0  0  0  0  0  0  0  0  0  0  0  0
    2.5782    0.6120   45.7849 O   0  0  0  0  0  0  0  0  0  0  0  0
    5.5926   -4.0587   49.2421 C   0  0  1  0  0  0  0  0  0  0  0  0
    5.1973   -4.4763   50.5998 N   0  3  0  0  0  0  0  0  0  0  0  0
    4.4505   -4.2714   48.2029 C   0  0  2  0  0  0  0  0  0  0  0  0
    4.0701   -5.6446   48.1556 O   0  0  0  0  0  0  0  0  0  0  0  0
    4.8959   -3.8355   46.7763 C   0  0  1  0  0  0  0  0  0  0  0  0
    3.7406   -3.8967   45.8884 O   0  0  0  0  0  0  0  0  0  0  0  0
    5.4866   -2.3878   46.7616 C   0  0  1  0  0  0  0  0  0  0  0  0
    6.5919   -2.1725   47.8445 C   0  0  1  0  0  0  0  0  0  0  0  0
    7.0603   -0.7691   47.8728 N   0  3  0  0  0  0  0  0  0  0  0  0
    6.0691   -2.5767   49.2472 C   0  0  0  0  0  0  0  0  0  0  0  0
    3.1177   -5.1862   45.5866 C   0  0  1  0  0  0  0  0  0  0  0  0
    2.0729   -4.9809   44.4738 C   0  0  2  0  0  0  0  0  0  0  0  0
    1.0633   -5.9848   44.5278 O   0  0  0  0  0  0  0  0  0  0  0  0
    2.9886   -5.1417   43.2509 C   0  0  1  0  0  0  0  0  0  0  0  0
    3.8494   -6.3309   43.6436 C   0  0  2  0  0  0  0  0  0  0  0  0
    4.0852   -6.0889   45.0222 O   0  0  0  0  0  0  0  0  0  0  0  0
    5.1794   -6.4526   42.8886 C   0  0  0  0  0  0  0  0  0  0  0  0
    4.9478   -6.9087   41.5639 O   0  0  0  0  0  0  0  0  0  0  0  0
    3.2617   -3.7840   38.0877 C   0  0  1  0  0  0  0  0  0  0  0  0
    2.8415   -4.9389   37.3636 O   0  0  0  0  0  0  0  0  0  0  0  0
    2.0400   -3.1621   38.8201 C   0  0  2  0  0  0  0  0  0  0  0  0
    2.3777   -1.8358   39.2195 O   0  0  0  0  0  0  0  0  0  0  0  0
    1.5365   -3.9518   40.0725 C   0  0  1  0  0  0  0  0  0  0  0  0
    0.6056   -5.0264   39.6630 N   0  3  0  0  0  0  0  0  0  0  0  0
    2.7134   -4.4746   40.9377 C   0  0  1  0  0  0  0  0  0  0  0  0
    2.3136   -5.3900   41.9870 O   0  0  0  0  0  0  0  0  0  0  0  0
    4.3527   -4.1647   39.1199 C   0  0  1  0  0  0  0  0  0  0  0  0
    3.7501   -5.0688   40.0860 O   0  0  0  0  0  0  0  0  0  0  0  0
    5.6132   -4.7889   38.4926 C   0  0  0  0  0  0  0  0  0  0  0  0
    5.9674   -4.1777   37.1966 N   0  3  0  0  0  0  0  0  0  0  0  0
  1  2  1  1  0  0  0
  1  3  1  0  0  0  0
  1 10  1  0  0  0  0
  3  4  1  1  0  0  0
  3  5  1  0  0  0  0
  5  6  1  6  0  0  0
  5  7  1  0  0  0  0
  7  8  1  1  0  0  0
  7  9  1  0  0  0  0
  9 10  1  0  0  0  0
  9 11  1  6  0  0  0
 11 12  1  0  0  0  0
 13 14  1  1  0  0  0
 13 15  1  0  0  0  0
 13 22  1  0  0  0  0
 15 16  1  6  0  0  0
 15 17  1  0  0  0  0
 17 18  1  6  0  0  0
 17 19  1  0  0  0  0
 19  2  1  6  0  0  0
 19 20  1  0  0  0  0
 20 21  1  1  0  0  0
 20 22  1  0  0  0  0
 23 18  1  6  0  0  0
 23 24  1  0  0  0  0
 23 28  1  0  0  0  0
 24 25  1  6  0  0  0
 24 26  1  0  0  0  0
 26 27  1  0  0  0  0
 26 38  1  6  0  0  0
 27 28  1  0  0  0  0
 27 29  1  6  0  0  0
 29 30  1  0  0  0  0
 31 32  1  1  0  0  0
 31 33  1  0  0  0  0
 31 39  1  0  0  0  0
 33 34  1  1  0  0  0
 33 35  1  0  0  0  0
 35 36  1  6  0  0  0
 35 37  1  0  0  0  0
 37 38  1  1  0  0  0
 37 40  1  0  0  0  0
 39 40  1  0  0  0  0
 39 41  1  6  0  0  0
 41 42  1  0  0  0  0
M  CHG  5   4   1  14   1  21   1  36   1  42   1
M  END
>  <CHROM.1>
-175.78989941,52.98431140,-71.37901225,-63.85312074,72.08552810,-168.25940532
68.96526809,-174.36796625,101.57667699,-65.58917035,-171.54774199,-166.54837553
56.22350270,127.50797389,-74.41399062,-179.51526023,175.09036052,-171.93018780
-113.05415193,-137.49826535,36.97378886,-85.17087825,4.26440906,-3.36981036
43.44768834,-1.05532096,-1.16631137,-1.22491415

>  <Name>
1pbr

>  <RI>
0

>  <Rbt.Current_Directory>
/home/itssahil/PROJECTS/Mol_Feturizer/New_Systems/rnas/1pbr

>  <Rbt.Executable>
rbdock ($Id: //depot/dev/client3/rdock/2013.1/src/exe/rbdock.cxx#4 $)

>  <Rbt.Library>
libRbt.so (2013.1, Build901 2013/11/27)

>  <Rbt.Parameter_File>
/export/apps/rDock/src/rDock_2013.1_src/data/scripts/dock_solv.prm

>  <Rbt.Receptor>
prm/pocket_docking_8.prm

>  <SCORE>
-32.3925

>  <SCORE.INTER>
-34.3735

>  <SCORE.INTER.CONST>
1

>  <SCORE.INTER.POLAR>
-6.42963

>  <SCORE.INTER.ROT>
9

>  <SCORE.INTER.SOLV>
20.8465

>  <SCORE.INTER.VDW>
-18.0324

>  <SCORE.INTER.norm>
-0.818417

>  <SCORE.INTRA>
1.981

>  <SCORE.INTRA.DIHEDRAL>
0.208692

>  <SCORE.INTRA.DIHEDRAL.0>
29.7866

>  <SCORE.INTRA.POLAR>
0.976936

>  <SCORE.INTRA.POLAR.0>
-0.984091

>  <SCORE.INTRA.REPUL>
-0.256288

>  <SCORE.INTRA.REPUL.0>
0.274115

>  <SCORE.INTRA.SOLV>
-2.73412

>  <SCORE.INTRA.SOLV.lig_0>
-152.978

>  <SCORE.INTRA.VDW>
1.20357

>  <SCORE.INTRA.VDW.0>
-6.10719

>  <SCORE.INTRA.norm>
0.0471667

>  <SCORE.RESTR>
0

>  <SCORE.RESTR.CAVITY>
0

>  <SCORE.RESTR.norm>
0

>  <SCORE.SYSTEM>
0

>  <SCORE.SYSTEM.CONST>
0

>  <SCORE.SYSTEM.DIHEDRAL>
0

>  <SCORE.SYSTEM.SOLV>
0

>  <SCORE.SYSTEM.norm>
0

>  <SCORE.heavy>
42

>  <SCORE.norm>
-0.77125

>  <RMSD>
6.786

$$$$
1pbr
 OpenBabel11021811403D
libRbt.so/2013.1/901 2013/11/27
 42 45  0  0  0  0  0  0  0  0999 V2000
    3.4036    1.1272   40.8083 C   0  0  2  0  0  0  0  0  0  0  0  0
    4.1820    0.0675   40.1964 O   0  0  0  0  0  0  0  0  0  0  0  0
    3.8565    1.3657   42.2970 C   0  0  2  0  0  0  0  0  0  0  0  0
    5.3267    1.3211   42.5085 N   0  3  0  0  0  0  0  0  0  0  0  0
    3.2520    0.3162   43.2488 C   0  0  1  0  0  0  0  0  0  0  0  0
    3.4499    0.6937   44.6096 O   0  0  0  0  0  0  0  0  0  0  0  0
    1.7504    0.1306   42.9836 C   0  0  2  0  0  0  0  0  0  0  0  0
    1.2005   -0.8099   43.9008 O   0  0  0  0  0  0  0  0  0  0  0  0
    1.4992   -0.2626   41.5109 C   0  0  2  0  0  0  0  0  0  0  0  0
    1.9848    0.8267   40.6979 O   0  0  0  0  0  0  0  0  0  0  0  0
    0.0286   -0.4882   41.1640 C   0  0  0  0  0  0  0  0  0  0  0  0
   -0.6303    0.7410   40.8892 O   0  0  0  0  0  0  0  0  0  0  0  0
    6.2680    1.0352   36.6020 C   0  0  1  0  0  0  0  0  0  0  0  0
    6.7311    1.2046   35.2125 N   0  3  0  0  0  0  0  0  0  0  0  0
    4.9714    1.8492   36.8956 C   0  0  2  0  0  0  0  0  0  0  0  0
    5.1928    3.2384   36.6640 O   0  0  0  0  0  0  0  0  0  0  0  0
    4.5099    1.6644   38.3709 C   0  0  1  0  0  0  0  0  0  0  0  0
    3.2107    2.3061   38.5366 O   0  0  0  0  0  0  0  0  0  0  0  0
    4.3988    0.1559   38.7675 C   0  0  1  0  0  0  0  0  0  0  0  0
    5.6846   -0.6596   38.4178 C   0  0  1  0  0  0  0  0  0  0  0  0
    5.5130   -2.0995   38.7124 N   0  3  0  0  0  0  0  0  0  0  0  0
    6.0609   -0.4735   36.9251 C   0  0  0  0  0  0  0  0  0  0  0  0
    1.9951    1.6207   38.0958 C   0  0  1  0  0  0  0  0  0  0  0  0
    0.9186    2.6772   37.7844 C   0  0  2  0  0  0  0  0  0  0  0  0
   -0.3900    2.1296   37.9181 O   0  0  0  0  0  0  0  0  0  0  0  0
    1.2815    2.9666   36.3200 C   0  0  1  0  0  0  0  0  0  0  0  0
    1.5431    1.5747   35.7689 C   0  0  2  0  0  0  0  0  0  0  0  0
    2.2255    0.9490   36.8447 O   0  0  0  0  0  0  0  0  0  0  0  0
    2.3972    1.5261   34.4954 C   0  0  0  0  0  0  0  0  0  0  0  0
    2.4880    0.1911   34.0201 O   0  0  0  0  0  0  0  0  0  0  0  0
    0.1449    7.6265   33.8612 C   0  0  1  0  0  0  0  0  0  0  0  0
   -1.0342    7.4101   33.0882 O   0  0  0  0  0  0  0  0  0  0  0  0
   -0.1978    7.4962   35.3715 C   0  0  2  0  0  0  0  0  0  0  0  0
    0.8650    8.0702   36.1289 O   0  0  0  0  0  0  0  0  0  0  0  0
   -0.4465    6.0379   35.8787 C   0  0  1  0  0  0  0  0  0  0  0  0
   -1.8516    5.6421   35.6378 N   0  3  0  0  0  0  0  0  0  0  0  0
    0.5717    5.0348   35.2756 C   0  0  1  0  0  0  0  0  0  0  0  0
    0.2587    3.6451   35.5401 O   0  0  0  0  0  0  0  0  0  0  0  0
    1.2341    6.5924   33.4804 C   0  0  1  0  0  0  0  0  0  0  0  0
    0.7352    5.2742   33.8371 O   0  0  0  0  0  0  0  0  0  0  0  0
    1.6493    6.6420   31.9981 C   0  0  0  0  0  0  0  0  0  0  0  0
    1.8562    5.3003   31.4188 N   0  3  0  0  0  0  0  0  0  0  0  0
  1  2  1  1  0  0  0
  1  3  1  0  0  0  0
  1 10  1  0  0  0  0
  3  4  1  6  0  0  0
  3  5  1  0  0  0  0
  5  6  1  1  0  0  0
  5  7  1  0  0  0  0
  7  8  1  1  0  0  0
  7  9  1  0  0  0  0
  9 10  1  0  0  0  0
  9 11  1  1  0  0  0
 11 12  1  0  0  0  0
 13 14  1  6  0  0  0
 13 15  1  0  0  0  0
 13 22  1  0  0  0  0
 15 16  1  1  0  0  0
 15 17  1  0  0  0  0
 17 18  1  6  0  0  0
 17 19  1  0  0  0  0
 19  2  1  1  0  0  0
 19 20  1  0  0  0  0
 20 21  1  6  0  0  0
 20 22  1  0  0  0  0
 23 18  1  6  0  0  0
 23 24  1  0  0  0  0
 23 28  1  0  0  0  0
 24 25  1  6  0  0  0
 24 26  1  0  0  0  0
 26 27  1  0  0  0  0
 26 38  1  6  0  0  0
 27 28  1  0  0  0  0
 27 29  1  6  0  0  0
 29 30  1  0  0  0  0
 31 32  1  6  0  0  0
 31 33  1  0  0  0  0
 31 39  1  0  0  0  0
 33 34  1  1  0  0  0
 33 35  1  0  0  0  0
 35 36  1  6  0  0  0
 35 37  1  0  0  0  0
 37 38  1  6  0  0  0
 37 40  1  0  0  0  0
 39 40  1  0  0  0  0
 39 41  1  6  0  0  0
 41 42  1  0  0  0  0
M  CHG  5   4   1  14   1  21   1  36   1  42   1
M  END
>  <CHROM.1>
-149.75192663,33.54626482,175.88066310,62.41040632,-179.42739713,82.61523655
26.25279523,-74.78454282,65.69987537,79.95263208,-154.62915396,-45.54470676
65.53985115,106.49777314,-175.57504676,-60.19602532,71.26725492,-69.43594525
-40.88401236,-118.02388660,-139.91686629,-131.02930498,2.32010437,2.41730761
37.67423156,1.22540369,-0.60348234,2.03304130

>  <Name>
1pbr

>  <RI>
0

>  <Rbt.Current_Directory>
/home/itssahil/PROJECTS/Mol_Feturizer/New_Systems/rnas/1pbr

>  <Rbt.Executable>
rbdock ($Id: //depot/dev/client3/rdock/2013.1/src/exe/rbdock.cxx#4 $)

>  <Rbt.Library>
libRbt.so (2013.1, Build901 2013/11/27)

>  <Rbt.Parameter_File>
/export/apps/rDock/src/rDock_2013.1_src/data/scripts/dock_solv.prm

>  <Rbt.Receptor>
prm/blind_docking_60.prm

>  <SCORE>
-28.526

>  <SCORE.INTER>
-37.9488

>  <SCORE.INTER.CONST>
1

>  <SCORE.INTER.POLAR>
-4.87356

>  <SCORE.INTER.ROT>
9

>  <SCORE.INTER.SOLV>
28.109

>  <SCORE.INTER.VDW>
-28.0236

>  <SCORE.INTER.norm>
-0.903542

>  <SCORE.INTRA>
8.48223

>  <SCORE.INTRA.DIHEDRAL>
11.9497

>  <SCORE.INTRA.DIHEDRAL.0>
29.7866

>  <SCORE.INTRA.POLAR>
0.116404

>  <SCORE.INTRA.POLAR.0>
-0.984091

>  <SCORE.INTRA.REPUL>
-0.274115

>  <SCORE.INTRA.REPUL.0>
0.274115

>  <SCORE.INTRA.SOLV>
-2.47117

>  <SCORE.INTRA.SOLV.lig_0>
-152.978

>  <SCORE.INTRA.VDW>
4.71775

>  <SCORE.INTRA.VDW.0>
-6.10719

>  <SCORE.INTRA.norm>
0.201958

>  <SCORE.RESTR>
0.94055

>  <SCORE.RESTR.CAVITY>
0.94055

>  <SCORE.RESTR.norm>
0.0223941

>  <SCORE.SYSTEM>
0

>  <SCORE.SYSTEM.CONST>
0

>  <SCORE.SYSTEM.DIHEDRAL>
0

>  <SCORE.SYSTEM.SOLV>
0

>  <SCORE.SYSTEM.norm>
0

>  <SCORE.heavy>
42

>  <SCORE.norm>
-0.67919

>  <RMSD>
6.827

$$$$
1pbr
 OpenBabel11021811403D
libRbt.so/2013.1/901 2013/11/27
 42 45  0  0  0  0  0  0  0  0999 V2000
   -0.3231   -7.0255   43.1809 C   0  0  2  0  0  0  0  0  0  0  0  0
   -1.1207   -5.8399   43.4285 O   0  0  0  0  0  0  0  0  0  0  0  0
   -1.2406   -8.2964   43.0346 C   0  0  2  0  0  0  0  0  0  0  0  0
   -2.4830   -8.0724   42.2505 N   0  3  0  0  0  0  0  0  0  0  0  0
   -1.6880   -8.8341   44.4069 C   0  0  1  0  0  0  0  0  0  0  0  0
   -2.2889  -10.1205   44.2750 O   0  0  0  0  0  0  0  0  0  0  0  0
   -0.5015   -8.9219   45.3787 C   0  0  2  0  0  0  0  0  0  0  0  0
   -0.9256   -9.4615   46.6266 O   0  0  0  0  0  0  0  0  0  0  0  0
    0.1840   -7.5460   45.5312 C   0  0  2  0  0  0  0  0  0  0  0  0
    0.6772   -7.1767   44.2259 O   0  0  0  0  0  0  0  0  0  0  0  0
    1.3659   -7.5379   46.4993 C   0  0  0  0  0  0  0  0  0  0  0  0
    0.9407   -7.7842   47.8331 O   0  0  0  0  0  0  0  0  0  0  0  0
   -0.4962   -1.6350   43.7983 C   0  0  1  0  0  0  0  0  0  0  0  0
    0.0062   -0.2780   44.0812 N   0  3  0  0  0  0  0  0  0  0  0  0
    0.3739   -2.3780   42.7397 C   0  0  2  0  0  0  0  0  0  0  0  0
    0.4008   -1.6469   41.5160 O   0  0  0  0  0  0  0  0  0  0  0  0
   -0.1834   -3.8022   42.4489 C   0  0  1  0  0  0  0  0  0  0  0  0
    0.7606   -4.5052   41.5877 O   0  0  0  0  0  0  0  0  0  0  0  0
   -0.4040   -4.6261   43.7596 C   0  0  1  0  0  0  0  0  0  0  0  0
   -1.2310   -3.8485   44.8330 C   0  0  1  0  0  0  0  0  0  0  0  0
   -1.3381   -4.6121   46.0959 N   0  3  0  0  0  0  0  0  0  0  0  0
   -0.5960   -2.4620   45.1135 C   0  0  0  0  0  0  0  0  0  0  0  0
    0.5625   -4.5117   40.1377 C   0  0  1  0  0  0  0  0  0  0  0  0
    1.7141   -3.7295   39.4790 C   0  0  2  0  0  0  0  0  0  0  0  0
    1.3187   -3.2032   38.2153 O   0  0  0  0  0  0  0  0  0  0  0  0
    2.7328   -4.8710   39.3409 C   0  0  1  0  0  0  0  0  0  0  0  0
    1.8668   -6.0228   38.8584 C   0  0  2  0  0  0  0  0  0  0  0  0
    0.6834   -5.8495   39.6226 O   0  0  0  0  0  0  0  0  0  0  0  0
    2.4516   -7.4220   39.0908 C   0  0  0  0  0  0  0  0  0  0  0  0
    2.4071   -7.7453   40.4728 O   0  0  0  0  0  0  0  0  0  0  0  0
    7.1913   -1.9910   39.0642 C   0  0  1  0  0  0  0  0  0  0  0  0
    8.1656   -2.8857   38.5303 O   0  0  0  0  0  0  0  0  0  0  0  0
    6.1935   -1.5868   37.9431 C   0  0  2  0  0  0  0  0  0  0  0  0
    5.4723   -0.4342   38.3718 O   0  0  0  0  0  0  0  0  0  0  0  0
    5.1707   -2.6938   37.5256 C   0  0  1  0  0  0  0  0  0  0  0  0
    5.7705   -3.5941   36.5163 N   0  3  0  0  0  0  0  0  0  0  0  0
    4.6119   -3.4576   38.7549 C   0  0  1  0  0  0  0  0  0  0  0  0
    3.8288   -4.6285   38.4163 O   0  0  0  0  0  0  0  0  0  0  0  0
    6.4243   -2.6651   40.2296 C   0  0  1  0  0  0  0  0  0  0  0  0
    5.6970   -3.7987   39.6820 O   0  0  0  0  0  0  0  0  0  0  0  0
    7.3265   -3.1019   41.3989 C   0  0  0  0  0  0  0  0  0  0  0  0
    6.6181   -3.9460   42.3809 N   0  3  0  0  0  0  0  0  0  0  0  0
  1  2  1  1  0  0  0
  1  3  1  0  0  0  0
  1 10  1  0  0  0  0
  3  4  1  6  0  0  0
  3  5  1  0  0  0  0
  5  6  1  6  0  0  0
  5  7  1  0  0  0  0
  7  8  1  1  0  0  0
  7  9  1  0  0  0  0
  9 10  1  0  0  0  0
  9 11  1  1  0  0  0
 11 12  1  0  0  0  0
 13 14  1  1  0  0  0
 13 15  1  0  0  0  0
 13 22  1  0  0  0  0
 15 16  1  6  0  0  0
 15 17  1  0  0  0  0
 17 18  1  6  0  0  0
 17 19  1  0  0  0  0
 19  2  1  6  0  0  0
 19 20  1  0  0  0  0
 20 21  1  1  0  0  0
 20 22  1  0  0  0  0
 23 18  1  1  0  0  0
 23 24  1  0  0  0  0
 23 28  1  0  0  0  0
 24 25  1  6  0  0  0
 24 26  1  0  0  0  0
 26 27  1  0  0  0  0
 26 38  1  6  0  0  0
 27 28  1  0  0  0  0
 27 29  1  1  0  0  0
 29 30  1  0  0  0  0
 31 32  1  6  0  0  0
 31 33  1  0  0  0  0
 31 39  1  0  0  0  0
 33 34  1  1  0  0  0
 33 35  1  0  0  0  0
 35 36  1  6  0  0  0
 35 37  1  0  0  0  0
 37 38  1  6  0  0  0
 37 40  1  0  0  0  0
 39 40  1  0  0  0  0
 39 41  1  1  0  0  0
 41 42  1  0  0  0  0
M  CHG  5   4   1  14   1  21   1  36   1  42   1
M  END
>  <CHROM.1>
172.08983373,94.44117039,-55.13999345,-70.20351866,56.51237554,-66.18223062
-81.00948849,63.46929281,-54.24793450,-95.45003681,113.84522537,41.85759271
-177.38950595,58.45477310,71.84823315,-61.99835914,-77.16317738,59.24058634
45.65399716,-146.11931166,-169.91303416,-60.85451481,1.81611271,-4.88638798
41.83669542,-2.82600865,0.82477318,0.20625301

>  <Name>
1pbr

>  <RI>
0

>  <Rbt.Current_Directory>
/home/itssahil/PROJECTS/Mol_Feturizer/New_Systems/rnas/1pbr

>  <Rbt.Executable>
rbdock ($Id: //depot/dev/client3/rdock/2013.1/src/exe/rbdock.cxx#4 $)

>  <Rbt.Library>
libRbt.so (2013.1, Build901 2013/11/27)

>  <Rbt.Parameter_File>
/export/apps/rDock/src/rDock_2013.1_src/data/scripts/dock_solv.prm

>  <Rbt.Receptor>
prm/pocket_docking_8.prm

>  <SCORE>
-32.2412

>  <SCORE.INTER>
-32.0648

>  <SCORE.INTER.CONST>
1

>  <SCORE.INTER.POLAR>
-5.02082

>  <SCORE.INTER.ROT>
9

>  <SCORE.INTER.SOLV>
29.5995

>  <SCORE.INTER.VDW>
-24.1069

>  <SCORE.INTER.norm>
-0.763447

>  <SCORE.INTRA>
-0.176469

>  <SCORE.INTRA.DIHEDRAL>
-1.78896

>  <SCORE.INTRA.DIHEDRAL.0>
29.7866

>  <SCORE.INTRA.POLAR>
0.883115

>  <SCORE.INTRA.POLAR.0>
-0.984091

>  <SCORE.INTRA.REPUL>
-0.266123

>  <SCORE.INTRA.REPUL.0>
0.274115

>  <SCORE.INTRA.SOLV>
-2.32331

>  <SCORE.INTRA.SOLV.lig_0>
-152.978

>  <SCORE.INTRA.VDW>
0.207685

>  <SCORE.INTRA.VDW.0>
-6.10719

>  <SCORE.INTRA.norm>
-0.00420164

>  <SCORE.RESTR>
0

>  <SCORE.RESTR.CAVITY>
0

>  <SCORE.RESTR.norm>
0

>  <SCORE.SYSTEM>
0

>  <SCORE.SYSTEM.CONST>
0

>  <SCORE.SYSTEM.DIHEDRAL>
0

>  <SCORE.SYSTEM.SOLV>
0

>  <SCORE.SYSTEM.norm>
0

>  <SCORE.heavy>
42

>  <SCORE.norm>
-0.767648

>  <RMSD>
6.830

$$$$
1pbr
 OpenBabel11021811403D
libRbt.so/2013.1/901 2013/11/27
 42 45  0  0  0  0  0  0  0  0999 V2000
    2.6226    1.6058   40.5897 C   0  0  2  0  0  0  0  0  0  0  0  0
    3.2699    0.7564   39.6086 O   0  0  0  0  0  0  0  0  0  0  0  0
    3.5410    1.8012   41.8533 C   0  0  2  0  0  0  0  0  0  0  0  0
    4.9800    2.0051   41.5435 N   0  3  0  0  0  0  0  0  0  0  0  0
    3.4713    0.5869   42.7984 C   0  0  1  0  0  0  0  0  0  0  0  0
    4.0890    0.8830   44.0490 O   0  0  0  0  0  0  0  0  0  0  0  0
    2.0163    0.1560   43.0369 C   0  0  2  0  0  0  0  0  0  0  0  0
    1.9693   -0.9389   43.9463 O   0  0  0  0  0  0  0  0  0  0  0  0
    1.3115   -0.1560   41.6981 C   0  0  2  0  0  0  0  0  0  0  0  0
    1.3156    1.0647   40.9280 O   0  0  0  0  0  0  0  0  0  0  0  0
   -0.1387   -0.6140   41.8445 C   0  0  0  0  0  0  0  0  0  0  0  0
   -0.8644   -0.4202   40.6377 O   0  0  0  0  0  0  0  0  0  0  0  0
    2.0899    0.2463   35.5398 C   0  0  1  0  0  0  0  0  0  0  0  0
    1.7798    0.3941   34.1060 N   0  3  0  0  0  0  0  0  0  0  0  0
    3.6225    0.2911   35.8202 C   0  0  2  0  0  0  0  0  0  0  0  0
    4.2892   -0.7490   35.1087 O   0  0  0  0  0  0  0  0  0  0  0  0
    3.9248    0.1204   37.3377 C   0  0  1  0  0  0  0  0  0  0  0  0
    5.3498    0.3404   37.5567 O   0  0  0  0  0  0  0  0  0  0  0  0
    3.1037    1.1194   38.2168 C   0  0  1  0  0  0  0  0  0  0  0  0
    1.5766    1.1036   37.8875 C   0  0  1  0  0  0  0  0  0  0  0  0
    0.8418    2.1274   38.6630 N   0  3  0  0  0  0  0  0  0  0  0  0
    1.3419    1.3291   36.3714 C   0  0  0  0  0  0  0  0  0  0  0  0
    6.3047   -0.7378   37.2965 C   0  0  1  0  0  0  0  0  0  0  0  0
    7.2961   -0.8131   38.4727 C   0  0  2  0  0  0  0  0  0  0  0  0
    8.5344   -1.3865   38.0626 O   0  0  0  0  0  0  0  0  0  0  0  0
    6.5012   -1.7460   39.3987 C   0  0  1  0  0  0  0  0  0  0  0  0
    5.9753   -2.7934   38.4312 C   0  0  2  0  0  0  0  0  0  0  0  0
    5.6340   -2.0105   37.2974 O   0  0  0  0  0  0  0  0  0  0  0  0
    4.7541   -3.5817   38.9219 C   0  0  0  0  0  0  0  0  0  0  0  0
    4.4197   -4.5952   37.9853 O   0  0  0  0  0  0  0  0  0  0  0  0
    8.7915   -0.7981   44.1936 C   0  0  1  0  0  0  0  0  0  0  0  0
    9.6138   -1.9265   44.4855 O   0  0  0  0  0  0  0  0  0  0  0  0
    9.2946   -0.1171   42.8902 C   0  0  2  0  0  0  0  0  0  0  0  0
    8.7265    1.1882   42.8121 O   0  0  0  0  0  0  0  0  0  0  0  0
    8.9741   -0.8853   41.5662 C   0  0  1  0  0  0  0  0  0  0  0  0
   10.0096   -1.9084   41.3016 N   0  3  0  0  0  0  0  0  0  0  0  0
    7.5380   -1.4720   41.5717 C   0  0  1  0  0  0  0  0  0  0  0  0
    7.2630   -2.3702   40.4686 O   0  0  0  0  0  0  0  0  0  0  0  0
    7.3166   -1.2393   44.0180 C   0  0  1  0  0  0  0  0  0  0  0  0
    7.2529   -2.1153   42.8594 O   0  0  0  0  0  0  0  0  0  0  0  0
    6.7192   -1.9250   45.2609 C   0  0  0  0  0  0  0  0  0  0  0  0
    5.2592   -1.7377   45.3690 N   0  3  0  0  0  0  0  0  0  0  0  0
  1  2  1  6  0  0  0
  1  3  1  0  0  0  0
  1 10  1  0  0  0  0
  3  4  1  6  0  0  0
  3  5  1  0  0  0  0
  5  6  1  1  0  0  0
  5  7  1  0  0  0  0
  7  8  1  1  0  0  0
  7  9  1  0  0  0  0
  9 10  1  0  0  0  0
  9 11  1  1  0  0  0
 11 12  1  0  0  0  0
 13 14  1  6  0  0  0
 13 15  1  0  0  0  0
 13 22  1  0  0  0  0
 15 16  1  6  0  0  0
 15 17  1  0  0  0  0
 17 18  1  6  0  0  0
 17 19  1  0  0  0  0
 19  2  1  1  0  0  0
 19 20  1  0  0  0  0
 20 21  1  1  0  0  0
 20 22  1  0  0  0  0
 23 18  1  1  0  0  0
 23 24  1  0  0  0  0
 23 28  1  0  0  0  0
 24 25  1  6  0  0  0
 24 26  1  0  0  0  0
 26 27  1  0  0  0  0
 26 38  1  1  0  0  0
 27 28  1  0  0  0  0
 27 29  1  1  0  0  0
 29 30  1  0  0  0  0
 31 32  1  6  0  0  0
 31 33  1  0  0  0  0
 31 39  1  0  0  0  0
 33 34  1  6  0  0  0
 33 35  1  0  0  0  0
 35 36  1  1  0  0  0
 35 37  1  0  0  0  0
 37 38  1  6  0  0  0
 37 40  1  0  0  0  0
 39 40  1  0  0  0  0
 39 41  1  1  0  0  0
 41 42  1  0  0  0  0
M  CHG  5   4   1  14   1  21   1  36   1  42   1
M  END
>  <CHROM.1>
-140.86741673,177.56933041,-89.84600643,54.29898371,-169.37720773,158.80358025
164.09237239,151.87543373,-57.80515845,-81.20769851,-134.60802162,156.67875888
61.66929195,77.01745046,-175.46523209,61.08694025,171.38505549,-52.70855358
50.10110106,-100.96979716,151.44009984,-155.51779395,4.80098358,-0.49312300
40.29729851,2.38898699,0.31352734,-1.63365401

>  <Name>
1pbr

>  <RI>
0

>  <Rbt.Current_Directory>
/home/itssahil/PROJECTS/Mol_Feturizer/New_Systems/rnas/1pbr

>  <Rbt.Executable>
rbdock ($Id: //depot/dev/client3/rdock/2013.1/src/exe/rbdock.cxx#4 $)

>  <Rbt.Library>
libRbt.so (2013.1, Build901 2013/11/27)

>  <Rbt.Parameter_File>
/export/apps/rDock/src/rDock_2013.1_src/data/scripts/dock_solv.prm

>  <Rbt.Receptor>
prm/pocket_docking_7.prm

>  <SCORE>
-25.6405

>  <SCORE.INTER>
-28.2131

>  <SCORE.INTER.CONST>
1

>  <SCORE.INTER.POLAR>
-3.66665

>  <SCORE.INTER.ROT>
9

>  <SCORE.INTER.SOLV>
28.7071

>  <SCORE.INTER.VDW>
-25.7556

>  <SCORE.INTER.norm>
-0.671739

>  <SCORE.INTRA>
2.56962

>  <SCORE.INTRA.DIHEDRAL>
4.36775

>  <SCORE.INTRA.DIHEDRAL.0>
29.7866

>  <SCORE.INTRA.POLAR>
-1.23072

>  <SCORE.INTRA.POLAR.0>
-0.984091

>  <SCORE.INTRA.REPUL>
-0.274115

>  <SCORE.INTRA.REPUL.0>
0.274115

>  <SCORE.INTRA.SOLV>
4.21603

>  <SCORE.INTRA.SOLV.lig_0>
-152.978

>  <SCORE.INTRA.VDW>
3.83277

>  <SCORE.INTRA.VDW.0>
-6.10719

>  <SCORE.INTRA.norm>
0.0611815

>  <SCORE.RESTR>
0.00294211

>  <SCORE.RESTR.CAVITY>
0.00294211

>  <SCORE.RESTR.norm>
7.00502e-05

>  <SCORE.SYSTEM>
0

>  <SCORE.SYSTEM.CONST>
0

>  <SCORE.SYSTEM.DIHEDRAL>
0

>  <SCORE.SYSTEM.SOLV>
0

>  <SCORE.SYSTEM.norm>
0

>  <SCORE.heavy>
42

>  <SCORE.norm>
-0.610488

>  <RMSD>
6.916

$$$$
1pbr
 OpenBabel11021811403D
libRbt.so/2013.1/901 2013/11/27
 42 45  0  0  0  0  0  0  0  0999 V2000
    3.0436    0.6617   39.4083 C   0  0  2  0  0  0  0  0  0  0  0  0
    3.1660   -0.7302   39.0202 O   0  0  0  0  0  0  0  0  0  0  0  0
    4.2712    1.1073   40.2873 C   0  0  2  0  0  0  0  0  0  0  0  0
    5.5836    0.5898   39.8203 N   0  3  0  0  0  0  0  0  0  0  0  0
    4.1203    0.6442   41.7486 C   0  0  1  0  0  0  0  0  0  0  0  0
    5.0925    1.2723   42.5814 O   0  0  0  0  0  0  0  0  0  0  0  0
    2.7138    0.9533   42.2830 C   0  0  2  0  0  0  0  0  0  0  0  0
    2.6071    0.5582   43.6471 O   0  0  0  0  0  0  0  0  0  0  0  0
    1.6339    0.3006   41.3917 C   0  0  2  0  0  0  0  0  0  0  0  0
    1.7703    0.8795   40.0766 O   0  0  0  0  0  0  0  0  0  0  0  0
    0.2012    0.5409   41.8644 C   0  0  0  0  0  0  0  0  0  0  0  0
   -0.7358    0.2546   40.8345 O   0  0  0  0  0  0  0  0  0  0  0  0
    6.1205   -1.1384   35.9685 C   0  0  1  0  0  0  0  0  0  0  0  0
    6.8789   -1.3910   34.7296 N   0  3  0  0  0  0  0  0  0  0  0  0
    5.1241    0.0509   35.8188 C   0  0  2  0  0  0  0  0  0  0  0  0
    5.8222    1.2441   35.4705 O   0  0  0  0  0  0  0  0  0  0  0  0
    4.3452    0.3059   37.1424 C   0  0  1  0  0  0  0  0  0  0  0  0
    3.3163    1.3087   36.8918 O   0  0  0  0  0  0  0  0  0  0  0  0
    3.6781   -0.9970   37.6923 C   0  0  1  0  0  0  0  0  0  0  0  0
    4.6752   -2.1962   37.7858 C   0  0  1  0  0  0  0  0  0  0  0  0
    3.9943   -3.4382   38.2137 N   0  3  0  0  0  0  0  0  0  0  0  0
    5.3790   -2.4293   36.4239 C   0  0  0  0  0  0  0  0  0  0  0  0
    3.5805    2.4124   35.9678 C   0  0  1  0  0  0  0  0  0  0  0  0
    2.4193    2.5005   34.9599 C   0  0  2  0  0  0  0  0  0  0  0  0
    2.8428    3.1081   33.7426 O   0  0  0  0  0  0  0  0  0  0  0  0
    1.4715    3.4046   35.7625 C   0  0  1  0  0  0  0  0  0  0  0  0
    2.4201    4.4481   36.3291 C   0  0  2  0  0  0  0  0  0  0  0  0
    3.5562    3.6682   36.6691 O   0  0  0  0  0  0  0  0  0  0  0  0
    1.9023    5.2015   37.5612 C   0  0  0  0  0  0  0  0  0  0  0  0
    0.6024    4.7428   37.9022 O   0  0  0  0  0  0  0  0  0  0  0  0
    0.2588    7.7924   32.8645 C   0  0  1  0  0  0  0  0  0  0  0  0
   -1.0750    7.6209   32.3886 O   0  0  0  0  0  0  0  0  0  0  0  0
    0.2460    7.8712   34.4167 C   0  0  2  0  0  0  0  0  0  0  0  0
    1.4929    8.4067   34.8538 O   0  0  0  0  0  0  0  0  0  0  0  0
   -0.0054    6.5153   35.1543 C   0  0  1  0  0  0  0  0  0  0  0  0
   -1.4570    6.2513   35.2648 N   0  3  0  0  0  0  0  0  0  0  0  0
    0.7690    5.3452   34.4926 C   0  0  1  0  0  0  0  0  0  0  0  0
    0.4074    4.0368   34.9991 O   0  0  0  0  0  0  0  0  0  0  0  0
    1.1483    6.6089   32.4077 C   0  0  1  0  0  0  0  0  0  0  0  0
    0.6323    5.4018   33.0326 O   0  0  0  0  0  0  0  0  0  0  0  0
    1.2310    6.4456   30.8785 C   0  0  0  0  0  0  0  0  0  0  0  0
    1.9546    5.2244   30.4738 N   0  3  0  0  0  0  0  0  0  0  0  0
  1  2  1  1  0  0  0
  1  3  1  0  0  0  0
  1 10  1  0  0  0  0
  3  4  1  6  0  0  0
  3  5  1  0  0  0  0
  5  6  1  1  0  0  0
  5  7  1  0  0  0  0
  7  8  1  1  0  0  0
  7  9  1  0  0  0  0
  9 10  1  0  0  0  0
  9 11  1  1  0  0  0
 11 12  1  0  0  0  0
 13 14  1  6  0  0  0
 13 15  1  0  0  0  0
 13 22  1  0  0  0  0
 15 16  1  1  0  0  0
 15 17  1  0  0  0  0
 17 18  1  6  0  0  0
 17 19  1  0  0  0  0
 19  2  1  1  0  0  0
 19 20  1  0  0  0  0
 20 21  1  6  0  0  0
 20 22  1  0  0  0  0
 23 18  1  1  0  0  0
 23 24  1  0  0  0  0
 23 28  1  0  0  0  0
 24 25  1  6  0  0  0
 24 26  1  0  0  0  0
 26 27  1  0  0  0  0
 26 38  1  6  0  0  0
 27 28  1  0  0  0  0
 27 29  1  1  0  0  0
 29 30  1  0  0  0  0
 31 32  1  1  0  0  0
 31 33  1  0  0  0  0
 31 39  1  0  0  0  0
 33 34  1  1  0  0  0
 33 35  1  0  0  0  0
 35 36  1  6  0  0  0
 35 37  1  0  0  0  0
 37 38  1  1  0  0  0
 37 40  1  0  0  0  0
 39 40  1  0  0  0  0
 39 41  1  6  0  0  0
 41 42  1  0  0  0  0
M  CHG  5   4   1  14   1  21   1  36   1  42   1
M  END
>  <CHROM.1>
-98.81473818,15.52571194,85.05713345,-174.56023532,115.10009613,163.55685484
-41.68601453,104.28909855,70.46403606,-36.09862223,129.65501246,-63.70877306
66.90667926,-91.69195117,-0.36079036,-76.78677367,67.07444830,64.78146391
66.21538964,-111.58936064,-173.42150371,-168.96162798,2.54169439,2.51652332
36.88013450,1.06316944,-0.86112317,1.97720018

>  <Name>
1pbr

>  <RI>
0

>  <Rbt.Current_Directory>
/home/itssahil/PROJECTS/Mol_Feturizer/New_Systems/rnas/1pbr

>  <Rbt.Executable>
rbdock ($Id: //depot/dev/client3/rdock/2013.1/src/exe/rbdock.cxx#4 $)

>  <Rbt.Library>
libRbt.so (2013.1, Build901 2013/11/27)

>  <Rbt.Parameter_File>
/export/apps/rDock/src/rDock_2013.1_src/data/scripts/dock_solv.prm

>  <Rbt.Receptor>
prm/blind_docking_80.prm

>  <SCORE>
-2.6196

>  <SCORE.INTER>
-28.3082

>  <SCORE.INTER.CONST>
1

>  <SCORE.INTER.POLAR>
-5.54741

>  <SCORE.INTER.ROT>
9

>  <SCORE.INTER.SOLV>
32.036

>  <SCORE.INTER.VDW>
-20.6594

>  <SCORE.INTER.norm>
-0.674005

>  <SCORE.INTRA>
23.2441

>  <SCORE.INTRA.DIHEDRAL>
23.8722

>  <SCORE.INTRA.DIHEDRAL.0>
29.7866

>  <SCORE.INTRA.POLAR>
0.667875

>  <SCORE.INTRA.POLAR.0>
-0.984091

>  <SCORE.INTRA.REPUL>
-0.274115

>  <SCORE.INTRA.REPUL.0>
0.274115

>  <SCORE.INTRA.SOLV>
1.50341

>  <SCORE.INTRA.SOLV.lig_0>
-152.978

>  <SCORE.INTRA.VDW>
9.65613

>  <SCORE.INTRA.VDW.0>
-6.10719

>  <SCORE.INTRA.norm>
0.553431

>  <SCORE.RESTR>
2.44448

>  <SCORE.RESTR.CAVITY>
2.44448

>  <SCORE.RESTR.norm>
0.058202

>  <SCORE.SYSTEM>
0

>  <SCORE.SYSTEM.CONST>
0

>  <SCORE.SYSTEM.DIHEDRAL>
0

>  <SCORE.SYSTEM.SOLV>
0

>  <SCORE.SYSTEM.norm>
0

>  <SCORE.heavy>
42

>  <SCORE.norm>
-0.0623714

>  <RMSD>
6.953

$$$$
1pbr
 OpenBabel11021811403D
libRbt.so/2013.1/901 2013/11/27
 42 45  0  0  0  0  0  0  0  0999 V2000
    4.4260    1.2694   39.8900 C   0  0  2  0  0  0  0  0  0  0  0  0
    4.7720   -0.1068   39.5908 O   0  0  0  0  0  0  0  0  0  0  0  0
    4.9193    1.6697   41.3304 C   0  0  2  0  0  0  0  0  0  0  0  0
    6.2704    1.1609   41.6826 N   0  3  0  0  0  0  0  0  0  0  0  0
    3.9648    1.1495   42.4217 C   0  0  1  0  0  0  0  0  0  0  0  0
    4.2724    1.7360   43.6845 O   0  0  0  0  0  0  0  0  0  0  0  0
    2.5013    1.4481   42.0629 C   0  0  2  0  0  0  0  0  0  0  0  0
    1.6376    0.9995   43.1026 O   0  0  0  0  0  0  0  0  0  0  0  0
    2.1396    0.8402   40.6895 C   0  0  2  0  0  0  0  0  0  0  0  0
    2.9964    1.4703   39.7138 O   0  0  0  0  0  0  0  0  0  0  0  0
    0.6912    1.0728   40.2625 C   0  0  0  0  0  0  0  0  0  0  0  0
   -0.2180    0.6195   41.2567 O   0  0  0  0  0  0  0  0  0  0  0  0
    7.1223   -0.4057   36.0419 C   0  0  1  0  0  0  0  0  0  0  0  0
    7.6606   -0.6696   34.6949 N   0  3  0  0  0  0  0  0  0  0  0  0
    5.9552    0.6272   36.0194 C   0  0  2  0  0  0  0  0  0  0  0  0
    6.3958    1.8639   35.4636 O   0  0  0  0  0  0  0  0  0  0  0  0
    5.4128    0.8985   37.4532 C   0  0  1  0  0  0  0  0  0  0  0  0
    4.2217    1.7339   37.3506 O   0  0  0  0  0  0  0  0  0  0  0  0
    5.0563   -0.4244   38.2070 C   0  0  1  0  0  0  0  0  0  0  0  0
    6.2148   -1.4720   38.1749 C   0  0  1  0  0  0  0  0  0  0  0  0
    5.8131   -2.7475   38.8082 N   0  3  0  0  0  0  0  0  0  0  0  0
    6.6740   -1.7348   36.7173 C   0  0  0  0  0  0  0  0  0  0  0  0
    3.0336    1.2316   36.6591 C   0  0  1  0  0  0  0  0  0  0  0  0
    1.9716    2.3467   36.6300 C   0  0  2  0  0  0  0  0  0  0  0  0
    0.6596    1.8015   36.5220 O   0  0  0  0  0  0  0  0  0  0  0  0
    2.4111    3.0645   35.3449 C   0  0  1  0  0  0  0  0  0  0  0  0
    2.7065    1.9039   34.4092 C   0  0  2  0  0  0  0  0  0  0  0  0
    3.3327    0.9709   35.2764 O   0  0  0  0  0  0  0  0  0  0  0  0
    3.6275    2.2352   33.2278 C   0  0  0  0  0  0  0  0  0  0  0  0
    3.0814    3.3040   32.4690 O   0  0  0  0  0  0  0  0  0  0  0  0
   -0.6655    7.2380   36.6453 C   0  0  1  0  0  0  0  0  0  0  0  0
   -1.9456    6.8993   36.1148 O   0  0  0  0  0  0  0  0  0  0  0  0
   -0.1747    6.0946   37.5767 C   0  0  2  0  0  0  0  0  0  0  0  0
    0.8957    6.5900   38.3776 O   0  0  0  0  0  0  0  0  0  0  0  0
    0.3015    4.7951   36.8485 C   0  0  1  0  0  0  0  0  0  0  0  0
   -0.8524    3.9157   36.5586 N   0  3  0  0  0  0  0  0  0  0  0  0
    1.1440    5.1159   35.5860 C   0  0  1  0  0  0  0  0  0  0  0  0
    1.4291    3.9619   34.7576 O   0  0  0  0  0  0  0  0  0  0  0  0
    0.3526    7.4512   35.4969 C   0  0  1  0  0  0  0  0  0  0  0  0
    0.5084    6.1826   34.8039 O   0  0  0  0  0  0  0  0  0  0  0  0
   -0.0409    8.5707   34.5152 C   0  0  0  0  0  0  0  0  0  0  0  0
    0.8410    8.6284   33.3331 N   0  3  0  0  0  0  0  0  0  0  0  0
  1  2  1  1  0  0  0
  1  3  1  0  0  0  0
  1 10  1  0  0  0  0
  3  4  1  1  0  0  0
  3  5  1  0  0  0  0
  5  6  1  1  0  0  0
  5  7  1  0  0  0  0
  7  8  1  1  0  0  0
  7  9  1  0  0  0  0
  9 10  1  0  0  0  0
  9 11  1  6  0  0  0
 11 12  1  0  0  0  0
 13 14  1  6  0  0  0
 13 15  1  0  0  0  0
 13 22  1  0  0  0  0
 15 16  1  1  0  0  0
 15 17  1  0  0  0  0
 17 18  1  6  0  0  0
 17 19  1  0  0  0  0
 19  2  1  1  0  0  0
 19 20  1  0  0  0  0
 20 21  1  6  0  0  0
 20 22  1  0  0  0  0
 23 18  1  1  0  0  0
 23 24  1  0  0  0  0
 23 28  1  0  0  0  0
 24 25  1  6  0  0  0
 24 26  1  0  0  0  0
 26 27  1  0  0  0  0
 26 38  1  6  0  0  0
 27 28  1  0  0  0  0
 27 29  1  6  0  0  0
 29 30  1  0  0  0  0
 31 32  1  6  0  0  0
 31 33  1  0  0  0  0
 31 39  1  0  0  0  0
 33 34  1  6  0  0  0
 33 35  1  0  0  0  0
 35 36  1  6  0  0  0
 35 37  1  0  0  0  0
 37 38  1  6  0  0  0
 37 40  1  0  0  0  0
 39 40  1  0  0  0  0
 39 41  1  6  0  0  0
 41 42  1  0  0  0  0
M  CHG  5   4   1  14   1  21   1  36   1  42   1
M  END
>  <CHROM.1>
-148.12897995,20.10438148,95.01045159,-164.31444437,-54.44858501,-54.35166056
-57.16344626,141.66698421,-51.54830743,63.07392974,-176.58982733,76.20431940
66.10104111,66.31812355,-56.68924828,-42.97952655,71.77162320,-56.26394788
-163.44698678,-72.68527719,-171.99839082,-80.47616530,2.87280085,2.46371501
37.52170347,0.74148183,-0.76660372,1.90388534

>  <Name>
1pbr

>  <RI>
0

>  <Rbt.Current_Directory>
/home/itssahil/PROJECTS/Mol_Feturizer/New_Systems/rnas/1pbr

>  <Rbt.Executable>
rbdock ($Id: //depot/dev/client3/rdock/2013.1/src/exe/rbdock.cxx#4 $)

>  <Rbt.Library>
libRbt.so (2013.1, Build901 2013/11/27)

>  <Rbt.Parameter_File>
/export/apps/rDock/src/rDock_2013.1_src/data/scripts/dock_solv.prm

>  <Rbt.Receptor>
prm/blind_docking_80.prm

>  <SCORE>
-35.0532

>  <SCORE.INTER>
-38.2777

>  <SCORE.INTER.CONST>
1

>  <SCORE.INTER.POLAR>
-7.76397

>  <SCORE.INTER.ROT>
9

>  <SCORE.INTER.SOLV>
37.0748

>  <SCORE.INTER.VDW>
-21.5968

>  <SCORE.INTER.norm>
-0.911374

>  <SCORE.INTRA>
0.11336

>  <SCORE.INTRA.DIHEDRAL>
-7.50372

>  <SCORE.INTRA.DIHEDRAL.0>
29.7866

>  <SCORE.INTRA.POLAR>
-0.256903

>  <SCORE.INTRA.POLAR.0>
-0.984091

>  <SCORE.INTRA.REPUL>
-0.274115

>  <SCORE.INTRA.REPUL.0>
0.274115

>  <SCORE.INTRA.SOLV>
0.336308

>  <SCORE.INTRA.SOLV.lig_0>
-152.978

>  <SCORE.INTRA.VDW>
5.94111

>  <SCORE.INTRA.VDW.0>
-6.10719

>  <SCORE.INTRA.norm>
0.00269904

>  <SCORE.RESTR>
3.11121

>  <SCORE.RESTR.CAVITY>
3.11121

>  <SCORE.RESTR.norm>
0.0740764

>  <SCORE.SYSTEM>
0

>  <SCORE.SYSTEM.CONST>
0

>  <SCORE.SYSTEM.DIHEDRAL>
0

>  <SCORE.SYSTEM.SOLV>
0

>  <SCORE.SYSTEM.norm>
0

>  <SCORE.heavy>
42

>  <SCORE.norm>
-0.834599

>  <RMSD>
7.008

$$$$
1pbr
 OpenBabel11021811403D
libRbt.so/2013.1/901 2013/11/27
 42 45  0  0  0  0  0  0  0  0999 V2000
    2.6434   -0.7455   40.7694 C   0  0  2  0  0  0  0  0  0  0  0  0
    1.9621    0.0315   39.7519 O   0  0  0  0  0  0  0  0  0  0  0  0
    2.0123   -0.4851   42.1880 C   0  0  2  0  0  0  0  0  0  0  0  0
    0.5284   -0.4068   42.1973 N   0  3  0  0  0  0  0  0  0  0  0  0
    2.5175    0.8352   42.7998 C   0  0  1  0  0  0  0  0  0  0  0  0
    2.1524    0.9279   44.1751 O   0  0  0  0  0  0  0  0  0  0  0  0
    4.0431    0.9567   42.6672 C   0  0  2  0  0  0  0  0  0  0  0  0
    4.4963    2.1615   43.2765 O   0  0  0  0  0  0  0  0  0  0  0  0
    4.4747    0.8428   41.1883 C   0  0  2  0  0  0  0  0  0  0  0  0
    4.0703   -0.4660   40.7335 O   0  0  0  0  0  0  0  0  0  0  0  0
    5.9799    0.9741   40.9622 C   0  0  0  0  0  0  0  0  0  0  0  0
    6.7140    0.3844   42.0270 O   0  0  0  0  0  0  0  0  0  0  0  0
    5.3228    0.4867   37.1623 C   0  0  1  0  0  0  0  0  0  0  0  0
    6.2482    0.6308   36.0234 N   0  3  0  0  0  0  0  0  0  0  0  0
    4.4062    1.7349   37.3398 C   0  0  2  0  0  0  0  0  0  0  0  0
    5.1936    2.9049   37.5484 O   0  0  0  0  0  0  0  0  0  0  0  0
    3.4481    1.5643   38.5549 C   0  0  1  0  0  0  0  0  0  0  0  0
    2.5072    2.6786   38.5665 O   0  0  0  0  0  0  0  0  0  0  0  0
    2.6569    0.2168   38.4951 C   0  0  1  0  0  0  0  0  0  0  0  0
    3.5823   -1.0202   38.2622 C   0  0  1  0  0  0  0  0  0  0  0  0
    2.7982   -2.2658   38.1109 N   0  3  0  0  0  0  0  0  0  0  0  0
    4.4729   -0.8087   37.0106 C   0  0  0  0  0  0  0  0  0  0  0  0
    1.0767    2.4299   38.3829 C   0  0  1  0  0  0  0  0  0  0  0  0
    0.4248    3.7013   37.8079 C   0  0  2  0  0  0  0  0  0  0  0  0
   -0.9606    3.7593   38.1356 O   0  0  0  0  0  0  0  0  0  0  0  0
    0.6585    3.4368   36.3128 C   0  0  1  0  0  0  0  0  0  0  0  0
    0.3170    1.9613   36.1865 C   0  0  2  0  0  0  0  0  0  0  0  0
    0.8696    1.4220   37.3775 O   0  0  0  0  0  0  0  0  0  0  0  0
    0.9073    1.2568   34.9581 C   0  0  0  0  0  0  0  0  0  0  0  0
    1.2465   -0.0837   35.2813 O   0  0  0  0  0  0  0  0  0  0  0  0
    0.7725    7.8367   33.1991 C   0  0  1  0  0  0  0  0  0  0  0  0
   -0.4273    7.8299   32.4275 O   0  0  0  0  0  0  0  0  0  0  0  0
    0.4174    8.0083   34.7025 C   0  0  2  0  0  0  0  0  0  0  0  0
    1.5982    8.3849   35.4072 O   0  0  0  0  0  0  0  0  0  0  0  0
   -0.2002    6.7484   35.3930 C   0  0  1  0  0  0  0  0  0  0  0  0
   -1.6615    6.7018   35.1658 N   0  3  0  0  0  0  0  0  0  0  0  0
    0.5166    5.4424   34.9603 C   0  0  1  0  0  0  0  0  0  0  0  0
   -0.1468    4.2315   35.3993 O   0  0  0  0  0  0  0  0  0  0  0  0
    1.5512    6.5132   32.9929 C   0  0  1  0  0  0  0  0  0  0  0  0
    0.7276    5.4315   33.5081 O   0  0  0  0  0  0  0  0  0  0  0  0
    1.9553    6.2495   31.5303 C   0  0  0  0  0  0  0  0  0  0  0  0
    2.7642    5.0247   31.3743 N   0  3  0  0  0  0  0  0  0  0  0  0
  1  2  1  6  0  0  0
  1  3  1  0  0  0  0
  1 10  1  0  0  0  0
  3  4  1  6  0  0  0
  3  5  1  0  0  0  0
  5  6  1  1  0  0  0
  5  7  1  0  0  0  0
  7  8  1  6  0  0  0
  7  9  1  0  0  0  0
  9 10  1  0  0  0  0
  9 11  1  1  0  0  0
 11 12  1  0  0  0  0
 13 14  1  6  0  0  0
 13 15  1  0  0  0  0
 13 22  1  0  0  0  0
 15 16  1  1  0  0  0
 15 17  1  0  0  0  0
 17 18  1  6  0  0  0
 17 19  1  0  0  0  0
 19  2  1  1  0  0  0
 19 20  1  0  0  0  0
 20 21  1  6  0  0  0
 20 22  1  0  0  0  0
 23 18  1  6  0  0  0
 23 24  1  0  0  0  0
 23 28  1  0  0  0  0
 24 25  1  6  0  0  0
 24 26  1  0  0  0  0
 26 27  1  0  0  0  0
 26 38  1  6  0  0  0
 27 28  1  0  0  0  0
 27 29  1  6  0  0  0
 29 30  1  0  0  0  0
 31 32  1  6  0  0  0
 31 33  1  0  0  0  0
 31 39  1  0  0  0  0
 33 34  1  1  0  0  0
 33 35  1  0  0  0  0
 35 36  1  6  0  0  0
 35 37  1  0  0  0  0
 37 38  1  6  0  0  0
 37 40  1  0  0  0  0
 39 40  1  0  0  0  0
 39 41  1  6  0  0  0
 41 42  1  0  0  0  0
M  CHG  5   4   1  14   1  21   1  36   1  42   1
M  END
>  <CHROM.1>
161.93733417,-93.56865692,50.59737108,64.42495820,-44.72011886,35.60049593
-64.65626139,174.66035648,-47.84389907,116.21941014,-154.52161356,66.14217603
-55.03938174,93.47808292,145.19063219,-176.05037984,171.88073901,-68.24202932
-63.40781958,-116.94432437,176.57513057,92.86865043,2.25198991,2.55570162
37.62478622,1.12503731,-0.79554404,1.93387759

>  <Name>
1pbr

>  <RI>
0

>  <Rbt.Current_Directory>
/home/itssahil/PROJECTS/Mol_Feturizer/New_Systems/rnas/1pbr

>  <Rbt.Executable>
rbdock ($Id: //depot/dev/client3/rdock/2013.1/src/exe/rbdock.cxx#4 $)

>  <Rbt.Library>
libRbt.so (2013.1, Build901 2013/11/27)

>  <Rbt.Parameter_File>
/export/apps/rDock/src/rDock_2013.1_src/data/scripts/dock_solv.prm

>  <Rbt.Receptor>
prm/blind_docking_80.prm

>  <SCORE>
-17.2882

>  <SCORE.INTER>
-36.3731

>  <SCORE.INTER.CONST>
1

>  <SCORE.INTER.POLAR>
-4.82443

>  <SCORE.INTER.ROT>
9

>  <SCORE.INTER.SOLV>
28.1909

>  <SCORE.INTER.VDW>
-27.1643

>  <SCORE.INTER.norm>
-0.866027

>  <SCORE.INTRA>
14.1776

>  <SCORE.INTRA.DIHEDRAL>
8.65214

>  <SCORE.INTRA.DIHEDRAL.0>
29.7866

>  <SCORE.INTRA.POLAR>
0.888615

>  <SCORE.INTRA.POLAR.0>
-0.984091

>  <SCORE.INTRA.REPUL>
-0.274115

>  <SCORE.INTRA.REPUL.0>
0.274115

>  <SCORE.INTRA.SOLV>
-2.47585

>  <SCORE.INTRA.SOLV.lig_0>
-152.978

>  <SCORE.INTRA.VDW>
9.4387

>  <SCORE.INTRA.VDW.0>
-6.10719

>  <SCORE.INTRA.norm>
0.337561

>  <SCORE.RESTR>
4.90741

>  <SCORE.RESTR.CAVITY>
4.90741

>  <SCORE.RESTR.norm>
0.116843

>  <SCORE.SYSTEM>
0

>  <SCORE.SYSTEM.CONST>
0

>  <SCORE.SYSTEM.DIHEDRAL>
0

>  <SCORE.SYSTEM.SOLV>
0

>  <SCORE.SYSTEM.norm>
0

>  <SCORE.heavy>
42

>  <SCORE.norm>
-0.411623

>  <RMSD>
7.023

$$$$
1pbr
 OpenBabel11021811403D
libRbt.so/2013.1/901 2013/11/27
 42 45  0  0  0  0  0  0  0  0999 V2000
    3.1975   -1.3924   39.3405 C   0  0  2  0  0  0  0  0  0  0  0  0
    3.7011   -2.0832   40.5119 O   0  0  0  0  0  0  0  0  0  0  0  0
    4.0916   -0.1419   39.0011 C   0  0  2  0  0  0  0  0  0  0  0  0
    5.5527   -0.3720   39.1441 N   0  3  0  0  0  0  0  0  0  0  0  0
    3.7539    1.0589   39.9049 C   0  0  1  0  0  0  0  0  0  0  0  0
    4.3732    2.2479   39.4191 O   0  0  0  0  0  0  0  0  0  0  0  0
    2.2353    1.2734   39.9928 C   0  0  2  0  0  0  0  0  0  0  0  0
    1.9443    2.4128   40.7962 O   0  0  0  0  0  0  0  0  0  0  0  0
    1.5306   -0.0041   40.5004 C   0  0  2  0  0  0  0  0  0  0  0  0
    1.7992   -1.0425   39.5346 O   0  0  0  0  0  0  0  0  0  0  0  0
    0.0148    0.1283   40.6382 C   0  0  0  0  0  0  0  0  0  0  0  0
   -0.5275   -0.9371   41.4071 O   0  0  0  0  0  0  0  0  0  0  0  0
    3.2099   -6.0015   38.8953 C   0  0  1  0  0  0  0  0  0  0  0  0
    3.0809   -7.4513   38.6600 N   0  3  0  0  0  0  0  0  0  0  0  0
    2.0071   -5.4250   39.7020 C   0  0  2  0  0  0  0  0  0  0  0  0
    0.7843   -5.6584   39.0072 O   0  0  0  0  0  0  0  0  0  0  0  0
    2.1599   -3.8921   39.9264 C   0  0  1  0  0  0  0  0  0  0  0  0
    1.1016   -3.4449   40.8249 O   0  0  0  0  0  0  0  0  0  0  0  0
    3.5510   -3.5231   40.5378 C   0  0  1  0  0  0  0  0  0  0  0  0
    4.7453   -4.1524   39.7515 C   0  0  1  0  0  0  0  0  0  0  0  0
    6.0400   -3.8689   40.4095 N   0  3  0  0  0  0  0  0  0  0  0  0
    4.5578   -5.6848   39.6068 C   0  0  0  0  0  0  0  0  0  0  0  0
    0.8011   -4.2073   42.0374 C   0  0  1  0  0  0  0  0  0  0  0  0
    2.0200   -4.1406   42.9766 C   0  0  2  0  0  0  0  0  0  0  0  0
    2.0546   -5.2650   43.8511 O   0  0  0  0  0  0  0  0  0  0  0  0
    1.6827   -2.8377   43.7172 C   0  0  1  0  0  0  0  0  0  0  0  0
    0.1931   -2.9884   43.9780 C   0  0  2  0  0  0  0  0  0  0  0  0
   -0.2649   -3.5794   42.7715 O   0  0  0  0  0  0  0  0  0  0  0  0
   -0.5586   -1.6788   44.2492 C   0  0  0  0  0  0  0  0  0  0  0  0
   -1.9019   -1.7862   43.8015 O   0  0  0  0  0  0  0  0  0  0  0  0
    2.1669    1.1123   47.1358 C   0  0  1  0  0  0  0  0  0  0  0  0
    1.6733    0.5307   48.3411 O   0  0  0  0  0  0  0  0  0  0  0  0
    3.5916    0.5636   46.8446 C   0  0  2  0  0  0  0  0  0  0  0  0
    4.2133    1.4067   45.8775 O   0  0  0  0  0  0  0  0  0  0  0  0
    3.6493   -0.9139   46.3351 C   0  0  1  0  0  0  0  0  0  0  0  0
    3.6401   -1.8529   47.4784 N   0  3  0  0  0  0  0  0  0  0  0  0
    2.5303   -1.2135   45.3031 C   0  0  1  0  0  0  0  0  0  0  0  0
    2.4030   -2.6155   44.9607 O   0  0  0  0  0  0  0  0  0  0  0  0
    1.2247    0.7768   45.9524 C   0  0  1  0  0  0  0  0  0  0  0  0
    1.2495   -0.6645   45.7632 O   0  0  0  0  0  0  0  0  0  0  0  0
   -0.2176    1.2830   46.1415 C   0  0  0  0  0  0  0  0  0  0  0  0
   -0.8733    0.7049   47.3308 N   0  3  0  0  0  0  0  0  0  0  0  0
  1  2  1  1  0  0  0
  1  3  1  0  0  0  0
  1 10  1  0  0  0  0
  3  4  1  1  0  0  0
  3  5  1  0  0  0  0
  5  6  1  6  0  0  0
  5  7  1  0  0  0  0
  7  8  1  1  0  0  0
  7  9  1  0  0  0  0
  9 10  1  0  0  0  0
  9 11  1  6  0  0  0
 11 12  1  0  0  0  0
 13 14  1  1  0  0  0
 13 15  1  0  0  0  0
 13 22  1  0  0  0  0
 15 16  1  6  0  0  0
 15 17  1  0  0  0  0
 17 18  1  1  0  0  0
 17 19  1  0  0  0  0
 19  2  1  6  0  0  0
 19 20  1  0  0  0  0
 20 21  1  1  0  0  0
 20 22  1  0  0  0  0
 23 18  1  6  0  0  0
 23 24  1  0  0  0  0
 23 28  1  0  0  0  0
 24 25  1  1  0  0  0
 24 26  1  0  0  0  0
 26 27  1  0  0  0  0
 26 38  1  1  0  0  0
 27 28  1  0  0  0  0
 27 29  1  6  0  0  0
 29 30  1  0  0  0  0
 31 32  1  1  0  0  0
 31 33  1  0  0  0  0
 31 39  1  0  0  0  0
 33 34  1  6  0  0  0
 33 35  1  0  0  0  0
 35 36  1  1  0  0  0
 35 37  1  0  0  0  0
 37 38  1  1  0  0  0
 37 40  1  0  0  0  0
 39 40  1  0  0  0  0
 39 41  1  1  0  0  0
 41 42  1  0  0  0  0
M  CHG  5   4   1  14   1  21   1  36   1  42   1
M  END
>  <CHROM.1>
-146.09971488,-38.97448378,-66.81943043,-68.39068331,86.09771311,-165.53097486
-54.09971087,-33.52072049,175.07832695,45.69705418,65.11550122,68.34263563
178.70302038,154.03712836,149.79328771,-67.17549396,61.94395101,-59.84233968
-45.09005336,-161.31675613,-60.39828675,-129.97454700,2.18608686,-1.78498666
42.46387076,-1.03899960,1.15675967,0.53360311

>  <Name>
1pbr

>  <RI>
0

>  <Rbt.Current_Directory>
/home/itssahil/PROJECTS/Mol_Feturizer/New_Systems/rnas/1pbr

>  <Rbt.Executable>
rbdock ($Id: //depot/dev/client3/rdock/2013.1/src/exe/rbdock.cxx#4 $)

>  <Rbt.Library>
libRbt.so (2013.1, Build901 2013/11/27)

>  <Rbt.Parameter_File>
/export/apps/rDock/src/rDock_2013.1_src/data/scripts/dock_solv.prm

>  <Rbt.Receptor>
prm/pocket_docking_6.prm

>  <SCORE>
-52.4347

>  <SCORE.INTER>
-49.46

>  <SCORE.INTER.CONST>
1

>  <SCORE.INTER.POLAR>
-7.37194

>  <SCORE.INTER.ROT>
9

>  <SCORE.INTER.SOLV>
33.7062

>  <SCORE.INTER.VDW>
-29.2356

>  <SCORE.INTER.norm>
-1.17762

>  <SCORE.INTRA>
-2.97473

>  <SCORE.INTRA.DIHEDRAL>
-4.48552

>  <SCORE.INTRA.DIHEDRAL.0>
29.7866

>  <SCORE.INTRA.POLAR>
-1.03812

>  <SCORE.INTRA.POLAR.0>
-0.984091

>  <SCORE.INTRA.REPUL>
-0.274115

>  <SCORE.INTRA.REPUL.0>
0.274115

>  <SCORE.INTRA.SOLV>
3.38865

>  <SCORE.INTRA.SOLV.lig_0>
-152.978

>  <SCORE.INTRA.VDW>
2.47387

>  <SCORE.INTRA.VDW.0>
-6.10719

>  <SCORE.INTRA.norm>
-0.0708269

>  <SCORE.RESTR>
0

>  <SCORE.RESTR.CAVITY>
0

>  <SCORE.RESTR.norm>
0

>  <SCORE.SYSTEM>
0

>  <SCORE.SYSTEM.CONST>
0

>  <SCORE.SYSTEM.DIHEDRAL>
0

>  <SCORE.SYSTEM.SOLV>
0

>  <SCORE.SYSTEM.norm>
0

>  <SCORE.heavy>
42

>  <SCORE.norm>
-1.24845

>  <RMSD>
7.080

$$$$
1pbr
 OpenBabel11021811403D
libRbt.so/2013.1/901 2013/11/27
 42 45  0  0  0  0  0  0  0  0999 V2000
    4.6585   -0.7969   39.0949 C   0  0  2  0  0  0  0  0  0  0  0  0
    4.5041    0.6424   39.1843 O   0  0  0  0  0  0  0  0  0  0  0  0
    6.1764   -1.1886   38.9509 C   0  0  2  0  0  0  0  0  0  0  0  0
    7.0995   -0.4049   39.8124 N   0  3  0  0  0  0  0  0  0  0  0  0
    6.6751   -1.0042   37.5053 C   0  0  1  0  0  0  0  0  0  0  0  0
    7.9564   -1.6053   37.3314 O   0  0  0  0  0  0  0  0  0  0  0  0
    5.6858   -1.6106   36.4987 C   0  0  2  0  0  0  0  0  0  0  0  0
    6.1840   -1.4696   35.1720 O   0  0  0  0  0  0  0  0  0  0  0  0
    4.2807   -0.9924   36.6720 C   0  0  2  0  0  0  0  0  0  0  0  0
    3.8426   -1.3161   38.0086 O   0  0  0  0  0  0  0  0  0  0  0  0
    3.2358   -1.5255   35.6933 C   0  0  0  0  0  0  0  0  0  0  0  0
    3.3411   -0.8857   34.4283 O   0  0  0  0  0  0  0  0  0  0  0  0
    1.5532    0.4140   42.2581 C   0  0  1  0  0  0  0  0  0  0  0  0
    0.5920    0.6686   43.3467 N   0  3  0  0  0  0  0  0  0  0  0  0
    1.1100    1.0677   40.9142 C   0  0  2  0  0  0  0  0  0  0  0  0
   -0.1631    0.5668   40.5132 O   0  0  0  0  0  0  0  0  0  0  0  0
    2.1334    0.7744   39.7784 C   0  0  1  0  0  0  0  0  0  0  0  0
    1.7563    1.5471   38.6004 O   0  0  0  0  0  0  0  0  0  0  0  0
    3.5952    1.1418   40.1948 C   0  0  1  0  0  0  0  0  0  0  0  0
    4.0075    0.5249   41.5697 C   0  0  1  0  0  0  0  0  0  0  0  0
    5.3566    0.9702   41.9835 N   0  3  0  0  0  0  0  0  0  0  0  0
    2.9761    0.8955   42.6666 C   0  0  0  0  0  0  0  0  0  0  0  0
    2.1731    1.1023   37.2699 C   0  0  1  0  0  0  0  0  0  0  0  0
    1.5353    2.0288   36.2178 C   0  0  2  0  0  0  0  0  0  0  0  0
    1.4012    1.3645   34.9645 O   0  0  0  0  0  0  0  0  0  0  0  0
    2.6082    3.1276   36.1821 C   0  0  1  0  0  0  0  0  0  0  0  0
    3.8976    2.3233   36.1944 C   0  0  2  0  0  0  0  0  0  0  0  0
    3.5914    1.2787   37.1053 O   0  0  0  0  0  0  0  0  0  0  0  0
    5.1417    3.0901   36.6613 C   0  0  0  0  0  0  0  0  0  0  0  0
    5.0019    3.4619   38.0246 O   0  0  0  0  0  0  0  0  0  0  0  0
   -0.2401    7.2472   35.6250 C   0  0  1  0  0  0  0  0  0  0  0  0
    0.6901    8.1103   36.2766 O   0  0  0  0  0  0  0  0  0  0  0  0
    0.2296    6.9910   34.1657 C   0  0  2  0  0  0  0  0  0  0  0  0
   -0.8641    6.4549   33.4248 O   0  0  0  0  0  0  0  0  0  0  0  0
    1.4567    6.0332   34.0153 C   0  0  1  0  0  0  0  0  0  0  0  0
    2.7200    6.7868   34.1737 N   0  3  0  0  0  0  0  0  0  0  0  0
    1.3600    4.8156   34.9719 C   0  0  1  0  0  0  0  0  0  0  0  0
    2.5648    4.0129   35.0293 O   0  0  0  0  0  0  0  0  0  0  0  0
   -0.3469    5.9010   36.3846 C   0  0  1  0  0  0  0  0  0  0  0  0
    0.9508    5.2494   36.3126 O   0  0  0  0  0  0  0  0  0  0  0  0
   -0.8109    6.0454   37.8461 C   0  0  0  0  0  0  0  0  0  0  0  0
   -0.3336    4.9456   38.7070 N   0  3  0  0  0  0  0  0  0  0  0  0
  1  2  1  6  0  0  0
  1  3  1  0  0  0  0
  1 10  1  0  0  0  0
  3  4  1  1  0  0  0
  3  5  1  0  0  0  0
  5  6  1  1  0  0  0
  5  7  1  0  0  0  0
  7  8  1  6  0  0  0
  7  9  1  0  0  0  0
  9 10  1  0  0  0  0
  9 11  1  6  0  0  0
 11 12  1  0  0  0  0
 13 14  1  1  0  0  0
 13 15  1  0  0  0  0
 13 22  1  0  0  0  0
 15 16  1  6  0  0  0
 15 17  1  0  0  0  0
 17 18  1  6  0  0  0
 17 19  1  0  0  0  0
 19  2  1  6  0  0  0
 19 20  1  0  0  0  0
 20 21  1  1  0  0  0
 20 22  1  0  0  0  0
 23 18  1  1  0  0  0
 23 24  1  0  0  0  0
 23 28  1  0  0  0  0
 24 25  1  6  0  0  0
 24 26  1  0  0  0  0
 26 27  1  0  0  0  0
 26 38  1  6  0  0  0
 27 28  1  0  0  0  0
 27 29  1  1  0  0  0
 29 30  1  0  0  0  0
 31 32  1  1  0  0  0
 31 33  1  0  0  0  0
 31 39  1  0  0  0  0
 33 34  1  6  0  0  0
 33 35  1  0  0  0  0
 35 36  1  1  0  0  0
 35 37  1  0  0  0  0
 37 38  1  1  0  0  0
 37 40  1  0  0  0  0
 39 40  1  0  0  0  0
 39 41  1  1  0  0  0
 41 42  1  0  0  0  0
M  CHG  5   4   1  14   1  21   1  36   1  42   1
M  END
>  <CHROM.1>
-135.45735045,-69.59497002,-150.83749568,-55.06879106,80.21153972,-80.80233932
-70.82672587,8.07101914,-61.92017396,-155.70868506,175.05247400,28.48704114
68.41560515,64.70725162,64.90136248,148.26770351,-175.76498759,63.66645165
60.27724839,163.36478178,-153.48373200,-62.77268923,2.85683677,2.07632270
37.61212945,-0.77528792,0.80266790,-1.14541186

>  <Name>
1pbr

>  <RI>
0

>  <Rbt.Current_Directory>
/home/itssahil/PROJECTS/Mol_Feturizer/New_Systems/rnas/1pbr

>  <Rbt.Executable>
rbdock ($Id: //depot/dev/client3/rdock/2013.1/src/exe/rbdock.cxx#4 $)

>  <Rbt.Library>
libRbt.so (2013.1, Build901 2013/11/27)

>  <Rbt.Parameter_File>
/export/apps/rDock/src/rDock_2013.1_src/data/scripts/dock_solv.prm

>  <Rbt.Receptor>
prm/blind_docking_60.prm

>  <SCORE>
-25.1148

>  <SCORE.INTER>
-35.0333

>  <SCORE.INTER.CONST>
1

>  <SCORE.INTER.POLAR>
-5.74991

>  <SCORE.INTER.ROT>
9

>  <SCORE.INTER.SOLV>
42.0027

>  <SCORE.INTER.VDW>
-27.7901

>  <SCORE.INTER.norm>
-0.834127

>  <SCORE.INTRA>
9.29166

>  <SCORE.INTRA.DIHEDRAL>
-0.648704

>  <SCORE.INTRA.DIHEDRAL.0>
29.7866

>  <SCORE.INTRA.POLAR>
0.0598965

>  <SCORE.INTRA.POLAR.0>
-0.984091

>  <SCORE.INTRA.REPUL>
-0.210944

>  <SCORE.INTRA.REPUL.0>
0.274115

>  <SCORE.INTRA.SOLV>
6.23381

>  <SCORE.INTRA.SOLV.lig_0>
-152.978

>  <SCORE.INTRA.VDW>
7.35018

>  <SCORE.INTRA.VDW.0>
-6.10719

>  <SCORE.INTRA.norm>
0.22123

>  <SCORE.RESTR>
0.626881

>  <SCORE.RESTR.CAVITY>
0.626881

>  <SCORE.RESTR.norm>
0.0149257

>  <SCORE.SYSTEM>
0

>  <SCORE.SYSTEM.CONST>
0

>  <SCORE.SYSTEM.DIHEDRAL>
0

>  <SCORE.SYSTEM.SOLV>
0

>  <SCORE.SYSTEM.norm>
0

>  <SCORE.heavy>
42

>  <SCORE.norm>
-0.597971

>  <RMSD>
7.107

$$$$
1pbr
 OpenBabel11021811403D
libRbt.so/2013.1/901 2013/11/27
 42 45  0  0  0  0  0  0  0  0999 V2000
    5.7269   -1.0946   39.1384 C   0  0  2  0  0  0  0  0  0  0  0  0
    6.6584   -1.8546   39.9495 O   0  0  0  0  0  0  0  0  0  0  0  0
    4.6047   -2.0296   38.5512 C   0  0  2  0  0  0  0  0  0  0  0  0
    4.0866   -3.0444   39.5051 N   0  3  0  0  0  0  0  0  0  0  0  0
    5.1033   -2.8099   37.3202 C   0  0  1  0  0  0  0  0  0  0  0  0
    4.0164   -3.4414   36.6471 O   0  0  0  0  0  0  0  0  0  0  0  0
    5.8413   -1.8840   36.3416 C   0  0  2  0  0  0  0  0  0  0  0  0
    6.2562   -2.6133   35.1909 O   0  0  0  0  0  0  0  0  0  0  0  0
    7.0166   -1.1695   37.0449 C   0  0  2  0  0  0  0  0  0  0  0  0
    6.4478   -0.3701   38.1036 O   0  0  0  0  0  0  0  0  0  0  0  0
    7.8208   -0.2414   36.1360 C   0  0  0  0  0  0  0  0  0  0  0  0
    8.0611   -0.8415   34.8701 O   0  0  0  0  0  0  0  0  0  0  0  0
    7.3460   -2.1775   44.1484 C   0  0  1  0  0  0  0  0  0  0  0  0
    7.6195   -1.9519   45.5795 N   0  3  0  0  0  0  0  0  0  0  0  0
    5.9690   -1.5926   43.7110 C   0  0  2  0  0  0  0  0  0  0  0  0
    4.9145   -2.1840   44.4666 O   0  0  0  0  0  0  0  0  0  0  0  0
    5.6977   -1.8543   42.2005 C   0  0  1  0  0  0  0  0  0  0  0  0
    4.4852   -1.1416   41.8145 O   0  0  0  0  0  0  0  0  0  0  0  0
    6.8861   -1.3838   41.2997 C   0  0  1  0  0  0  0  0  0  0  0  0
    8.2671   -1.9330   41.7815 C   0  0  1  0  0  0  0  0  0  0  0  0
    9.3808   -1.3919   40.9714 N   0  3  0  0  0  0  0  0  0  0  0  0
    8.4977   -1.5958   43.2774 C   0  0  0  0  0  0  0  0  0  0  0  0
    4.3206    0.2681   42.1714 C   0  0  1  0  0  0  0  0  0  0  0  0
    4.8379    1.1350   41.0082 C   0  0  2  0  0  0  0  0  0  0  0  0
    5.2485    2.4189   41.4698 O   0  0  0  0  0  0  0  0  0  0  0  0
    3.5537    1.2020   40.1679 C   0  0  1  0  0  0  0  0  0  0  0  0
    2.4858    1.4332   41.2242 C   0  0  2  0  0  0  0  0  0  0  0  0
    2.9243    0.5958   42.2830 O   0  0  0  0  0  0  0  0  0  0  0  0
    1.0589    1.0583   40.8037 C   0  0  0  0  0  0  0  0  0  0  0  0
    1.0273   -0.2780   40.3243 O   0  0  0  0  0  0  0  0  0  0  0  0
    4.2053    1.5703   34.9465 C   0  0  1  0  0  0  0  0  0  0  0  0
    3.0059    2.2086   34.5119 O   0  0  0  0  0  0  0  0  0  0  0  0
    5.1211    2.6145   35.6442 C   0  0  2  0  0  0  0  0  0  0  0  0
    6.4374    2.0745   35.7349 O   0  0  0  0  0  0  0  0  0  0  0  0
    4.6614    3.0618   37.0705 C   0  0  1  0  0  0  0  0  0  0  0  0
    3.6719    4.1573   36.9721 N   0  3  0  0  0  0  0  0  0  0  0  0
    4.1499    1.8649   37.9146 C   0  0  1  0  0  0  0  0  0  0  0  0
    3.5151    2.2487   39.1592 O   0  0  0  0  0  0  0  0  0  0  0  0
    3.8755    0.4215   35.9325 C   0  0  1  0  0  0  0  0  0  0  0  0
    3.2647    1.0135   37.1116 O   0  0  0  0  0  0  0  0  0  0  0  0
    2.9718   -0.6728   35.3342 C   0  0  0  0  0  0  0  0  0  0  0  0
    3.6770   -1.5214   34.3538 N   0  3  0  0  0  0  0  0  0  0  0  0
  1  2  1  6  0  0  0
  1  3  1  0  0  0  0
  1 10  1  0  0  0  0
  3  4  1  1  0  0  0
  3  5  1  0  0  0  0
  5  6  1  6  0  0  0
  5  7  1  0  0  0  0
  7  8  1  6  0  0  0
  7  9  1  0  0  0  0
  9 10  1  0  0  0  0
  9 11  1  6  0  0  0
 11 12  1  0  0  0  0
 13 14  1  1  0  0  0
 13 15  1  0  0  0  0
 13 22  1  0  0  0  0
 15 16  1  1  0  0  0
 15 17  1  0  0  0  0
 17 18  1  6  0  0  0
 17 19  1  0  0  0  0
 19  2  1  6  0  0  0
 19 20  1  0  0  0  0
 20 21  1  6  0  0  0
 20 22  1  0  0  0  0
 23 18  1  6  0  0  0
 23 24  1  0  0  0  0
 23 28  1  0  0  0  0
 24 25  1  1  0  0  0
 24 26  1  0  0  0  0
 26 27  1  0  0  0  0
 26 38  1  6  0  0  0
 27 28  1  0  0  0  0
 27 29  1  6  0  0  0
 29 30  1  0  0  0  0
 31 32  1  1  0  0  0
 31 33  1  0  0  0  0
 31 39  1  0  0  0  0
 33 34  1  1  0  0  0
 33 35  1  0  0  0  0
 35 36  1  6  0  0  0
 35 37  1  0  0  0  0
 37 38  1  1  0  0  0
 37 40  1  0  0  0  0
 39 40  1  0  0  0  0
 39 41  1  6  0  0  0
 41 42  1  0  0  0  0
M  CHG  5   4   1  14   1  21   1  36   1  42   1
M  END
>  <CHROM.1>
-126.19911174,79.57488443,45.54009083,-143.04480268,54.46272862,-43.06766292
-167.93877933,-175.41524529,62.05121487,48.99390189,92.49023263,178.18801394
113.58698336,84.57468169,53.25775905,165.54884473,48.83607921,67.82117438
-140.54339801,-155.45579381,72.45216368,1.32233409,5.10415191,-0.28716800
39.06476977,-1.29041824,0.71387451,-1.49540619

>  <Name>
1pbr

>  <RI>
0

>  <Rbt.Current_Directory>
/home/itssahil/PROJECTS/Mol_Feturizer/New_Systems/rnas/1pbr

>  <Rbt.Executable>
rbdock ($Id: //depot/dev/client3/rdock/2013.1/src/exe/rbdock.cxx#4 $)

>  <Rbt.Library>
libRbt.so (2013.1, Build901 2013/11/27)

>  <Rbt.Parameter_File>
/export/apps/rDock/src/rDock_2013.1_src/data/scripts/dock_solv.prm

>  <Rbt.Receptor>
prm/pocket_docking_7.prm

>  <SCORE>
-27.495

>  <SCORE.INTER>
-33.4044

>  <SCORE.INTER.CONST>
1

>  <SCORE.INTER.POLAR>
-4.56256

>  <SCORE.INTER.ROT>
9

>  <SCORE.INTER.SOLV>
29.7038

>  <SCORE.INTER.VDW>
-26.5623

>  <SCORE.INTER.norm>
-0.795342

>  <SCORE.INTRA>
5.9094

>  <SCORE.INTRA.DIHEDRAL>
11.7954

>  <SCORE.INTRA.DIHEDRAL.0>
29.7866

>  <SCORE.INTRA.POLAR>
-0.485768

>  <SCORE.INTRA.POLAR.0>
-0.984091

>  <SCORE.INTRA.REPUL>
0.0373662

>  <SCORE.INTRA.REPUL.0>
0.274115

>  <SCORE.INTRA.SOLV>
8.38196

>  <SCORE.INTRA.SOLV.lig_0>
-152.978

>  <SCORE.INTRA.VDW>
-2.71448

>  <SCORE.INTRA.VDW.0>
-6.10719

>  <SCORE.INTRA.norm>
0.1407

>  <SCORE.RESTR>
0

>  <SCORE.RESTR.CAVITY>
0

>  <SCORE.RESTR.norm>
0

>  <SCORE.SYSTEM>
0

>  <SCORE.SYSTEM.CONST>
0

>  <SCORE.SYSTEM.DIHEDRAL>
0

>  <SCORE.SYSTEM.SOLV>
0

>  <SCORE.SYSTEM.norm>
0

>  <SCORE.heavy>
42

>  <SCORE.norm>
-0.654642

>  <RMSD>
7.126

$$$$
1pbr
 OpenBabel11021811403D
libRbt.so/2013.1/901 2013/11/27
 42 45  0  0  0  0  0  0  0  0999 V2000
    5.6238   -1.0044   39.1246 C   0  0  2  0  0  0  0  0  0  0  0  0
    5.2791    0.4043   39.1187 O   0  0  0  0  0  0  0  0  0  0  0  0
    6.5870   -1.3494   37.9281 C   0  0  2  0  0  0  0  0  0  0  0  0
    7.6458   -0.3372   37.6778 N   0  3  0  0  0  0  0  0  0  0  0  0
    5.8148   -1.5020   36.6041 C   0  0  1  0  0  0  0  0  0  0  0  0
    6.6479   -2.0680   35.5947 O   0  0  0  0  0  0  0  0  0  0  0  0
    4.5689   -2.3811   36.7901 C   0  0  2  0  0  0  0  0  0  0  0  0
    3.8926   -2.5466   35.5478 O   0  0  0  0  0  0  0  0  0  0  0  0
    3.6515   -1.8044   37.8912 C   0  0  2  0  0  0  0  0  0  0  0  0
    4.4134   -1.8107   39.1170 O   0  0  0  0  0  0  0  0  0  0  0  0
    2.3741   -2.6083   38.1280 C   0  0  0  0  0  0  0  0  0  0  0  0
    2.6572   -3.9934   38.2760 O   0  0  0  0  0  0  0  0  0  0  0  0
    2.9322    0.1549   42.6737 C   0  0  1  0  0  0  0  0  0  0  0  0
    2.1590    0.4062   43.9037 N   0  3  0  0  0  0  0  0  0  0  0  0
    2.2157    0.7045   41.4032 C   0  0  2  0  0  0  0  0  0  0  0  0
    0.9322    0.1018   41.2558 O   0  0  0  0  0  0  0  0  0  0  0  0
    3.0446    0.4160   40.1174 C   0  0  1  0  0  0  0  0  0  0  0  0
    2.4132    1.0975   38.9932 O   0  0  0  0  0  0  0  0  0  0  0  0
    4.5259    0.8987   40.2522 C   0  0  1  0  0  0  0  0  0  0  0  0
    5.2148    0.3854   41.5571 C   0  0  1  0  0  0  0  0  0  0  0  0
    6.5792    0.9384   41.7060 N   0  3  0  0  0  0  0  0  0  0  0  0
    4.3656    0.7484   42.8027 C   0  0  0  0  0  0  0  0  0  0  0  0
    2.5796    0.5771   37.6355 C   0  0  1  0  0  0  0  0  0  0  0  0
    1.7309    1.4290   36.6733 C   0  0  2  0  0  0  0  0  0  0  0  0
    1.3767    0.6872   35.5095 O   0  0  0  0  0  0  0  0  0  0  0  0
    2.7506    2.5369   36.3691 C   0  0  1  0  0  0  0  0  0  0  0  0
    4.0378    1.7512   36.1808 C   0  0  2  0  0  0  0  0  0  0  0  0
    3.9358    0.7608   37.1924 O   0  0  0  0  0  0  0  0  0  0  0  0
    5.3291    2.5609   36.3555 C   0  0  0  0  0  0  0  0  0  0  0  0
    5.3335    3.2042   37.6214 O   0  0  0  0  0  0  0  0  0  0  0  0
    0.0039    6.9003   35.1341 C   0  0  1  0  0  0  0  0  0  0  0  0
   -0.9172    6.4049   34.1641 O   0  0  0  0  0  0  0  0  0  0  0  0
   -0.0723    6.0209   36.4134 C   0  0  2  0  0  0  0  0  0  0  0  0
    0.5519    6.7241   37.4850 O   0  0  0  0  0  0  0  0  0  0  0  0
    0.5807    4.6050   36.2928 C   0  0  1  0  0  0  0  0  0  0  0  0
   -0.3795    3.6438   35.7071 N   0  3  0  0  0  0  0  0  0  0  0  0
    1.9270    4.6531   35.5233 C   0  0  1  0  0  0  0  0  0  0  0  0
    2.4671    3.3491   35.1966 O   0  0  0  0  0  0  0  0  0  0  0  0
    1.4457    6.8762   34.5673 C   0  0  1  0  0  0  0  0  0  0  0  0
    1.8007    5.4877   34.3229 O   0  0  0  0  0  0  0  0  0  0  0  0
    1.6291    7.7241   33.2948 C   0  0  0  0  0  0  0  0  0  0  0  0
    0.9270    7.1581   32.1264 N   0  3  0  0  0  0  0  0  0  0  0  0
  1  2  1  6  0  0  0
  1  3  1  0  0  0  0
  1 10  1  0  0  0  0
  3  4  1  6  0  0  0
  3  5  1  0  0  0  0
  5  6  1  6  0  0  0
  5  7  1  0  0  0  0
  7  8  1  6  0  0  0
  7  9  1  0  0  0  0
  9 10  1  0  0  0  0
  9 11  1  1  0  0  0
 11 12  1  0  0  0  0
 13 14  1  1  0  0  0
 13 15  1  0  0  0  0
 13 22  1  0  0  0  0
 15 16  1  6  0  0  0
 15 17  1  0  0  0  0
 17 18  1  6  0  0  0
 17 19  1  0  0  0  0
 19  2  1  6  0  0  0
 19 20  1  0  0  0  0
 20 21  1  1  0  0  0
 20 22  1  0  0  0  0
 23 18  1  1  0  0  0
 23 24  1  0  0  0  0
 23 28  1  0  0  0  0
 24 25  1  6  0  0  0
 24 26  1  0  0  0  0
 26 27  1  0  0  0  0
 26 38  1  6  0  0  0
 27 28  1  0  0  0  0
 27 29  1  1  0  0  0
 29 30  1  0  0  0  0
 31 32  1  6  0  0  0
 31 33  1  0  0  0  0
 31 39  1  0  0  0  0
 33 34  1  1  0  0  0
 33 35  1  0  0  0  0
 35 36  1  6  0  0  0
 35 37  1  0  0  0  0
 37 38  1  6  0  0  0
 37 40  1  0  0  0  0
 39 40  1  0  0  0  0
 39 41  1  6  0  0  0
 41 42  1  0  0  0  0
M  CHG  5   4   1  14   1  21   1  36   1  42   1
M  END
>  <CHROM.1>
-172.93708388,-74.98967974,102.63532437,-48.35231203,45.94642486,49.07980982
63.84468446,-60.77468363,65.67808463,-153.25305304,176.06689858,159.08743706
51.10181597,103.01610482,54.93375693,167.65713723,-57.21108760,-63.23147459
-109.60303718,-60.88919856,-68.92148392,52.96978237,3.10480982,1.61261950
37.60026738,-0.78312073,0.97124859,-1.30617234

>  <Name>
1pbr

>  <RI>
0

>  <Rbt.Current_Directory>
/home/itssahil/PROJECTS/Mol_Feturizer/New_Systems/rnas/1pbr

>  <Rbt.Executable>
rbdock ($Id: //depot/dev/client3/rdock/2013.1/src/exe/rbdock.cxx#4 $)

>  <Rbt.Library>
libRbt.so (2013.1, Build901 2013/11/27)

>  <Rbt.Parameter_File>
/export/apps/rDock/src/rDock_2013.1_src/data/scripts/dock_solv.prm

>  <Rbt.Receptor>
prm/blind_docking_60.prm

>  <SCORE>
-37.8407

>  <SCORE.INTER>
-43.7458

>  <SCORE.INTER.CONST>
1

>  <SCORE.INTER.POLAR>
-5.94914

>  <SCORE.INTER.ROT>
9

>  <SCORE.INTER.SOLV>
30.1433

>  <SCORE.INTER.VDW>
-28.9812

>  <SCORE.INTER.norm>
-1.04157

>  <SCORE.INTRA>
4.71217

>  <SCORE.INTRA.DIHEDRAL>
-7.53111

>  <SCORE.INTRA.DIHEDRAL.0>
29.7866

>  <SCORE.INTRA.POLAR>
0.337948

>  <SCORE.INTRA.POLAR.0>
-0.984091

>  <SCORE.INTRA.REPUL>
-0.189067

>  <SCORE.INTRA.REPUL.0>
0.274115

>  <SCORE.INTRA.SOLV>
5.99215

>  <SCORE.INTRA.SOLV.lig_0>
-152.978

>  <SCORE.INTRA.VDW>
5.27796

>  <SCORE.INTRA.VDW.0>
-6.10719

>  <SCORE.INTRA.norm>
0.112194

>  <SCORE.RESTR>
1.19294

>  <SCORE.RESTR.CAVITY>
1.19294

>  <SCORE.RESTR.norm>
0.0284032

>  <SCORE.SYSTEM>
0

>  <SCORE.SYSTEM.CONST>
0

>  <SCORE.SYSTEM.DIHEDRAL>
0

>  <SCORE.SYSTEM.SOLV>
0

>  <SCORE.SYSTEM.norm>
0

>  <SCORE.heavy>
42

>  <SCORE.norm>
-0.900969

>  <RMSD>
7.132

$$$$
1pbr
 OpenBabel11021811403D
libRbt.so/2013.1/901 2013/11/27
 42 45  0  0  0  0  0  0  0  0999 V2000
    3.3175   -0.8876   40.3607 C   0  0  2  0  0  0  0  0  0  0  0  0
    2.5192   -0.1345   39.4126 O   0  0  0  0  0  0  0  0  0  0  0  0
    2.5619   -1.0370   41.7337 C   0  0  2  0  0  0  0  0  0  0  0  0
    1.1089   -1.3229   41.6095 N   0  3  0  0  0  0  0  0  0  0  0  0
    2.6786    0.2399   42.5872 C   0  0  1  0  0  0  0  0  0  0  0  0
    2.2250    0.0023   43.9180 O   0  0  0  0  0  0  0  0  0  0  0  0
    4.1278    0.7480   42.6248 C   0  0  2  0  0  0  0  0  0  0  0  0
    4.2239    1.9026   43.4531 O   0  0  0  0  0  0  0  0  0  0  0  0
    4.6569    0.9995   41.1954 C   0  0  2  0  0  0  0  0  0  0  0  0
    4.6257   -0.2693   40.5080 O   0  0  0  0  0  0  0  0  0  0  0  0
    6.0892    1.5281   41.1407 C   0  0  0  0  0  0  0  0  0  0  0  0
    6.8385    1.1037   42.2716 O   0  0  0  0  0  0  0  0  0  0  0  0
    5.7243    0.6130   36.6967 C   0  0  1  0  0  0  0  0  0  0  0  0
    6.5821    0.8833   35.5284 N   0  3  0  0  0  0  0  0  0  0  0  0
    4.8215    1.8304   37.0607 C   0  0  2  0  0  0  0  0  0  0  0  0
    5.6215    2.9748   37.3483 O   0  0  0  0  0  0  0  0  0  0  0  0
    3.9354    1.5253   38.3038 C   0  0  1  0  0  0  0  0  0  0  0  0
    2.9986    2.6274   38.4900 O   0  0  0  0  0  0  0  0  0  0  0  0
    3.1400    0.1884   38.1450 C   0  0  1  0  0  0  0  0  0  0  0  0
    4.0484   -1.0119   37.7267 C   0  0  1  0  0  0  0  0  0  0  0  0
    3.2548   -2.2377   37.4877 N   0  3  0  0  0  0  0  0  0  0  0  0
    4.8650   -0.6626   36.4557 C   0  0  0  0  0  0  0  0  0  0  0  0
    1.5597    2.3642   38.5365 C   0  0  1  0  0  0  0  0  0  0  0  0
    0.8096    3.6559   38.1613 C   0  0  2  0  0  0  0  0  0  0  0  0
   -0.5001    3.6688   38.7223 O   0  0  0  0  0  0  0  0  0  0  0  0
    0.7870    3.4867   36.6346 C   0  0  1  0  0  0  0  0  0  0  0  0
    0.4403    2.0156   36.4758 C   0  0  2  0  0  0  0  0  0  0  0  0
    1.1919    1.4154   37.5196 O   0  0  0  0  0  0  0  0  0  0  0  0
    0.8181    1.3976   35.1234 C   0  0  0  0  0  0  0  0  0  0  0  0
    2.2294    1.3926   34.9670 O   0  0  0  0  0  0  0  0  0  0  0  0
    0.5148    7.9488   33.6750 C   0  0  1  0  0  0  0  0  0  0  0  0
   -0.6132    7.7868   32.8170 O   0  0  0  0  0  0  0  0  0  0  0  0
    0.0271    8.1177   35.1411 C   0  0  2  0  0  0  0  0  0  0  0  0
    1.1005    8.6432   35.9184 O   0  0  0  0  0  0  0  0  0  0  0  0
   -0.4992    6.8142   35.8264 C   0  0  1  0  0  0  0  0  0  0  0  0
   -1.9242    6.5970   35.4928 N   0  3  0  0  0  0  0  0  0  0  0  0
    0.3892    5.5869   35.4931 C   0  0  1  0  0  0  0  0  0  0  0  0
   -0.1683    4.3205   35.9227 O   0  0  0  0  0  0  0  0  0  0  0  0
    1.4489    6.7168   33.5727 C   0  0  1  0  0  0  0  0  0  0  0  0
    0.7124    5.5626   34.0619 O   0  0  0  0  0  0  0  0  0  0  0  0
    1.9922    6.4631   32.1541 C   0  0  0  0  0  0  0  0  0  0  0  0
    0.9358    6.4999   31.1240 N   0  3  0  0  0  0  0  0  0  0  0  0
  1  2  1  6  0  0  0
  1  3  1  0  0  0  0
  1 10  1  0  0  0  0
  3  4  1  6  0  0  0
  3  5  1  0  0  0  0
  5  6  1  1  0  0  0
  5  7  1  0  0  0  0
  7  8  1  1  0  0  0
  7  9  1  0  0  0  0
  9 10  1  0  0  0  0
  9 11  1  1  0  0  0
 11 12  1  0  0  0  0
 13 14  1  6  0  0  0
 13 15  1  0  0  0  0
 13 22  1  0  0  0  0
 15 16  1  1  0  0  0
 15 17  1  0  0  0  0
 17 18  1  6  0  0  0
 17 19  1  0  0  0  0
 19  2  1  1  0  0  0
 19 20  1  0  0  0  0
 20 21  1  6  0  0  0
 20 22  1  0  0  0  0
 23 18  1  6  0  0  0
 23 24  1  0  0  0  0
 23 28  1  0  0  0  0
 24 25  1  1  0  0  0
 24 26  1  0  0  0  0
 26 27  1  0  0  0  0
 26 38  1  6  0  0  0
 27 28  1  0  0  0  0
 27 29  1  6  0  0  0
 29 30  1  0  0  0  0
 31 32  1  6  0  0  0
 31 33  1  0  0  0  0
 31 39  1  0  0  0  0
 33 34  1  1  0  0  0
 33 35  1  0  0  0  0
 35 36  1  6  0  0  0
 35 37  1  0  0  0  0
 37 38  1  6  0  0  0
 37 40  1  0  0  0  0
 39 40  1  0  0  0  0
 39 41  1  6  0  0  0
 41 42  1  0  0  0  0
M  CHG  5   4   1  14   1  21   1  36   1  42   1
M  END
>  <CHROM.1>
174.44567441,-86.80756060,62.13606029,-161.81291113,67.10164774,27.61609950
-164.91233095,53.05114542,72.66567412,124.13505664,-157.02984864,-62.93163754
177.75549956,91.54365556,65.08350429,-169.94203832,56.73396522,-70.35395190
63.96614146,-132.23106241,-48.27179437,-63.58786594,2.39917348,2.63320715
37.64615707,-1.04175408,0.78302240,-1.20352607

>  <Name>
1pbr

>  <RI>
0

>  <Rbt.Current_Directory>
/home/itssahil/PROJECTS/Mol_Feturizer/New_Systems/rnas/1pbr

>  <Rbt.Executable>
rbdock ($Id: //depot/dev/client3/rdock/2013.1/src/exe/rbdock.cxx#4 $)

>  <Rbt.Library>
libRbt.so (2013.1, Build901 2013/11/27)

>  <Rbt.Parameter_File>
/export/apps/rDock/src/rDock_2013.1_src/data/scripts/dock_solv.prm

>  <Rbt.Receptor>
prm/blind_docking_80.prm

>  <SCORE>
-11.9141

>  <SCORE.INTER>
-26.8948

>  <SCORE.INTER.CONST>
1

>  <SCORE.INTER.POLAR>
-4.1782

>  <SCORE.INTER.ROT>
9

>  <SCORE.INTER.SOLV>
26.2769

>  <SCORE.INTER.VDW>
-22.3615

>  <SCORE.INTER.norm>
-0.640352

>  <SCORE.INTRA>
9.28944

>  <SCORE.INTRA.DIHEDRAL>
2.37114

>  <SCORE.INTRA.DIHEDRAL.0>
29.7866

>  <SCORE.INTRA.POLAR>
0.704389

>  <SCORE.INTRA.POLAR.0>
-0.984091

>  <SCORE.INTRA.REPUL>
-0.274115

>  <SCORE.INTRA.REPUL.0>
0.274115

>  <SCORE.INTRA.SOLV>
1.01313

>  <SCORE.INTRA.SOLV.lig_0>
-152.978

>  <SCORE.INTRA.VDW>
6.57296

>  <SCORE.INTRA.VDW.0>
-6.10719

>  <SCORE.INTRA.norm>
0.221177

>  <SCORE.RESTR>
5.6913

>  <SCORE.RESTR.CAVITY>
5.6913

>  <SCORE.RESTR.norm>
0.135507

>  <SCORE.SYSTEM>
0

>  <SCORE.SYSTEM.CONST>
0

>  <SCORE.SYSTEM.DIHEDRAL>
0

>  <SCORE.SYSTEM.SOLV>
0

>  <SCORE.SYSTEM.norm>
0

>  <SCORE.heavy>
42

>  <SCORE.norm>
-0.283668

>  <RMSD>
7.137

$$$$
1pbr
 OpenBabel11021811403D
libRbt.so/2013.1/901 2013/11/27
 42 45  0  0  0  0  0  0  0  0999 V2000
    2.2676   -1.1082   40.2414 C   0  0  2  0  0  0  0  0  0  0  0  0
    1.4063   -0.2304   39.4726 O   0  0  0  0  0  0  0  0  0  0  0  0
    1.5300   -1.6253   41.5324 C   0  0  2  0  0  0  0  0  0  0  0  0
    0.1065   -1.9961   41.3220 N   0  3  0  0  0  0  0  0  0  0  0  0
    1.5391   -0.5680   42.6526 C   0  0  1  0  0  0  0  0  0  0  0  0
    1.1097   -1.1361   43.8881 O   0  0  0  0  0  0  0  0  0  0  0  0
    2.9397    0.0377   42.8285 C   0  0  2  0  0  0  0  0  0  0  0  0
    2.9386    0.9801   43.8962 O   0  0  0  0  0  0  0  0  0  0  0  0
    3.4428    0.6476   41.5014 C   0  0  2  0  0  0  0  0  0  0  0  0
    3.5187   -0.4320   40.5463 O   0  0  0  0  0  0  0  0  0  0  0  0
    4.8248    1.2927   41.5916 C   0  0  0  0  0  0  0  0  0  0  0  0
    4.9017    2.1946   42.6876 O   0  0  0  0  0  0  0  0  0  0  0  0
    1.9590    1.8296   35.7769 C   0  0  1  0  0  0  0  0  0  0  0  0
    2.4029    2.6937   34.6677 N   0  3  0  0  0  0  0  0  0  0  0  0
    3.0079    0.7305   36.1253 C   0  0  2  0  0  0  0  0  0  0  0  0
    3.2609   -0.0937   34.9898 O   0  0  0  0  0  0  0  0  0  0  0  0
    2.5113   -0.1760   37.2895 C   0  0  1  0  0  0  0  0  0  0  0  0
    3.5966   -1.0681   37.6809 O   0  0  0  0  0  0  0  0  0  0  0  0
    2.0518    0.6586   38.5294 C   0  0  1  0  0  0  0  0  0  0  0  0
    1.0426    1.7917   38.1578 C   0  0  1  0  0  0  0  0  0  0  0  0
    0.7035    2.6255   39.3323 N   0  3  0  0  0  0  0  0  0  0  0  0
    1.6174    2.6876   37.0301 C   0  0  0  0  0  0  0  0  0  0  0  0
    3.8711   -2.2734   36.8974 C   0  0  1  0  0  0  0  0  0  0  0  0
    5.3091   -2.7380   37.1946 C   0  0  2  0  0  0  0  0  0  0  0  0
    5.8375   -3.4942   36.1087 O   0  0  0  0  0  0  0  0  0  0  0  0
    5.0307   -3.6088   38.4291 C   0  0  1  0  0  0  0  0  0  0  0  0
    3.7736   -4.3589   38.0210 C   0  0  2  0  0  0  0  0  0  0  0  0
    3.0346   -3.3576   37.3384 O   0  0  0  0  0  0  0  0  0  0  0  0
    2.9493   -4.9324   39.1808 C   0  0  0  0  0  0  0  0  0  0  0  0
    1.8107   -5.6161   38.6782 O   0  0  0  0  0  0  0  0  0  0  0  0
    8.5837   -3.3928   42.1342 C   0  0  1  0  0  0  0  0  0  0  0  0
    7.9476   -4.2546   43.0762 O   0  0  0  0  0  0  0  0  0  0  0  0
    9.2539   -4.2487   41.0234 C   0  0  2  0  0  0  0  0  0  0  0  0
   10.1811   -3.4284   40.3162 O   0  0  0  0  0  0  0  0  0  0  0  0
    8.2718   -4.8994   39.9949 C   0  0  1  0  0  0  0  0  0  0  0  0
    7.7541   -6.1825   40.5189 N   0  3  0  0  0  0  0  0  0  0  0  0
    7.1418   -3.9221   39.5768 C   0  0  1  0  0  0  0  0  0  0  0  0
    6.0879   -4.5375   38.7960 O   0  0  0  0  0  0  0  0  0  0  0  0
    7.5472   -2.4312   41.5005 C   0  0  1  0  0  0  0  0  0  0  0  0
    6.5952   -3.2379   40.7543 O   0  0  0  0  0  0  0  0  0  0  0  0
    6.8261   -1.5317   42.5217 C   0  0  0  0  0  0  0  0  0  0  0  0
    7.7248   -0.5379   43.1407 N   0  3  0  0  0  0  0  0  0  0  0  0
  1  2  1  1  0  0  0
  1  3  1  0  0  0  0
  1 10  1  0  0  0  0
  3  4  1  6  0  0  0
  3  5  1  0  0  0  0
  5  6  1  1  0  0  0
  5  7  1  0  0  0  0
  7  8  1  1  0  0  0
  7  9  1  0  0  0  0
  9 10  1  0  0  0  0
  9 11  1  1  0  0  0
 11 12  1  0  0  0  0
 13 14  1  6  0  0  0
 13 15  1  0  0  0  0
 13 22  1  0  0  0  0
 15 16  1  6  0  0  0
 15 17  1  0  0  0  0
 17 18  1  1  0  0  0
 17 19  1  0  0  0  0
 19  2  1  1  0  0  0
 19 20  1  0  0  0  0
 20 21  1  1  0  0  0
 20 22  1  0  0  0  0
 23 18  1  1  0  0  0
 23 24  1  0  0  0  0
 23 28  1  0  0  0  0
 24 25  1  6  0  0  0
 24 26  1  0  0  0  0
 26 27  1  0  0  0  0
 26 38  1  6  0  0  0
 27 28  1  0  0  0  0
 27 29  1  1  0  0  0
 29 30  1  0  0  0  0
 31 32  1  1  0  0  0
 31 33  1  0  0  0  0
 31 39  1  0  0  0  0
 33 34  1  6  0  0  0
 33 35  1  0  0  0  0
 35 36  1  1  0  0  0
 35 37  1  0  0  0  0
 37 38  1  1  0  0  0
 37 40  1  0  0  0  0
 39 40  1  0  0  0  0
 39 41  1  1  0  0  0
 41 42  1  0  0  0  0
M  CHG  5   4   1  14   1  21   1  36   1  42   1
M  END
>  <CHROM.1>
160.13115707,74.78066661,-51.37272072,62.54978320,-75.55411228,-50.28235049
-44.42990306,-71.93190419,-55.81988676,-80.15930449,160.00107403,-14.99808902
-178.39360812,82.37331330,-179.56332411,61.72156041,66.35285750,66.91780329
174.22120931,179.25666502,67.90556777,-50.76978443,4.24657048,-1.51029802
39.71916432,2.99685157,0.75209156,-1.86910978

>  <Name>
1pbr

>  <RI>
0

>  <Rbt.Current_Directory>
/home/itssahil/PROJECTS/Mol_Feturizer/New_Systems/rnas/1pbr

>  <Rbt.Executable>
rbdock ($Id: //depot/dev/client3/rdock/2013.1/src/exe/rbdock.cxx#4 $)

>  <Rbt.Library>
libRbt.so (2013.1, Build901 2013/11/27)

>  <Rbt.Parameter_File>
/export/apps/rDock/src/rDock_2013.1_src/data/scripts/dock_solv.prm

>  <Rbt.Receptor>
prm/pocket_docking_7.prm

>  <SCORE>
-45.9089

>  <SCORE.INTER>
-40.7505

>  <SCORE.INTER.CONST>
1

>  <SCORE.INTER.POLAR>
-7.06358

>  <SCORE.INTER.ROT>
9

>  <SCORE.INTER.SOLV>
29.5798

>  <SCORE.INTER.VDW>
-23.0816

>  <SCORE.INTER.norm>
-0.97025

>  <SCORE.INTRA>
-5.24604

>  <SCORE.INTRA.DIHEDRAL>
-12.8919

>  <SCORE.INTRA.DIHEDRAL.0>
29.7866

>  <SCORE.INTRA.POLAR>
0.952001

>  <SCORE.INTRA.POLAR.0>
-0.984091

>  <SCORE.INTRA.REPUL>
-0.206829

>  <SCORE.INTRA.REPUL.0>
0.274115

>  <SCORE.INTRA.SOLV>
-3.12747

>  <SCORE.INTRA.SOLV.lig_0>
-152.978

>  <SCORE.INTRA.VDW>
0.560989

>  <SCORE.INTRA.VDW.0>
-6.10719

>  <SCORE.INTRA.norm>
-0.124906

>  <SCORE.RESTR>
0.0876225

>  <SCORE.RESTR.CAVITY>
0.0876225

>  <SCORE.RESTR.norm>
0.00208625

>  <SCORE.SYSTEM>
0

>  <SCORE.SYSTEM.CONST>
0

>  <SCORE.SYSTEM.DIHEDRAL>
0

>  <SCORE.SYSTEM.SOLV>
0

>  <SCORE.SYSTEM.norm>
0

>  <SCORE.heavy>
42

>  <SCORE.norm>
-1.09307

>  <RMSD>
7.142

$$$$
1pbr
 OpenBabel11021811403D
libRbt.so/2013.1/901 2013/11/27
 42 45  0  0  0  0  0  0  0  0999 V2000
    5.2420    0.8212   39.5598 C   0  0  2  0  0  0  0  0  0  0  0  0
    4.0375    0.2174   40.0963 O   0  0  0  0  0  0  0  0  0  0  0  0
    4.9291    1.6111   38.2345 C   0  0  2  0  0  0  0  0  0  0  0  0
    3.6683    2.3970   38.2686 N   0  3  0  0  0  0  0  0  0  0  0  0
    4.8150    0.6654   37.0240 C   0  0  1  0  0  0  0  0  0  0  0  0
    4.7969    1.4043   35.8046 O   0  0  0  0  0  0  0  0  0  0  0  0
    5.9779   -0.3378   36.9960 C   0  0  2  0  0  0  0  0  0  0  0  0
    5.8796   -1.1743   35.8476 O   0  0  0  0  0  0  0  0  0  0  0  0
    6.0368   -1.1444   38.3122 C   0  0  2  0  0  0  0  0  0  0  0  0
    6.2658   -0.1952   39.3752 O   0  0  0  0  0  0  0  0  0  0  0  0
    7.1555   -2.1837   38.3616 C   0  0  0  0  0  0  0  0  0  0  0  0
    6.7557   -3.3366   39.0907 O   0  0  0  0  0  0  0  0  0  0  0  0
    2.3911   -0.1114   44.0192 C   0  0  1  0  0  0  0  0  0  0  0  0
    1.9119    0.1018   45.3971 N   0  3  0  0  0  0  0  0  0  0  0  0
    1.5434    0.6716   42.9714 C   0  0  2  0  0  0  0  0  0  0  0  0
    0.1769    0.2705   43.0368 O   0  0  0  0  0  0  0  0  0  0  0  0
    2.0604    0.4206   41.5246 C   0  0  1  0  0  0  0  0  0  0  0  0
    1.3433    1.3052   40.6134 O   0  0  0  0  0  0  0  0  0  0  0  0
    3.5975    0.6780   41.3966 C   0  0  1  0  0  0  0  0  0  0  0  0
    4.4306   -0.0693   42.4866 C   0  0  1  0  0  0  0  0  0  0  0  0
    5.8680    0.2716   42.4020 N   0  3  0  0  0  0  0  0  0  0  0  0
    3.8980    0.2623   43.9046 C   0  0  0  0  0  0  0  0  0  0  0  0
    0.3143    0.7621   39.7256 C   0  0  1  0  0  0  0  0  0  0  0  0
   -0.2423    1.9063   38.8578 C   0  0  2  0  0  0  0  0  0  0  0  0
   -1.5680    1.6197   38.4215 O   0  0  0  0  0  0  0  0  0  0  0  0
    0.7736    1.8520   37.7068 C   0  0  1  0  0  0  0  0  0  0  0  0
    0.9144    0.3578   37.4678 C   0  0  2  0  0  0  0  0  0  0  0  0
    0.8983   -0.1606   38.7890 O   0  0  0  0  0  0  0  0  0  0  0  0
    2.1969   -0.0700   36.7427 C   0  0  0  0  0  0  0  0  0  0  0  0
    2.2106    0.4575   35.4245 O   0  0  0  0  0  0  0  0  0  0  0  0
   -0.3040    6.7325   35.7180 C   0  0  1  0  0  0  0  0  0  0  0  0
   -1.2803    6.5238   34.6992 O   0  0  0  0  0  0  0  0  0  0  0  0
   -0.8385    6.1738   37.0662 C   0  0  2  0  0  0  0  0  0  0  0  0
   -0.0466    6.7083   38.1245 O   0  0  0  0  0  0  0  0  0  0  0  0
   -0.8529    4.6147   37.1867 C   0  0  1  0  0  0  0  0  0  0  0  0
   -2.0913    4.0642   36.5931 N   0  3  0  0  0  0  0  0  0  0  0  0
    0.4316    3.9774   36.5943 C   0  0  1  0  0  0  0  0  0  0  0  0
    0.3778    2.5337   36.4848 O   0  0  0  0  0  0  0  0  0  0  0  0
    1.0215    6.0219   35.3455 C   0  0  1  0  0  0  0  0  0  0  0  0
    0.7592    4.5925   35.3029 O   0  0  0  0  0  0  0  0  0  0  0  0
    1.6386    6.5087   34.0210 C   0  0  0  0  0  0  0  0  0  0  0  0
    2.5495    7.6556   34.2040 N   0  3  0  0  0  0  0  0  0  0  0  0
  1  2  1  6  0  0  0
  1  3  1  0  0  0  0
  1 10  1  0  0  0  0
  3  4  1  1  0  0  0
  3  5  1  0  0  0  0
  5  6  1  6  0  0  0
  5  7  1  0  0  0  0
  7  8  1  6  0  0  0
  7  9  1  0  0  0  0
  9 10  1  0  0  0  0
  9 11  1  6  0  0  0
 11 12  1  0  0  0  0
 13 14  1  1  0  0  0
 13 15  1  0  0  0  0
 13 22  1  0  0  0  0
 15 16  1  6  0  0  0
 15 17  1  0  0  0  0
 17 18  1  6  0  0  0
 17 19  1  0  0  0  0
 19  2  1  6  0  0  0
 19 20  1  0  0  0  0
 20 21  1  1  0  0  0
 20 22  1  0  0  0  0
 23 18  1  1  0  0  0
 23 24  1  0  0  0  0
 23 28  1  0  0  0  0
 24 25  1  6  0  0  0
 24 26  1  0  0  0  0
 26 27  1  0  0  0  0
 26 38  1  6  0  0  0
 27 28  1  0  0  0  0
 27 29  1  1  0  0  0
 29 30  1  0  0  0  0
 31 32  1  6  0  0  0
 31 33  1  0  0  0  0
 31 39  1  0  0  0  0
 33 34  1  1  0  0  0
 33 35  1  0  0  0  0
 35 36  1  6  0  0  0
 35 37  1  0  0  0  0
 37 38  1  6  0  0  0
 37 40  1  0  0  0  0
 39 40  1  0  0  0  0
 39 41  1  6  0  0  0
 41 42  1  0  0  0  0
M  CHG  5   4   1  14   1  21   1  36   1  42   1
M  END
>  <CHROM.1>
-116.75454431,155.76020693,118.80308289,68.47997102,60.85961831,-145.57056971
179.20972185,73.15529000,73.66149006,-106.30537824,-178.49364791,-169.69569012
62.40888651,73.32900079,-64.59930838,173.05039829,75.43011315,53.24788565
81.91219977,-85.67406331,89.02139935,159.68346844,2.36651440,1.80755380,38.52439875
-0.93951614,0.61485397,-1.11679165

>  <Name>
1pbr

>  <RI>
0

>  <Rbt.Current_Directory>
/home/itssahil/PROJECTS/Mol_Feturizer/New_Systems/rnas/1pbr

>  <Rbt.Executable>
rbdock ($Id: //depot/dev/client3/rdock/2013.1/src/exe/rbdock.cxx#4 $)

>  <Rbt.Library>
libRbt.so (2013.1, Build901 2013/11/27)

>  <Rbt.Parameter_File>
/export/apps/rDock/src/rDock_2013.1_src/data/scripts/dock_solv.prm

>  <Rbt.Receptor>
prm/blind_docking_60.prm

>  <SCORE>
-21.6668

>  <SCORE.INTER>
-25.6795

>  <SCORE.INTER.CONST>
1

>  <SCORE.INTER.POLAR>
-4.59373

>  <SCORE.INTER.ROT>
9

>  <SCORE.INTER.SOLV>
28.288

>  <SCORE.INTER.VDW>
-20.8365

>  <SCORE.INTER.norm>
-0.611416

>  <SCORE.INTRA>
3.96989

>  <SCORE.INTRA.DIHEDRAL>
5.11203

>  <SCORE.INTRA.DIHEDRAL.0>
29.7866

>  <SCORE.INTRA.POLAR>
-1.33865

>  <SCORE.INTRA.POLAR.0>
-0.984091

>  <SCORE.INTRA.REPUL>
-0.274115

>  <SCORE.INTRA.REPUL.0>
0.274115

>  <SCORE.INTRA.SOLV>
7.30741

>  <SCORE.INTRA.SOLV.lig_0>
-152.978

>  <SCORE.INTRA.VDW>
3.68217

>  <SCORE.INTRA.VDW.0>
-6.10719

>  <SCORE.INTRA.norm>
0.0945212

>  <SCORE.RESTR>
0.042791

>  <SCORE.RESTR.CAVITY>
0.042791

>  <SCORE.RESTR.norm>
0.00101883

>  <SCORE.SYSTEM>
0

>  <SCORE.SYSTEM.CONST>
0

>  <SCORE.SYSTEM.DIHEDRAL>
0

>  <SCORE.SYSTEM.SOLV>
0

>  <SCORE.SYSTEM.norm>
0

>  <SCORE.heavy>
42

>  <SCORE.norm>
-0.515876

>  <RMSD>
7.206

$$$$
1pbr
 OpenBabel11021811403D
libRbt.so/2013.1/901 2013/11/27
 42 45  0  0  0  0  0  0  0  0999 V2000
    1.8256   -5.6192   45.6521 C   0  0  2  0  0  0  0  0  0  0  0  0
    1.1639   -5.2360   44.4199 O   0  0  0  0  0  0  0  0  0  0  0  0
    3.0879   -4.7155   45.9135 C   0  0  2  0  0  0  0  0  0  0  0  0
    2.8890   -3.2753   45.6060 N   0  3  0  0  0  0  0  0  0  0  0  0
    4.2962   -5.1725   45.0746 C   0  0  1  0  0  0  0  0  0  0  0  0
    5.4892   -4.5246   45.5107 O   0  0  0  0  0  0  0  0  0  0  0  0
    4.4821   -6.6951   45.1586 C   0  0  2  0  0  0  0  0  0  0  0  0
    5.6283   -7.0934   44.4131 O   0  0  0  0  0  0  0  0  0  0  0  0
    3.1992   -7.4287   44.7086 C   0  0  2  0  0  0  0  0  0  0  0  0
    2.1508   -7.0364   45.6198 O   0  0  0  0  0  0  0  0  0  0  0  0
    3.3039   -8.9525   44.7413 C   0  0  0  0  0  0  0  0  0  0  0  0
    2.0494   -9.5610   44.4645 O   0  0  0  0  0  0  0  0  0  0  0  0
   -1.9147   -8.1599   44.8451 C   0  0  1  0  0  0  0  0  0  0  0  0
   -3.1203   -9.0013   44.7338 N   0  3  0  0  0  0  0  0  0  0  0  0
   -0.9690   -8.3179   43.6161 C   0  0  2  0  0  0  0  0  0  0  0  0
   -0.5559   -9.6753   43.4773 O   0  0  0  0  0  0  0  0  0  0  0  0
    0.3015   -7.4303   43.7628 C   0  0  1  0  0  0  0  0  0  0  0  0
    1.0576   -7.4893   42.5170 O   0  0  0  0  0  0  0  0  0  0  0  0
   -0.0549   -5.9421   44.0843 C   0  0  1  0  0  0  0  0  0  0  0  0
   -1.0463   -5.8011   45.2834 C   0  0  1  0  0  0  0  0  0  0  0  0
   -1.4420   -4.3919   45.4999 N   0  3  0  0  0  0  0  0  0  0  0  0
   -2.3106   -6.6687   45.0524 C   0  0  0  0  0  0  0  0  0  0  0  0
    0.4557   -7.0083   41.2728 C   0  0  1  0  0  0  0  0  0  0  0  0
    1.0027   -5.6002   40.9725 C   0  0  2  0  0  0  0  0  0  0  0  0
    0.0910   -4.8576   40.1678 O   0  0  0  0  0  0  0  0  0  0  0  0
    2.2717   -5.9940   40.2015 C   0  0  1  0  0  0  0  0  0  0  0  0
    1.7722   -7.1140   39.3039 C   0  0  2  0  0  0  0  0  0  0  0  0
    0.8876   -7.8161   40.1636 O   0  0  0  0  0  0  0  0  0  0  0  0
    2.8581   -8.0574   38.7704 C   0  0  0  0  0  0  0  0  0  0  0  0
    2.2757   -9.2820   38.3491 O   0  0  0  0  0  0  0  0  0  0  0  0
    7.0954   -5.4208   38.5729 C   0  0  1  0  0  0  0  0  0  0  0  0
    6.9094   -5.9212   37.2501 O   0  0  0  0  0  0  0  0  0  0  0  0
    6.5630   -3.9627   38.6518 C   0  0  2  0  0  0  0  0  0  0  0  0
    7.0804   -3.3543   39.8328 O   0  0  0  0  0  0  0  0  0  0  0  0
    5.0059   -3.8172   38.6518 C   0  0  1  0  0  0  0  0  0  0  0  0
    4.4895   -3.8146   37.2653 N   0  3  0  0  0  0  0  0  0  0  0  0
    4.3253   -4.8885   39.5439 C   0  0  1  0  0  0  0  0  0  0  0  0
    2.8832   -4.9363   39.4129 O   0  0  0  0  0  0  0  0  0  0  0  0
    6.3418   -6.3093   39.5942 C   0  0  1  0  0  0  0  0  0  0  0  0
    4.9209   -6.2079   39.3037 O   0  0  0  0  0  0  0  0  0  0  0  0
    6.8000   -7.7798   39.5982 C   0  0  0  0  0  0  0  0  0  0  0  0
    6.1528   -8.5756   40.6595 N   0  3  0  0  0  0  0  0  0  0  0  0
  1  2  1  6  0  0  0
  1  3  1  0  0  0  0
  1 10  1  0  0  0  0
  3  4  1  6  0  0  0
  3  5  1  0  0  0  0
  5  6  1  1  0  0  0
  5  7  1  0  0  0  0
  7  8  1  6  0  0  0
  7  9  1  0  0  0  0
  9 10  1  0  0  0  0
  9 11  1  1  0  0  0
 11 12  1  0  0  0  0
 13 14  1  6  0  0  0
 13 15  1  0  0  0  0
 13 22  1  0  0  0  0
 15 16  1  1  0  0  0
 15 17  1  0  0  0  0
 17 18  1  6  0  0  0
 17 19  1  0  0  0  0
 19  2  1  1  0  0  0
 19 20  1  0  0  0  0
 20 21  1  6  0  0  0
 20 22  1  0  0  0  0
 23 18  1  1  0  0  0
 23 24  1  0  0  0  0
 23 28  1  0  0  0  0
 24 25  1  6  0  0  0
 24 26  1  0  0  0  0
 26 27  1  0  0  0  0
 26 38  1  6  0  0  0
 27 28  1  0  0  0  0
 27 29  1  1  0  0  0
 29 30  1  0  0  0  0
 31 32  1  6  0  0  0
 31 33  1  0  0  0  0
 31 39  1  0  0  0  0
 33 34  1  1  0  0  0
 33 35  1  0  0  0  0
 35 36  1  6  0  0  0
 35 37  1  0  0  0  0
 37 38  1  6  0  0  0
 37 40  1  0  0  0  0
 39 40  1  0  0  0  0
 39 41  1  6  0  0  0
 41 42  1  0  0  0  0
M  CHG  5   4   1  14   1  21   1  36   1  42   1
M  END
>  <CHROM.1>
-177.08559374,-67.35416352,-175.72136374,176.48807910,179.46219282,173.33443252
53.98456708,-170.01991905,68.68766845,61.79093963,100.79251057,-137.68265336
-173.73008791,136.19154031,160.17312668,-51.68368815,-176.45114672,-60.99923362
-63.52669498,176.85430122,174.91112614,-173.25252268,2.62076775,-6.41649374
42.16566733,-2.44054976,-0.42262064,-1.77032721

>  <Name>
1pbr

>  <RI>
0

>  <Rbt.Current_Directory>
/home/itssahil/PROJECTS/Mol_Feturizer/New_Systems/rnas/1pbr

>  <Rbt.Executable>
rbdock ($Id: //depot/dev/client3/rdock/2013.1/src/exe/rbdock.cxx#4 $)

>  <Rbt.Library>
libRbt.so (2013.1, Build901 2013/11/27)

>  <Rbt.Parameter_File>
/export/apps/rDock/src/rDock_2013.1_src/data/scripts/dock_solv.prm

>  <Rbt.Receptor>
prm/pocket_docking_7.prm

>  <SCORE>
-37.2655

>  <SCORE.INTER>
-32.1425

>  <SCORE.INTER.CONST>
1

>  <SCORE.INTER.POLAR>
-5.60838

>  <SCORE.INTER.ROT>
9

>  <SCORE.INTER.SOLV>
26.1123

>  <SCORE.INTER.VDW>
-21.0378

>  <SCORE.INTER.norm>
-0.765298

>  <SCORE.INTRA>
-5.12301

>  <SCORE.INTRA.DIHEDRAL>
-11.0839

>  <SCORE.INTRA.DIHEDRAL.0>
29.7866

>  <SCORE.INTRA.POLAR>
-0.258736

>  <SCORE.INTRA.POLAR.0>
-0.984091

>  <SCORE.INTRA.REPUL>
-0.274115

>  <SCORE.INTRA.REPUL.0>
0.274115

>  <SCORE.INTRA.SOLV>
-1.98639

>  <SCORE.INTRA.SOLV.lig_0>
-152.978

>  <SCORE.INTRA.VDW>
3.66243

>  <SCORE.INTRA.VDW.0>
-6.10719

>  <SCORE.INTRA.norm>
-0.121976

>  <SCORE.RESTR>
0

>  <SCORE.RESTR.CAVITY>
0

>  <SCORE.RESTR.norm>
0

>  <SCORE.SYSTEM>
0

>  <SCORE.SYSTEM.CONST>
0

>  <SCORE.SYSTEM.DIHEDRAL>
0

>  <SCORE.SYSTEM.SOLV>
0

>  <SCORE.SYSTEM.norm>
0

>  <SCORE.heavy>
42

>  <SCORE.norm>
-0.887275

>  <RMSD>
7.211

$$$$
1pbr
 OpenBabel11021811403D
libRbt.so/2013.1/901 2013/11/27
 42 45  0  0  0  0  0  0  0  0999 V2000
    3.1581    1.3556   39.2356 C   0  0  2  0  0  0  0  0  0  0  0  0
    3.4341    0.0741   38.6154 O   0  0  0  0  0  0  0  0  0  0  0  0
    3.8642    1.4615   40.6387 C   0  0  2  0  0  0  0  0  0  0  0  0
    5.2439    0.9110   40.6774 N   0  3  0  0  0  0  0  0  0  0  0  0
    3.0721    0.7167   41.7298 C   0  0  1  0  0  0  0  0  0  0  0  0
    3.5714    1.0384   43.0262 O   0  0  0  0  0  0  0  0  0  0  0  0
    1.5768    1.0612   41.6586 C   0  0  2  0  0  0  0  0  0  0  0  0
    0.8681    0.3983   42.7010 O   0  0  0  0  0  0  0  0  0  0  0  0
    1.0073    0.7403   40.2588 C   0  0  2  0  0  0  0  0  0  0  0  0
    1.7215    1.5678   39.3163 O   0  0  0  0  0  0  0  0  0  0  0  0
   -0.4841    1.0342   40.1060 C   0  0  0  0  0  0  0  0  0  0  0  0
   -0.8922    0.9342   38.7480 O   0  0  0  0  0  0  0  0  0  0  0  0
    6.6721   -0.3032   35.8621 C   0  0  1  0  0  0  0  0  0  0  0  0
    7.5486   -0.3802   34.6789 N   0  3  0  0  0  0  0  0  0  0  0  0
    6.1205    1.1358   36.0956 C   0  0  2  0  0  0  0  0  0  0  0  0
    7.1937    2.0574   36.2731 O   0  0  0  0  0  0  0  0  0  0  0  0
    5.2091    1.1941   37.3564 C   0  0  1  0  0  0  0  0  0  0  0  0
    4.5916    2.5136   37.4244 O   0  0  0  0  0  0  0  0  0  0  0  0
    4.0933    0.0991   37.3264 C   0  0  1  0  0  0  0  0  0  0  0  0
    4.6537   -1.3303   37.0372 C   0  0  1  0  0  0  0  0  0  0  0  0
    3.5667   -2.3270   36.9162 N   0  3  0  0  0  0  0  0  0  0  0  0
    5.5088   -1.3309   35.7437 C   0  0  0  0  0  0  0  0  0  0  0  0
    4.1609    3.1836   36.1966 C   0  0  1  0  0  0  0  0  0  0  0  0
    2.9389    2.4367   35.6299 C   0  0  2  0  0  0  0  0  0  0  0  0
    2.8261    2.6328   34.2232 O   0  0  0  0  0  0  0  0  0  0  0  0
    1.8309    3.1613   36.4092 C   0  0  1  0  0  0  0  0  0  0  0  0
    2.2740    4.6129   36.3300 C   0  0  2  0  0  0  0  0  0  0  0  0
    3.6802    4.5070   36.4914 O   0  0  0  0  0  0  0  0  0  0  0  0
    1.6821    5.5362   37.4028 C   0  0  0  0  0  0  0  0  0  0  0  0
    0.9171    6.5649   36.7923 O   0  0  0  0  0  0  0  0  0  0  0  0
   -2.2551    6.1034   34.6273 C   0  0  1  0  0  0  0  0  0  0  0  0
   -2.8414    5.3421   33.5731 O   0  0  0  0  0  0  0  0  0  0  0  0
   -2.5556    5.4157   35.9884 C   0  0  2  0  0  0  0  0  0  0  0  0
   -2.3029    6.3508   37.0345 O   0  0  0  0  0  0  0  0  0  0  0  0
   -1.7428    4.1103   36.2734 C   0  0  1  0  0  0  0  0  0  0  0  0
   -2.4131    2.9428   35.6597 N   0  3  0  0  0  0  0  0  0  0  0  0
   -0.2594    4.2471   35.8403 C   0  0  1  0  0  0  0  0  0  0  0  0
    0.4847    3.0046   35.8822 O   0  0  0  0  0  0  0  0  0  0  0  0
   -0.7231    6.2128   34.4231 C   0  0  1  0  0  0  0  0  0  0  0  0
   -0.1685    4.8720   34.5157 O   0  0  0  0  0  0  0  0  0  0  0  0
   -0.3177    6.8866   33.0988 C   0  0  0  0  0  0  0  0  0  0  0  0
   -1.0536    6.3498   31.9374 N   0  3  0  0  0  0  0  0  0  0  0  0
  1  2  1  1  0  0  0
  1  3  1  0  0  0  0
  1 10  1  0  0  0  0
  3  4  1  6  0  0  0
  3  5  1  0  0  0  0
  5  6  1  1  0  0  0
  5  7  1  0  0  0  0
  7  8  1  1  0  0  0
  7  9  1  0  0  0  0
  9 10  1  0  0  0  0
  9 11  1  1  0  0  0
 11 12  1  0  0  0  0
 13 14  1  6  0  0  0
 13 15  1  0  0  0  0
 13 22  1  0  0  0  0
 15 16  1  1  0  0  0
 15 17  1  0  0  0  0
 17 18  1  6  0  0  0
 17 19  1  0  0  0  0
 19  2  1  1  0  0  0
 19 20  1  0  0  0  0
 20 21  1  6  0  0  0
 20 22  1  0  0  0  0
 23 18  1  1  0  0  0
 23 24  1  0  0  0  0
 23 28  1  0  0  0  0
 24 25  1  6  0  0  0
 24 26  1  0  0  0  0
 26 27  1  0  0  0  0
 26 38  1  6  0  0  0
 27 28  1  0  0  0  0
 27 29  1  1  0  0  0
 29 30  1  0  0  0  0
 31 32  1  6  0  0  0
 31 33  1  0  0  0  0
 31 39  1  0  0  0  0
 33 34  1  1  0  0  0
 33 35  1  0  0  0  0
 35 36  1  6  0  0  0
 35 37  1  0  0  0  0
 37 38  1  6  0  0  0
 37 40  1  0  0  0  0
 39 40  1  0  0  0  0
 39 41  1  6  0  0  0
 41 42  1  0  0  0  0
M  CHG  5   4   1  14   1  21   1  36   1  42   1
M  END
>  <CHROM.1>
-120.84047269,41.19880069,-177.50335030,-175.98691552,-61.60391188,170.12056088
-54.12188050,-175.84701046,176.53230162,37.67890878,70.05392422,-38.31686892
-36.73078453,-135.38372591,-118.93518053,-170.83730200,49.91068332,178.91446510
88.50326458,-138.95873667,-47.38451178,-85.11448322,2.00987583,2.55423910
37.12600783,0.72247096,-0.49237280,2.01143359

>  <Name>
1pbr

>  <RI>
0

>  <Rbt.Current_Directory>
/home/itssahil/PROJECTS/Mol_Feturizer/New_Systems/rnas/1pbr

>  <Rbt.Executable>
rbdock ($Id: //depot/dev/client3/rdock/2013.1/src/exe/rbdock.cxx#4 $)

>  <Rbt.Library>
libRbt.so (2013.1, Build901 2013/11/27)

>  <Rbt.Parameter_File>
/export/apps/rDock/src/rDock_2013.1_src/data/scripts/dock_solv.prm

>  <Rbt.Receptor>
prm/blind_docking_80.prm

>  <SCORE>
-33.623

>  <SCORE.INTER>
-46.254

>  <SCORE.INTER.CONST>
1

>  <SCORE.INTER.POLAR>
-6.50164

>  <SCORE.INTER.ROT>
9

>  <SCORE.INTER.SOLV>
37.8451

>  <SCORE.INTER.VDW>
-31.3789

>  <SCORE.INTER.norm>
-1.10129

>  <SCORE.INTRA>
11.5273

>  <SCORE.INTRA.DIHEDRAL>
7.13574

>  <SCORE.INTRA.DIHEDRAL.0>
29.7866

>  <SCORE.INTRA.POLAR>
0.0811434

>  <SCORE.INTRA.POLAR.0>
-0.984091

>  <SCORE.INTRA.REPUL>
-0.274115

>  <SCORE.INTRA.REPUL.0>
0.274115

>  <SCORE.INTRA.SOLV>
2.26367

>  <SCORE.INTRA.SOLV.lig_0>
-152.978

>  <SCORE.INTRA.VDW>
7.92229

>  <SCORE.INTRA.VDW.0>
-6.10719

>  <SCORE.INTRA.norm>
0.27446

>  <SCORE.RESTR>
1.10374

>  <SCORE.RESTR.CAVITY>
1.10374

>  <SCORE.RESTR.norm>
0.0262795

>  <SCORE.SYSTEM>
0

>  <SCORE.SYSTEM.CONST>
0

>  <SCORE.SYSTEM.DIHEDRAL>
0

>  <SCORE.SYSTEM.SOLV>
0

>  <SCORE.SYSTEM.norm>
0

>  <SCORE.heavy>
42

>  <SCORE.norm>
-0.800547

>  <RMSD>
7.222

$$$$
1pbr
 OpenBabel11021811403D
libRbt.so/2013.1/901 2013/11/27
 42 45  0  0  0  0  0  0  0  0999 V2000
    5.9014   -1.1912   39.5483 C   0  0  2  0  0  0  0  0  0  0  0  0
    5.7062    0.2061   39.8840 O   0  0  0  0  0  0  0  0  0  0  0  0
    7.4017   -1.4690   39.1608 C   0  0  2  0  0  0  0  0  0  0  0  0
    8.3981   -0.7754   40.0179 N   0  3  0  0  0  0  0  0  0  0  0  0
    7.7030   -1.0369   37.7134 C   0  0  1  0  0  0  0  0  0  0  0  0
    8.9728   -1.5302   37.2919 O   0  0  0  0  0  0  0  0  0  0  0  0
    6.6157   -1.5371   36.7505 C   0  0  2  0  0  0  0  0  0  0  0  0
    6.9335   -1.1660   35.4127 O   0  0  0  0  0  0  0  0  0  0  0  0
    5.2226   -1.0339   37.1891 C   0  0  2  0  0  0  0  0  0  0  0  0
    4.9724   -1.5833   38.5002 O   0  0  0  0  0  0  0  0  0  0  0  0
    4.0810   -1.4692   36.2719 C   0  0  0  0  0  0  0  0  0  0  0  0
    3.8622   -2.8715   36.3518 O   0  0  0  0  0  0  0  0  0  0  0  0
    1.8572   -0.4557   41.6029 C   0  0  1  0  0  0  0  0  0  0  0  0
    0.5687   -0.3685   42.3143 N   0  3  0  0  0  0  0  0  0  0  0  0
    1.9143    0.4919   40.3666 C   0  0  2  0  0  0  0  0  0  0  0  0
    0.8728    0.1731   39.4467 O   0  0  0  0  0  0  0  0  0  0  0  0
    3.2781    0.3725   39.6254 C   0  0  1  0  0  0  0  0  0  0  0  0
    3.3367    1.3972   38.5893 O   0  0  0  0  0  0  0  0  0  0  0  0
    4.4919    0.5449   40.5961 C   0  0  1  0  0  0  0  0  0  0  0  0
    4.3945   -0.3710   41.8579 C   0  0  1  0  0  0  0  0  0  0  0  0
    5.5029   -0.1143   42.8039 N   0  3  0  0  0  0  0  0  0  0  0  0
    3.0362   -0.1675   42.5777 C   0  0  0  0  0  0  0  0  0  0  0  0
    2.1027    1.8818   37.9695 C   0  0  1  0  0  0  0  0  0  0  0  0
    2.1484    3.4204   37.9171 C   0  0  2  0  0  0  0  0  0  0  0  0
    0.8345    3.9709   37.8863 O   0  0  0  0  0  0  0  0  0  0  0  0
    2.8836    3.5943   36.5795 C   0  0  1  0  0  0  0  0  0  0  0  0
    2.2062    2.5571   35.6991 C   0  0  2  0  0  0  0  0  0  0  0  0
    2.0383    1.4676   36.5933 O   0  0  0  0  0  0  0  0  0  0  0  0
    3.0111    2.1181   34.4691 C   0  0  0  0  0  0  0  0  0  0  0  0
    4.2480    1.5498   34.8735 O   0  0  0  0  0  0  0  0  0  0  0  0
   -0.8010    7.0064   34.8036 C   0  0  1  0  0  0  0  0  0  0  0  0
   -0.3540    8.2905   35.2346 O   0  0  0  0  0  0  0  0  0  0  0  0
    0.1174    6.4990   33.6570 C   0  0  2  0  0  0  0  0  0  0  0  0
   -0.5395    5.4222   32.9925 O   0  0  0  0  0  0  0  0  0  0  0  0
    1.5404    6.0241   34.0989 C   0  0  1  0  0  0  0  0  0  0  0  0
    2.4646    7.1765   34.1817 N   0  3  0  0  0  0  0  0  0  0  0  0
    1.4923    5.1976   35.4109 C   0  0  1  0  0  0  0  0  0  0  0  0
    2.7948    4.9158   35.9793 O   0  0  0  0  0  0  0  0  0  0  0  0
   -0.7687    6.0025   35.9833 C   0  0  1  0  0  0  0  0  0  0  0  0
    0.6175    5.8478   36.3935 O   0  0  0  0  0  0  0  0  0  0  0  0
   -1.6536    6.4131   37.1752 C   0  0  0  0  0  0  0  0  0  0  0  0
   -3.0692    6.5938   36.7986 N   0  3  0  0  0  0  0  0  0  0  0  0
  1  2  1  6  0  0  0
  1  3  1  0  0  0  0
  1 10  1  0  0  0  0
  3  4  1  1  0  0  0
  3  5  1  0  0  0  0
  5  6  1  6  0  0  0
  5  7  1  0  0  0  0
  7  8  1  6  0  0  0
  7  9  1  0  0  0  0
  9 10  1  0  0  0  0
  9 11  1  6  0  0  0
 11 12  1  0  0  0  0
 13 14  1  1  0  0  0
 13 15  1  0  0  0  0
 13 22  1  0  0  0  0
 15 16  1  6  0  0  0
 15 17  1  0  0  0  0
 17 18  1  6  0  0  0
 17 19  1  0  0  0  0
 19  2  1  6  0  0  0
 19 20  1  0  0  0  0
 20 21  1  1  0  0  0
 20 22  1  0  0  0  0
 23 18  1  6  0  0  0
 23 24  1  0  0  0  0
 23 28  1  0  0  0  0
 24 25  1  6  0  0  0
 24 26  1  0  0  0  0
 26 27  1  0  0  0  0
 26 38  1  6  0  0  0
 27 28  1  0  0  0  0
 27 29  1  6  0  0  0
 29 30  1  0  0  0  0
 31 32  1  1  0  0  0
 31 33  1  0  0  0  0
 31 39  1  0  0  0  0
 33 34  1  1  0  0  0
 33 35  1  0  0  0  0
 35 36  1  1  0  0  0
 35 37  1  0  0  0  0
 37 38  1  1  0  0  0
 37 40  1  0  0  0  0
 39 40  1  0  0  0  0
 39 41  1  1  0  0  0
 41 42  1  0  0  0  0
M  CHG  5   4   1  14   1  21   1  36   1  42   1
M  END
>  <CHROM.1>
-163.88580632,-69.92169380,-47.69412588,73.34353353,121.65960840,68.21712949
62.68279973,-179.72833530,66.54631382,-28.38548511,133.73195678,-24.77021221
-176.57599920,-73.37004074,59.89441827,-176.27041659,176.73729314,64.15184371
101.60743561,-143.05584978,57.77815655,57.26440889,3.00356456,1.96204205
37.57105850,-0.76546205,0.64950711,-1.06360367

>  <Name>
1pbr

>  <RI>
0

>  <Rbt.Current_Directory>
/home/itssahil/PROJECTS/Mol_Feturizer/New_Systems/rnas/1pbr

>  <Rbt.Executable>
rbdock ($Id: //depot/dev/client3/rdock/2013.1/src/exe/rbdock.cxx#4 $)

>  <Rbt.Library>
libRbt.so (2013.1, Build901 2013/11/27)

>  <Rbt.Parameter_File>
/export/apps/rDock/src/rDock_2013.1_src/data/scripts/dock_solv.prm

>  <Rbt.Receptor>
prm/blind_docking_60.prm

>  <SCORE>
-29.6379

>  <SCORE.INTER>
-38.5861

>  <SCORE.INTER.CONST>
1

>  <SCORE.INTER.POLAR>
-5.36125

>  <SCORE.INTER.ROT>
9

>  <SCORE.INTER.SOLV>
27.6302

>  <SCORE.INTER.VDW>
-26.6633

>  <SCORE.INTER.norm>
-0.918717

>  <SCORE.INTRA>
6.58348

>  <SCORE.INTRA.DIHEDRAL>
2.35422

>  <SCORE.INTRA.DIHEDRAL.0>
29.7866

>  <SCORE.INTRA.POLAR>
0.425201

>  <SCORE.INTRA.POLAR.0>
-0.984091

>  <SCORE.INTRA.REPUL>
-0.264335

>  <SCORE.INTRA.REPUL.0>
0.274115

>  <SCORE.INTRA.SOLV>
-0.233559

>  <SCORE.INTRA.SOLV.lig_0>
-152.978

>  <SCORE.INTRA.VDW>
5.39915

>  <SCORE.INTRA.VDW.0>
-6.10719

>  <SCORE.INTRA.norm>
0.15675

>  <SCORE.RESTR>
2.3647

>  <SCORE.RESTR.CAVITY>
2.3647

>  <SCORE.RESTR.norm>
0.0563024

>  <SCORE.SYSTEM>
0

>  <SCORE.SYSTEM.CONST>
0

>  <SCORE.SYSTEM.DIHEDRAL>
0

>  <SCORE.SYSTEM.SOLV>
0

>  <SCORE.SYSTEM.norm>
0

>  <SCORE.heavy>
42

>  <SCORE.norm>
-0.705665

>  <RMSD>
7.229

$$$$
1pbr
 OpenBabel11021811403D
libRbt.so/2013.1/901 2013/11/27
 42 45  0  0  0  0  0  0  0  0999 V2000
    4.2710    1.1371   39.6715 C   0  0  2  0  0  0  0  0  0  0  0  0
    4.7201   -0.1853   39.2808 O   0  0  0  0  0  0  0  0  0  0  0  0
    4.4865    1.3680   41.2138 C   0  0  2  0  0  0  0  0  0  0  0  0
    5.7743    0.8463   41.7409 N   0  3  0  0  0  0  0  0  0  0  0  0
    3.3771    0.7001   42.0478 C   0  0  1  0  0  0  0  0  0  0  0  0
    3.4336    1.1339   43.4050 O   0  0  0  0  0  0  0  0  0  0  0  0
    1.9885    1.0118   41.4695 C   0  0  2  0  0  0  0  0  0  0  0  0
    0.9745    0.4230   42.2778 O   0  0  0  0  0  0  0  0  0  0  0  0
    1.8990    0.5692   39.9921 C   0  0  2  0  0  0  0  0  0  0  0  0
    2.8876    1.3302   39.2662 O   0  0  0  0  0  0  0  0  0  0  0  0
    0.5401    0.8240   39.3422 C   0  0  0  0  0  0  0  0  0  0  0  0
    0.1929    2.2013   39.3973 O   0  0  0  0  0  0  0  0  0  0  0  0
    7.4004   -0.0746   35.9625 C   0  0  1  0  0  0  0  0  0  0  0  0
    8.0699   -0.1887   34.6538 N   0  3  0  0  0  0  0  0  0  0  0  0
    6.2117    0.9332   35.9316 C   0  0  2  0  0  0  0  0  0  0  0  0
    6.6672    2.2285   35.5477 O   0  0  0  0  0  0  0  0  0  0  0  0
    5.5297    1.0458   37.3266 C   0  0  1  0  0  0  0  0  0  0  0  0
    4.3303    1.8649   37.1942 O   0  0  0  0  0  0  0  0  0  0  0  0
    5.1418   -0.3539   37.9059 C   0  0  1  0  0  0  0  0  0  0  0  0
    6.3274   -1.3709   37.8804 C   0  0  1  0  0  0  0  0  0  0  0  0
    5.9044   -2.7119   38.3409 N   0  3  0  0  0  0  0  0  0  0  0  0
    6.9286   -1.4741   36.4547 C   0  0  0  0  0  0  0  0  0  0  0  0
    3.6287    1.9323   35.9116 C   0  0  1  0  0  0  0  0  0  0  0  0
    2.1856    1.4329   36.1120 C   0  0  2  0  0  0  0  0  0  0  0  0
    1.6448    0.9280   34.8944 O   0  0  0  0  0  0  0  0  0  0  0  0
    1.5295    2.7557   36.5358 C   0  0  1  0  0  0  0  0  0  0  0  0
    2.1461    3.7497   35.5656 C   0  0  2  0  0  0  0  0  0  0  0  0
    3.4902    3.3003   35.4888 O   0  0  0  0  0  0  0  0  0  0  0  0
    2.0989    5.2160   36.0144 C   0  0  0  0  0  0  0  0  0  0  0  0
    2.4379    6.0686   34.9306 O   0  0  0  0  0  0  0  0  0  0  0  0
   -2.1965    6.1565   34.9766 C   0  0  1  0  0  0  0  0  0  0  0  0
   -2.9779    5.3939   34.0588 O   0  0  0  0  0  0  0  0  0  0  0  0
   -2.5043    5.6904   36.4270 C   0  0  2  0  0  0  0  0  0  0  0  0
   -2.0227    6.6800   37.3333 O   0  0  0  0  0  0  0  0  0  0  0  0
   -1.9001    4.3047   36.8278 C   0  0  1  0  0  0  0  0  0  0  0  0
   -2.7985    3.2092   36.4016 N   0  3  0  0  0  0  0  0  0  0  0  0
   -0.4510    4.1320   36.3012 C   0  0  1  0  0  0  0  0  0  0  0  0
    0.0779    2.7922   36.4570 O   0  0  0  0  0  0  0  0  0  0  0  0
   -0.6871    5.9747   34.6775 C   0  0  1  0  0  0  0  0  0  0  0  0
   -0.3570    4.5773   34.9061 O   0  0  0  0  0  0  0  0  0  0  0  0
   -0.2757    6.4132   33.2596 C   0  0  0  0  0  0  0  0  0  0  0  0
    0.6905    7.5290   33.2658 N   0  3  0  0  0  0  0  0  0  0  0  0
  1  2  1  1  0  0  0
  1  3  1  0  0  0  0
  1 10  1  0  0  0  0
  3  4  1  1  0  0  0
  3  5  1  0  0  0  0
  5  6  1  1  0  0  0
  5  7  1  0  0  0  0
  7  8  1  1  0  0  0
  7  9  1  0  0  0  0
  9 10  1  0  0  0  0
  9 11  1  6  0  0  0
 11 12  1  0  0  0  0
 13 14  1  6  0  0  0
 13 15  1  0  0  0  0
 13 22  1  0  0  0  0
 15 16  1  1  0  0  0
 15 17  1  0  0  0  0
 17 18  1  6  0  0  0
 17 19  1  0  0  0  0
 19  2  1  1  0  0  0
 19 20  1  0  0  0  0
 20 21  1  6  0  0  0
 20 22  1  0  0  0  0
 23 18  1  1  0  0  0
 23 24  1  0  0  0  0
 23 28  1  0  0  0  0
 24 25  1  6  0  0  0
 24 26  1  0  0  0  0
 26 27  1  0  0  0  0
 26 38  1  6  0  0  0
 27 28  1  0  0  0  0
 27 29  1  1  0  0  0
 29 30  1  0  0  0  0
 31 32  1  6  0  0  0
 31 33  1  0  0  0  0
 31 39  1  0  0  0  0
 33 34  1  1  0  0  0
 33 35  1  0  0  0  0
 35 36  1  6  0  0  0
 35 37  1  0  0  0  0
 37 38  1  6  0  0  0
 37 40  1  0  0  0  0
 39 40  1  0  0  0  0
 39 41  1  6  0  0  0
 41 42  1  0  0  0  0
M  CHG  5   4   1  14   1  21   1  36   1  42   1
M  END
>  <CHROM.1>
-153.60119994,21.88645469,-56.70447118,61.80788270,176.55445854,58.08821595
-78.14136468,-46.75533747,-60.77041244,26.96511751,120.51009083,66.33391077
72.70468314,-155.18483666,-167.81292381,-57.98198022,171.19366099,76.30166227
105.54214280,-154.28954572,117.68536134,61.93339451,2.38522209,2.38824923
37.29612261,0.65512425,-0.49884785,2.00296455

>  <Name>
1pbr

>  <RI>
0

>  <Rbt.Current_Directory>
/home/itssahil/PROJECTS/Mol_Feturizer/New_Systems/rnas/1pbr

>  <Rbt.Executable>
rbdock ($Id: //depot/dev/client3/rdock/2013.1/src/exe/rbdock.cxx#4 $)

>  <Rbt.Library>
libRbt.so (2013.1, Build901 2013/11/27)

>  <Rbt.Parameter_File>
/export/apps/rDock/src/rDock_2013.1_src/data/scripts/dock_solv.prm

>  <Rbt.Receptor>
prm/blind_docking_80.prm

>  <SCORE>
-29.337

>  <SCORE.INTER>
-42.1264

>  <SCORE.INTER.CONST>
1

>  <SCORE.INTER.POLAR>
-5.54361

>  <SCORE.INTER.ROT>
9

>  <SCORE.INTER.SOLV>
30.344

>  <SCORE.INTER.VDW>
-29.3203

>  <SCORE.INTER.norm>
-1.00301

>  <SCORE.INTRA>
10.8366

>  <SCORE.INTRA.DIHEDRAL>
8.70775

>  <SCORE.INTRA.DIHEDRAL.0>
29.7866

>  <SCORE.INTRA.POLAR>
-0.154272

>  <SCORE.INTRA.POLAR.0>
-0.984091

>  <SCORE.INTRA.REPUL>
-0.178334

>  <SCORE.INTRA.REPUL.0>
0.274115

>  <SCORE.INTRA.SOLV>
-1.1703

>  <SCORE.INTRA.SOLV.lig_0>
-152.978

>  <SCORE.INTRA.VDW>
8.4841

>  <SCORE.INTRA.VDW.0>
-6.10719

>  <SCORE.INTRA.norm>
0.258015

>  <SCORE.RESTR>
1.95285

>  <SCORE.RESTR.CAVITY>
1.95285

>  <SCORE.RESTR.norm>
0.0464965

>  <SCORE.SYSTEM>
0

>  <SCORE.SYSTEM.CONST>
0

>  <SCORE.SYSTEM.DIHEDRAL>
0

>  <SCORE.SYSTEM.SOLV>
0

>  <SCORE.SYSTEM.norm>
0

>  <SCORE.heavy>
42

>  <SCORE.norm>
-0.698499

>  <RMSD>
7.250

$$$$
1pbr
 OpenBabel11021811403D
libRbt.so/2013.1/901 2013/11/27
 42 45  0  0  0  0  0  0  0  0999 V2000
    2.5220   -1.5506   40.2550 C   0  0  2  0  0  0  0  0  0  0  0  0
    1.7981   -2.5795   39.5335 O   0  0  0  0  0  0  0  0  0  0  0  0
    1.5283   -0.5023   40.8811 C   0  0  2  0  0  0  0  0  0  0  0  0
    0.3050   -1.0951   41.4814 N   0  3  0  0  0  0  0  0  0  0  0  0
    1.0438    0.5165   39.8324 C   0  0  1  0  0  0  0  0  0  0  0  0
    0.3652    1.6032   40.4584 O   0  0  0  0  0  0  0  0  0  0  0  0
    2.2191    1.0575   39.0043 C   0  0  2  0  0  0  0  0  0  0  0  0
    1.7582    2.0292   38.0708 O   0  0  0  0  0  0  0  0  0  0  0  0
    2.9877   -0.0978   38.3252 C   0  0  2  0  0  0  0  0  0  0  0  0
    3.5073   -0.9331   39.3814 O   0  0  0  0  0  0  0  0  0  0  0  0
    4.1643    0.3539   37.4618 C   0  0  0  0  0  0  0  0  0  0  0  0
    5.4055    0.0741   38.0954 O   0  0  0  0  0  0  0  0  0  0  0  0
    1.9512   -6.8318   39.2138 C   0  0  1  0  0  0  0  0  0  0  0  0
    2.1068   -8.2825   39.4265 N   0  3  0  0  0  0  0  0  0  0  0  0
    0.7699   -6.2374   40.0389 C   0  0  2  0  0  0  0  0  0  0  0  0
   -0.4550   -6.8754   39.6849 O   0  0  0  0  0  0  0  0  0  0  0  0
    0.6180   -4.7085   39.7879 C   0  0  1  0  0  0  0  0  0  0  0  0
   -0.3836   -4.1825   40.7082 O   0  0  0  0  0  0  0  0  0  0  0  0
    1.9656   -3.9424   39.9930 C   0  0  1  0  0  0  0  0  0  0  0  0
    3.1529   -4.5811   39.2036 C   0  0  1  0  0  0  0  0  0  0  0  0
    4.4316   -3.8960   39.4952 N   0  3  0  0  0  0  0  0  0  0  0  0
    3.2815   -6.0902   39.5360 C   0  0  0  0  0  0  0  0  0  0  0  0
   -0.6370   -4.8616   41.9796 C   0  0  1  0  0  0  0  0  0  0  0  0
    0.6663   -4.8744   42.8002 C   0  0  2  0  0  0  0  0  0  0  0  0
    0.6796   -5.9598   43.7231 O   0  0  0  0  0  0  0  0  0  0  0  0
    0.5224   -3.5155   43.5021 C   0  0  1  0  0  0  0  0  0  0  0  0
   -0.9433   -3.5108   43.9038 C   0  0  2  0  0  0  0  0  0  0  0  0
   -1.5661   -4.1040   42.7746 O   0  0  0  0  0  0  0  0  0  0  0  0
   -1.5418   -2.1247   44.1760 C   0  0  0  0  0  0  0  0  0  0  0  0
   -0.5054   -1.1873   44.4278 O   0  0  0  0  0  0  0  0  0  0  0  0
    5.0634   -1.1010   45.0923 C   0  0  1  0  0  0  0  0  0  0  0  0
    5.0420   -1.0845   46.5185 O   0  0  0  0  0  0  0  0  0  0  0  0
    5.1839   -2.5688   44.5956 C   0  0  2  0  0  0  0  0  0  0  0  0
    5.5761   -2.5530   43.2250 O   0  0  0  0  0  0  0  0  0  0  0  0
    3.8882   -3.4328   44.7382 C   0  0  1  0  0  0  0  0  0  0  0  0
    3.8046   -4.0144   46.0960 N   0  3  0  0  0  0  0  0  0  0  0  0
    2.6161   -2.6356   44.3472 C   0  0  1  0  0  0  0  0  0  0  0  0
    1.3747   -3.3129   44.6627 O   0  0  0  0  0  0  0  0  0  0  0  0
    3.7695   -0.4620   44.5283 C   0  0  1  0  0  0  0  0  0  0  0  0
    2.6505   -1.2938   44.9404 O   0  0  0  0  0  0  0  0  0  0  0  0
    3.5573    1.0009   44.9608 C   0  0  0  0  0  0  0  0  0  0  0  0
    3.7421    1.1989   46.4117 N   0  3  0  0  0  0  0  0  0  0  0  0
  1  2  1  6  0  0  0
  1  3  1  0  0  0  0
  1 10  1  0  0  0  0
  3  4  1  6  0  0  0
  3  5  1  0  0  0  0
  5  6  1  1  0  0  0
  5  7  1  0  0  0  0
  7  8  1  6  0  0  0
  7  9  1  0  0  0  0
  9 10  1  0  0  0  0
  9 11  1  1  0  0  0
 11 12  1  0  0  0  0
 13 14  1  1  0  0  0
 13 15  1  0  0  0  0
 13 22  1  0  0  0  0
 15 16  1  6  0  0  0
 15 17  1  0  0  0  0
 17 18  1  1  0  0  0
 17 19  1  0  0  0  0
 19  2  1  6  0  0  0
 19 20  1  0  0  0  0
 20 21  1  1  0  0  0
 20 22  1  0  0  0  0
 23 18  1  6  0  0  0
 23 24  1  0  0  0  0
 23 28  1  0  0  0  0
 24 25  1  1  0  0  0
 24 26  1  0  0  0  0
 26 27  1  0  0  0  0
 26 38  1  1  0  0  0
 27 28  1  0  0  0  0
 27 29  1  6  0  0  0
 29 30  1  0  0  0  0
 31 32  1  1  0  0  0
 31 33  1  0  0  0  0
 31 39  1  0  0  0  0
 33 34  1  6  0  0  0
 33 35  1  0  0  0  0
 35 36  1  1  0  0  0
 35 37  1  0  0  0  0
 37 38  1  1  0  0  0
 37 40  1  0  0  0  0
 39 40  1  0  0  0  0
 39 41  1  1  0  0  0
 41 42  1  0  0  0  0
M  CHG  5   4   1  14   1  21   1  36   1  42   1
M  END
>  <CHROM.1>
-119.68322829,145.73652525,109.30907259,-168.47266327,-60.07333569,106.18591803
-88.02196538,71.82833779,179.96333556,25.86283937,60.19328405,68.31655735
-174.10567715,94.38078984,-19.47032456,-57.93285069,-49.54448221,76.96181473
-8.06719961,-122.40085885,-48.10422764,-114.24527686,2.10464371,-2.53214806
41.86969085,-2.57318669,1.17593164,1.73912327

>  <Name>
1pbr

>  <RI>
0

>  <Rbt.Current_Directory>
/home/itssahil/PROJECTS/Mol_Feturizer/New_Systems/rnas/1pbr

>  <Rbt.Executable>
rbdock ($Id: //depot/dev/client3/rdock/2013.1/src/exe/rbdock.cxx#4 $)

>  <Rbt.Library>
libRbt.so (2013.1, Build901 2013/11/27)

>  <Rbt.Parameter_File>
/export/apps/rDock/src/rDock_2013.1_src/data/scripts/dock_solv.prm

>  <Rbt.Receptor>
prm/pocket_docking_3.prm

>  <SCORE>
-11.374

>  <SCORE.INTER>
-19.8925

>  <SCORE.INTER.CONST>
1

>  <SCORE.INTER.POLAR>
-3.01184

>  <SCORE.INTER.ROT>
9

>  <SCORE.INTER.SOLV>
25.0787

>  <SCORE.INTER.VDW>
-21.1818

>  <SCORE.INTER.norm>
-0.47363

>  <SCORE.INTRA>
7.3941

>  <SCORE.INTRA.DIHEDRAL>
23.6066

>  <SCORE.INTRA.DIHEDRAL.0>
29.7866

>  <SCORE.INTRA.POLAR>
-2.98518

>  <SCORE.INTRA.POLAR.0>
-0.984091

>  <SCORE.INTRA.REPUL>
-0.274115

>  <SCORE.INTRA.REPUL.0>
0.274115

>  <SCORE.INTRA.SOLV>
9.95612

>  <SCORE.INTRA.SOLV.lig_0>
-152.978

>  <SCORE.INTRA.VDW>
2.1329

>  <SCORE.INTRA.VDW.0>
-6.10719

>  <SCORE.INTRA.norm>
0.17605

>  <SCORE.RESTR>
1.12433

>  <SCORE.RESTR.CAVITY>
1.12433

>  <SCORE.RESTR.norm>
0.0267698

>  <SCORE.SYSTEM>
0

>  <SCORE.SYSTEM.CONST>
0

>  <SCORE.SYSTEM.DIHEDRAL>
0

>  <SCORE.SYSTEM.SOLV>
0

>  <SCORE.SYSTEM.norm>
0

>  <SCORE.heavy>
42

>  <SCORE.norm>
-0.27081

>  <RMSD>
7.252

$$$$
1pbr
 OpenBabel11021811403D
libRbt.so/2013.1/901 2013/11/27
 42 45  0  0  0  0  0  0  0  0999 V2000
    5.8473   -0.8000   39.2152 C   0  0  2  0  0  0  0  0  0  0  0  0
    5.4111    0.5822   39.1664 O   0  0  0  0  0  0  0  0  0  0  0  0
    6.7029   -1.1616   37.9442 C   0  0  2  0  0  0  0  0  0  0  0  0
    7.6607   -0.1056   37.5253 N   0  3  0  0  0  0  0  0  0  0  0  0
    5.8102   -1.4438   36.7211 C   0  0  1  0  0  0  0  0  0  0  0  0
    6.5705   -2.0215   35.6621 O   0  0  0  0  0  0  0  0  0  0  0  0
    4.6511   -2.3826   37.0886 C   0  0  2  0  0  0  0  0  0  0  0  0
    3.8629   -2.6666   35.9370 O   0  0  0  0  0  0  0  0  0  0  0  0
    3.8158   -1.7934   38.2469 C   0  0  2  0  0  0  0  0  0  0  0  0
    4.6987   -1.6763   39.3827 O   0  0  0  0  0  0  0  0  0  0  0  0
    2.6258   -2.6559   38.6640 C   0  0  0  0  0  0  0  0  0  0  0  0
    1.5643   -2.5584   37.7236 O   0  0  0  0  0  0  0  0  0  0  0  0
    3.1175    0.3624   42.7580 C   0  0  1  0  0  0  0  0  0  0  0  0
    2.3775    0.6218   44.0066 N   0  3  0  0  0  0  0  0  0  0  0  0
    2.4039    0.9687   41.5118 C   0  0  2  0  0  0  0  0  0  0  0  0
    1.0928    0.4256   41.3759 O   0  0  0  0  0  0  0  0  0  0  0  0
    3.1970    0.6708   40.2057 C   0  0  1  0  0  0  0  0  0  0  0  0
    2.5767    1.4022   39.1069 O   0  0  0  0  0  0  0  0  0  0  0  0
    4.7001    1.0856   40.3230 C   0  0  1  0  0  0  0  0  0  0  0  0
    5.3883    0.5161   41.6048 C   0  0  1  0  0  0  0  0  0  0  0  0
    6.7781    1.0059   41.7397 N   0  3  0  0  0  0  0  0  0  0  0  0
    4.5776    0.8901   42.8726 C   0  0  0  0  0  0  0  0  0  0  0  0
    1.4077    0.8449   38.4253 C   0  0  1  0  0  0  0  0  0  0  0  0
    0.2691    1.8810   38.4719 C   0  0  2  0  0  0  0  0  0  0  0  0
   -1.0036    1.2480   38.3744 O   0  0  0  0  0  0  0  0  0  0  0  0
    0.6194    2.6811   37.2082 C   0  0  1  0  0  0  0  0  0  0  0  0
    0.9691    1.5844   36.2158 C   0  0  2  0  0  0  0  0  0  0  0  0
    1.6844    0.6637   37.0253 O   0  0  0  0  0  0  0  0  0  0  0  0
    1.8298    2.0296   35.0264 C   0  0  0  0  0  0  0  0  0  0  0  0
    3.0234    2.6425   35.4911 O   0  0  0  0  0  0  0  0  0  0  0  0
    0.1890    7.0534   34.2637 C   0  0  1  0  0  0  0  0  0  0  0  0
   -0.4110    7.9582   35.1889 O   0  0  0  0  0  0  0  0  0  0  0  0
    1.4510    6.4168   34.9101 C   0  0  2  0  0  0  0  0  0  0  0  0
    2.2370    5.8219   33.8801 O   0  0  0  0  0  0  0  0  0  0  0  0
    1.1701    5.3433   36.0121 C   0  0  1  0  0  0  0  0  0  0  0  0
    0.9611    5.9950   37.3237 N   0  3  0  0  0  0  0  0  0  0  0  0
    0.0024    4.4013   35.6169 C   0  0  1  0  0  0  0  0  0  0  0  0
   -0.4401    3.5292   36.6859 O   0  0  0  0  0  0  0  0  0  0  0  0
   -0.8159    5.9412   33.8715 C   0  0  1  0  0  0  0  0  0  0  0  0
   -1.1176    5.1760   35.0704 O   0  0  0  0  0  0  0  0  0  0  0  0
   -2.1055    6.4697   33.2160 C   0  0  0  0  0  0  0  0  0  0  0  0
   -3.1181    5.4142   33.0177 N   0  3  0  0  0  0  0  0  0  0  0  0
  1  2  1  6  0  0  0
  1  3  1  0  0  0  0
  1 10  1  0  0  0  0
  3  4  1  6  0  0  0
  3  5  1  0  0  0  0
  5  6  1  6  0  0  0
  5  7  1  0  0  0  0
  7  8  1  6  0  0  0
  7  9  1  0  0  0  0
  9 10  1  0  0  0  0
  9 11  1  1  0  0  0
 11 12  1  0  0  0  0
 13 14  1  1  0  0  0
 13 15  1  0  0  0  0
 13 22  1  0  0  0  0
 15 16  1  6  0  0  0
 15 17  1  0  0  0  0
 17 18  1  6  0  0  0
 17 19  1  0  0  0  0
 19  2  1  6  0  0  0
 19 20  1  0  0  0  0
 20 21  1  1  0  0  0
 20 22  1  0  0  0  0
 23 18  1  1  0  0  0
 23 24  1  0  0  0  0
 23 28  1  0  0  0  0
 24 25  1  6  0  0  0
 24 26  1  0  0  0  0
 26 27  1  0  0  0  0
 26 38  1  6  0  0  0
 27 28  1  0  0  0  0
 27 29  1  6  0  0  0
 29 30  1  0  0  0  0
 31 32  1  1  0  0  0
 31 33  1  0  0  0  0
 31 39  1  0  0  0  0
 33 34  1  6  0  0  0
 33 35  1  0  0  0  0
 35 36  1  1  0  0  0
 35 37  1  0  0  0  0
 37 38  1  1  0  0  0
 37 40  1  0  0  0  0
 39 40  1  0  0  0  0
 39 41  1  1  0  0  0
 41 42  1  0  0  0  0
M  CHG  5   4   1  14   1  21   1  36   1  42   1
M  END
>  <CHROM.1>
-175.34336156,-82.81054949,-24.66508854,-72.30247672,173.67370899,-75.35656643
170.22808569,-51.07269265,69.63701832,-82.79242579,124.85242078,34.99440658
65.42080198,171.57291762,55.77821903,-164.36092102,62.60521244,65.04646956
-168.65524230,-57.90512681,-172.32134287,-56.85390416,2.42117006,1.73181393
37.69889051,-0.62452593,0.84146065,-1.46541730

>  <Name>
1pbr

>  <RI>
0

>  <Rbt.Current_Directory>
/home/itssahil/PROJECTS/Mol_Feturizer/New_Systems/rnas/1pbr

>  <Rbt.Executable>
rbdock ($Id: //depot/dev/client3/rdock/2013.1/src/exe/rbdock.cxx#4 $)

>  <Rbt.Library>
libRbt.so (2013.1, Build901 2013/11/27)

>  <Rbt.Parameter_File>
/export/apps/rDock/src/rDock_2013.1_src/data/scripts/dock_solv.prm

>  <Rbt.Receptor>
prm/blind_docking_80.prm

>  <SCORE>
-39.0568

>  <SCORE.INTER>
-41.5767

>  <SCORE.INTER.CONST>
1

>  <SCORE.INTER.POLAR>
-6.80961

>  <SCORE.INTER.ROT>
9

>  <SCORE.INTER.SOLV>
38.288

>  <SCORE.INTER.VDW>
-27.3818

>  <SCORE.INTER.norm>
-0.989921

>  <SCORE.INTRA>
-1.25121

>  <SCORE.INTRA.DIHEDRAL>
-8.40208

>  <SCORE.INTRA.DIHEDRAL.0>
29.7866

>  <SCORE.INTRA.POLAR>
0.828152

>  <SCORE.INTRA.POLAR.0>
-0.984091

>  <SCORE.INTRA.REPUL>
-0.147198

>  <SCORE.INTRA.REPUL.0>
0.274115

>  <SCORE.INTRA.SOLV>
-0.761428

>  <SCORE.INTRA.SOLV.lig_0>
-152.978

>  <SCORE.INTRA.VDW>
1.25081

>  <SCORE.INTRA.VDW.0>
-6.10719

>  <SCORE.INTRA.norm>
-0.0297908

>  <SCORE.RESTR>
3.77108

>  <SCORE.RESTR.CAVITY>
3.77108

>  <SCORE.RESTR.norm>
0.0897877

>  <SCORE.SYSTEM>
0

>  <SCORE.SYSTEM.CONST>
0

>  <SCORE.SYSTEM.DIHEDRAL>
0

>  <SCORE.SYSTEM.SOLV>
0

>  <SCORE.SYSTEM.norm>
0

>  <SCORE.heavy>
42

>  <SCORE.norm>
-0.929925

>  <RMSD>
7.266

$$$$
1pbr
 OpenBabel11021811403D
libRbt.so/2013.1/901 2013/11/27
 42 45  0  0  0  0  0  0  0  0999 V2000
    1.4960    1.0553   39.0161 C   0  0  2  0  0  0  0  0  0  0  0  0
    1.6096   -0.3655   38.7487 O   0  0  0  0  0  0  0  0  0  0  0  0
    0.5089    1.3221   40.2130 C   0  0  2  0  0  0  0  0  0  0  0  0
    0.6449    0.3718   41.3474 N   0  3  0  0  0  0  0  0  0  0  0  0
   -0.9622    1.2478   39.7624 C   0  0  1  0  0  0  0  0  0  0  0  0
   -1.8287    1.7463   40.7791 O   0  0  0  0  0  0  0  0  0  0  0  0
   -1.1835    2.0438   38.4674 C   0  0  2  0  0  0  0  0  0  0  0  0
   -2.5561    1.9999   38.0904 O   0  0  0  0  0  0  0  0  0  0  0  0
   -0.2459    1.5395   37.3479 C   0  0  2  0  0  0  0  0  0  0  0  0
    1.1061    1.7579   37.8038 O   0  0  0  0  0  0  0  0  0  0  0  0
   -0.4147    2.2651   36.0141 C   0  0  0  0  0  0  0  0  0  0  0  0
    0.2823    1.5956   34.9717 O   0  0  0  0  0  0  0  0  0  0  0  0
    5.5458   -1.4899   37.5447 C   0  0  1  0  0  0  0  0  0  0  0  0
    6.7552   -1.9379   36.8302 N   0  3  0  0  0  0  0  0  0  0  0  0
    5.0190   -0.1223   37.0139 C   0  0  2  0  0  0  0  0  0  0  0  0
    6.0193    0.8841   37.1529 O   0  0  0  0  0  0  0  0  0  0  0  0
    3.7504    0.3352   37.7917 C   0  0  1  0  0  0  0  0  0  0  0  0
    3.2096    1.5242   37.1430 O   0  0  0  0  0  0  0  0  0  0  0  0
    2.6533   -0.7782   37.8339 C   0  0  1  0  0  0  0  0  0  0  0  0
    3.2069   -2.1574   38.3155 C   0  0  1  0  0  0  0  0  0  0  0  0
    2.1715   -3.2125   38.2501 N   0  3  0  0  0  0  0  0  0  0  0  0
    4.4359   -2.5790   37.4692 C   0  0  0  0  0  0  0  0  0  0  0  0
    3.5685    2.8541   37.6374 C   0  0  1  0  0  0  0  0  0  0  0  0
    3.9560    3.7384   36.4374 C   0  0  2  0  0  0  0  0  0  0  0  0
    4.8340    4.7871   36.8366 O   0  0  0  0  0  0  0  0  0  0  0  0
    2.5606    4.2592   36.0613 C   0  0  1  0  0  0  0  0  0  0  0  0
    1.9562    4.5786   37.4186 C   0  0  2  0  0  0  0  0  0  0  0  0
    2.4200    3.4994   38.2154 O   0  0  0  0  0  0  0  0  0  0  0  0
    0.4239    4.6460   37.4519 C   0  0  0  0  0  0  0  0  0  0  0  0
    0.0012    5.7144   38.2863 O   0  0  0  0  0  0  0  0  0  0  0  0
   -1.0301    7.6243   34.1287 C   0  0  1  0  0  0  0  0  0  0  0  0
   -0.4972    8.9076   34.4512 O   0  0  0  0  0  0  0  0  0  0  0  0
   -0.2139    7.0065   32.9592 C   0  0  2  0  0  0  0  0  0  0  0  0
   -0.9619    5.9269   32.4047 O   0  0  0  0  0  0  0  0  0  0  0  0
    1.2122    6.4881   33.3379 C   0  0  1  0  0  0  0  0  0  0  0  0
    2.1915    7.5961   33.2913 N   0  3  0  0  0  0  0  0  0  0  0  0
    1.2136    5.7424   34.6984 C   0  0  1  0  0  0  0  0  0  0  0  0
    2.5368    5.4299   35.1989 O   0  0  0  0  0  0  0  0  0  0  0  0
   -0.9654    6.6901   35.3631 C   0  0  1  0  0  0  0  0  0  0  0  0
    0.4365    6.4910   35.6930 O   0  0  0  0  0  0  0  0  0  0  0  0
   -1.7494    7.2124   36.5815 C   0  0  0  0  0  0  0  0  0  0  0  0
   -2.6660    6.2022   37.1453 N   0  3  0  0  0  0  0  0  0  0  0  0
  1  2  1  6  0  0  0
  1  3  1  0  0  0  0
  1 10  1  0  0  0  0
  3  4  1  1  0  0  0
  3  5  1  0  0  0  0
  5  6  1  1  0  0  0
  5  7  1  0  0  0  0
  7  8  1  6  0  0  0
  7  9  1  0  0  0  0
  9 10  1  0  0  0  0
  9 11  1  6  0  0  0
 11 12  1  0  0  0  0
 13 14  1  6  0  0  0
 13 15  1  0  0  0  0
 13 22  1  0  0  0  0
 15 16  1  1  0  0  0
 15 17  1  0  0  0  0
 17 18  1  6  0  0  0
 17 19  1  0  0  0  0
 19  2  1  1  0  0  0
 19 20  1  0  0  0  0
 20 21  1  6  0  0  0
 20 22  1  0  0  0  0
 23 18  1  6  0  0  0
 23 24  1  0  0  0  0
 23 28  1  0  0  0  0
 24 25  1  1  0  0  0
 24 26  1  0  0  0  0
 26 27  1  0  0  0  0
 26 38  1  6  0  0  0
 27 28  1  0  0  0  0
 27 29  1  6  0  0  0
 29 30  1  0  0  0  0
 31 32  1  1  0  0  0
 31 33  1  0  0  0  0
 31 39  1  0  0  0  0
 33 34  1  1  0  0  0
 33 35  1  0  0  0  0
 35 36  1  1  0  0  0
 35 37  1  0  0  0  0
 37 38  1  1  0  0  0
 37 40  1  0  0  0  0
 39 40  1  0  0  0  0
 39 41  1  1  0  0  0
 41 42  1  0  0  0  0
M  CHG  5   4   1  14   1  21   1  36   1  42   1
M  END
>  <CHROM.1>
-169.58601483,22.21497800,63.05789915,173.84176031,-53.32467355,-168.89528894
-143.89544059,111.14231346,77.73963075,-95.33572827,133.15974431,159.50475267
96.04116981,170.34506875,-140.43487133,-56.30305698,-64.52526464,-173.14145950
80.61181722,-152.78760343,129.34814243,67.71853862,1.42396010,2.93107110
36.94204790,1.12239280,-0.42313792,2.53312083

>  <Name>
1pbr

>  <RI>
0

>  <Rbt.Current_Directory>
/home/itssahil/PROJECTS/Mol_Feturizer/New_Systems/rnas/1pbr

>  <Rbt.Executable>
rbdock ($Id: //depot/dev/client3/rdock/2013.1/src/exe/rbdock.cxx#4 $)

>  <Rbt.Library>
libRbt.so (2013.1, Build901 2013/11/27)

>  <Rbt.Parameter_File>
/export/apps/rDock/src/rDock_2013.1_src/data/scripts/dock_solv.prm

>  <Rbt.Receptor>
prm/blind_docking_80.prm

>  <SCORE>
-2.2744

>  <SCORE.INTER>
-28.1262

>  <SCORE.INTER.CONST>
1

>  <SCORE.INTER.POLAR>
-5.73451

>  <SCORE.INTER.ROT>
9

>  <SCORE.INTER.SOLV>
40.8201

>  <SCORE.INTER.VDW>
-22.8425

>  <SCORE.INTER.norm>
-0.669671

>  <SCORE.INTRA>
24.4289

>  <SCORE.INTRA.DIHEDRAL>
16.8581

>  <SCORE.INTRA.DIHEDRAL.0>
29.7866

>  <SCORE.INTRA.POLAR>
0.670716

>  <SCORE.INTRA.POLAR.0>
-0.984091

>  <SCORE.INTRA.REPUL>
-0.274115

>  <SCORE.INTRA.REPUL.0>
0.274115

>  <SCORE.INTRA.SOLV>
-0.190034

>  <SCORE.INTRA.SOLV.lig_0>
-152.978

>  <SCORE.INTRA.VDW>
15.185

>  <SCORE.INTRA.VDW.0>
-6.10719

>  <SCORE.INTRA.norm>
0.58164

>  <SCORE.RESTR>
1.4229

>  <SCORE.RESTR.CAVITY>
1.4229

>  <SCORE.RESTR.norm>
0.0338785

>  <SCORE.SYSTEM>
0

>  <SCORE.SYSTEM.CONST>
0

>  <SCORE.SYSTEM.DIHEDRAL>
0

>  <SCORE.SYSTEM.SOLV>
0

>  <SCORE.SYSTEM.norm>
0

>  <SCORE.heavy>
42

>  <SCORE.norm>
-0.0541523

>  <RMSD>
7.295

$$$$
1pbr
 OpenBabel11021811403D
libRbt.so/2013.1/901 2013/11/27
 42 45  0  0  0  0  0  0  0  0999 V2000
    5.7238   -0.7125   39.0741 C   0  0  2  0  0  0  0  0  0  0  0  0
    5.2833    0.6692   39.0675 O   0  0  0  0  0  0  0  0  0  0  0  0
    6.4815   -1.0643   37.7398 C   0  0  2  0  0  0  0  0  0  0  0  0
    7.4036   -0.0038   37.2568 N   0  3  0  0  0  0  0  0  0  0  0  0
    5.4994   -1.3402   36.5857 C   0  0  1  0  0  0  0  0  0  0  0  0
    6.1784   -1.9096   35.4686 O   0  0  0  0  0  0  0  0  0  0  0  0
    4.3727   -2.2834   37.0334 C   0  0  2  0  0  0  0  0  0  0  0  0
    3.5001   -2.5614   35.9427 O   0  0  0  0  0  0  0  0  0  0  0  0
    3.6264   -1.7033   38.2553 C   0  0  2  0  0  0  0  0  0  0  0  0
    4.5923   -1.5920   39.3220 O   0  0  0  0  0  0  0  0  0  0  0  0
    2.4724   -2.5706   38.7553 C   0  0  0  0  0  0  0  0  0  0  0  0
    1.5066   -2.7818   37.7339 O   0  0  0  0  0  0  0  0  0  0  0  0
    2.9437    0.3042   42.6173 C   0  0  1  0  0  0  0  0  0  0  0  0
    2.1797    0.5144   43.8607 N   0  3  0  0  0  0  0  0  0  0  0  0
    2.2340    0.9250   41.3761 C   0  0  2  0  0  0  0  0  0  0  0  0
    0.9384    0.3548   41.2068 O   0  0  0  0  0  0  0  0  0  0  0  0
    3.0528    0.6792   40.0751 C   0  0  1  0  0  0  0  0  0  0  0  0
    2.4313    1.4233   38.9856 O   0  0  0  0  0  0  0  0  0  0  0  0
    4.5437    1.1261   40.2255 C   0  0  1  0  0  0  0  0  0  0  0  0
    5.2267    0.5407   41.5028 C   0  0  1  0  0  0  0  0  0  0  0  0
    6.6022    1.0595   41.6710 N   0  3  0  0  0  0  0  0  0  0  0  0
    4.3889    0.8631   42.7672 C   0  0  0  0  0  0  0  0  0  0  0  0
    1.2862    0.8559   38.2724 C   0  0  1  0  0  0  0  0  0  0  0  0
    0.3003    1.9914   37.9398 C   0  0  2  0  0  0  0  0  0  0  0  0
   -1.0258    1.4914   37.7925 O   0  0  0  0  0  0  0  0  0  0  0  0
    0.9017    2.4486   36.6022 C   0  0  1  0  0  0  0  0  0  0  0  0
    1.2146    1.1280   35.9183 C   0  0  2  0  0  0  0  0  0  0  0  0
    1.6989    0.3397   36.9947 O   0  0  0  0  0  0  0  0  0  0  0  0
    2.2616    1.2036   34.7994 C   0  0  0  0  0  0  0  0  0  0  0  0
    2.5738   -0.1015   34.3352 O   0  0  0  0  0  0  0  0  0  0  0  0
    0.4184    7.3741   34.4776 C   0  0  1  0  0  0  0  0  0  0  0  0
   -0.6060    7.2974   33.4880 O   0  0  0  0  0  0  0  0  0  0  0  0
   -0.2036    7.1398   35.8826 C   0  0  2  0  0  0  0  0  0  0  0  0
    0.7261    7.5807   36.8694 O   0  0  0  0  0  0  0  0  0  0  0  0
   -0.6090    5.6626   36.1978 C   0  0  1  0  0  0  0  0  0  0  0  0
   -1.9620    5.3771   35.6716 N   0  3  0  0  0  0  0  0  0  0  0  0
    0.4557    4.6516   35.6967 C   0  0  1  0  0  0  0  0  0  0  0  0
    0.0352    3.2670   35.7691 O   0  0  0  0  0  0  0  0  0  0  0  0
    1.5102    6.3093   34.2042 C   0  0  1  0  0  0  0  0  0  0  0  0
    0.8935    4.9997   34.3401 O   0  0  0  0  0  0  0  0  0  0  0  0
    2.1945    6.4566   32.8323 C   0  0  0  0  0  0  0  0  0  0  0  0
    2.5661    5.1575   32.2382 N   0  3  0  0  0  0  0  0  0  0  0  0
  1  2  1  6  0  0  0
  1  3  1  0  0  0  0
  1 10  1  0  0  0  0
  3  4  1  6  0  0  0
  3  5  1  0  0  0  0
  5  6  1  6  0  0  0
  5  7  1  0  0  0  0
  7  8  1  6  0  0  0
  7  9  1  0  0  0  0
  9 10  1  0  0  0  0
  9 11  1  1  0  0  0
 11 12  1  0  0  0  0
 13 14  1  1  0  0  0
 13 15  1  0  0  0  0
 13 22  1  0  0  0  0
 15 16  1  6  0  0  0
 15 17  1  0  0  0  0
 17 18  1  6  0  0  0
 17 19  1  0  0  0  0
 19  2  1  6  0  0  0
 19 20  1  0  0  0  0
 20 21  1  1  0  0  0
 20 22  1  0  0  0  0
 23 18  1  6  0  0  0
 23 24  1  0  0  0  0
 23 28  1  0  0  0  0
 24 25  1  6  0  0  0
 24 26  1  0  0  0  0
 26 27  1  0  0  0  0
 26 38  1  6  0  0  0
 27 28  1  0  0  0  0
 27 29  1  6  0  0  0
 29 30  1  0  0  0  0
 31 32  1  6  0  0  0
 31 33  1  0  0  0  0
 31 39  1  0  0  0  0
 33 34  1  1  0  0  0
 33 35  1  0  0  0  0
 35 36  1  6  0  0  0
 35 37  1  0  0  0  0
 37 38  1  6  0  0  0
 37 40  1  0  0  0  0
 39 40  1  0  0  0  0
 39 41  1  6  0  0  0
 41 42  1  0  0  0  0
M  CHG  5   4   1  14   1  21   1  36   1  42   1
M  END
>  <CHROM.1>
178.71948807,-81.36159152,-21.41748317,57.60399759,59.92257160,-58.44952899
168.79864390,170.32834490,167.88935938,-82.81288298,142.42242906,-80.81034533
-170.83841084,109.09773632,173.83262036,63.56572867,178.54031337,-59.57926159
-43.82552357,-120.83776157,-145.72504385,34.26981674,2.50720196,1.67021955
37.50533270,-0.72840399,0.93564219,-1.38446501

>  <Name>
1pbr

>  <RI>
0

>  <Rbt.Current_Directory>
/home/itssahil/PROJECTS/Mol_Feturizer/New_Systems/rnas/1pbr

>  <Rbt.Executable>
rbdock ($Id: //depot/dev/client3/rdock/2013.1/src/exe/rbdock.cxx#4 $)

>  <Rbt.Library>
libRbt.so (2013.1, Build901 2013/11/27)

>  <Rbt.Parameter_File>
/export/apps/rDock/src/rDock_2013.1_src/data/scripts/dock_solv.prm

>  <Rbt.Receptor>
prm/blind_docking_60.prm

>  <SCORE>
-37.6131

>  <SCORE.INTER>
-41.8151

>  <SCORE.INTER.CONST>
1

>  <SCORE.INTER.POLAR>
-5.95055

>  <SCORE.INTER.ROT>
9

>  <SCORE.INTER.SOLV>
34.1685

>  <SCORE.INTER.VDW>
-29.0311

>  <SCORE.INTER.norm>
-0.995598

>  <SCORE.INTRA>
3.39904

>  <SCORE.INTRA.DIHEDRAL>
4.72843

>  <SCORE.INTRA.DIHEDRAL.0>
29.7866

>  <SCORE.INTRA.POLAR>
0.654042

>  <SCORE.INTRA.POLAR.0>
-0.984091

>  <SCORE.INTRA.REPUL>
-0.259632

>  <SCORE.INTRA.REPUL.0>
0.274115

>  <SCORE.INTRA.SOLV>
-1.81325

>  <SCORE.INTRA.SOLV.lig_0>
-152.978

>  <SCORE.INTRA.VDW>
1.01586

>  <SCORE.INTRA.VDW.0>
-6.10719

>  <SCORE.INTRA.norm>
0.0809296

>  <SCORE.RESTR>
0.802971

>  <SCORE.RESTR.CAVITY>
0.802971

>  <SCORE.RESTR.norm>
0.0191184

>  <SCORE.SYSTEM>
0

>  <SCORE.SYSTEM.CONST>
0

>  <SCORE.SYSTEM.DIHEDRAL>
0

>  <SCORE.SYSTEM.SOLV>
0

>  <SCORE.SYSTEM.norm>
0

>  <SCORE.heavy>
42

>  <SCORE.norm>
-0.89555

>  <RMSD>
7.427

$$$$
1pbr
 OpenBabel11021811403D
libRbt.so/2013.1/901 2013/11/27
 42 45  0  0  0  0  0  0  0  0999 V2000
    5.7977   -0.6487   39.0901 C   0  0  2  0  0  0  0  0  0  0  0  0
    5.2887    0.7069   39.0101 O   0  0  0  0  0  0  0  0  0  0  0  0
    6.6235   -1.0131   37.8004 C   0  0  2  0  0  0  0  0  0  0  0  0
    7.5091    0.0740   37.3081 N   0  3  0  0  0  0  0  0  0  0  0  0
    5.7023   -1.3849   36.6232 C   0  0  1  0  0  0  0  0  0  0  0  0
    6.4521   -1.9620   35.5564 O   0  0  0  0  0  0  0  0  0  0  0  0
    4.6079   -2.3670   37.0678 C   0  0  2  0  0  0  0  0  0  0  0  0
    3.7937   -2.7328   35.9581 O   0  0  0  0  0  0  0  0  0  0  0  0
    3.7863   -1.7787   38.2363 C   0  0  2  0  0  0  0  0  0  0  0  0
    4.7032   -1.5753   39.3323 O   0  0  0  0  0  0  0  0  0  0  0  0
    2.6589   -2.6844   38.7289 C   0  0  0  0  0  0  0  0  0  0  0  0
    1.7052   -2.9243   37.7025 O   0  0  0  0  0  0  0  0  0  0  0  0
    2.8453    0.3778   42.4928 C   0  0  1  0  0  0  0  0  0  0  0  0
    2.0337    0.6021   43.7031 N   0  3  0  0  0  0  0  0  0  0  0  0
    2.1573    0.9332   41.2092 C   0  0  2  0  0  0  0  0  0  0  0  0
    0.8876    0.3138   41.0175 O   0  0  0  0  0  0  0  0  0  0  0  0
    3.0267    0.6733   39.9443 C   0  0  1  0  0  0  0  0  0  0  0  0
    2.4175    1.3599   38.8109 O   0  0  0  0  0  0  0  0  0  0  0  0
    4.4962    1.1757   40.1275 C   0  0  1  0  0  0  0  0  0  0  0  0
    5.1551    0.6559   41.4452 C   0  0  1  0  0  0  0  0  0  0  0  0
    6.5063    1.2267   41.6401 N   0  3  0  0  0  0  0  0  0  0  0  0
    4.2654    0.9904   42.6703 C   0  0  0  0  0  0  0  0  0  0  0  0
    1.2175    0.8081   38.1807 C   0  0  1  0  0  0  0  0  0  0  0  0
    0.3771    1.9699   37.6184 C   0  0  2  0  0  0  0  0  0  0  0  0
   -0.9983    1.6094   37.5269 O   0  0  0  0  0  0  0  0  0  0  0  0
    1.0379    2.0991   36.2376 C   0  0  1  0  0  0  0  0  0  0  0  0
    1.1948    0.6477   35.8153 C   0  0  2  0  0  0  0  0  0  0  0  0
    1.5739    0.0204   37.0309 O   0  0  0  0  0  0  0  0  0  0  0  0
    2.2507    0.3928   34.7319 C   0  0  0  0  0  0  0  0  0  0  0  0
    3.5365    0.7621   35.2081 O   0  0  0  0  0  0  0  0  0  0  0  0
   -1.7256    6.6493   35.6732 C   0  0  1  0  0  0  0  0  0  0  0  0
   -2.8928    6.2650   34.9489 O   0  0  0  0  0  0  0  0  0  0  0  0
   -1.6032    5.7770   36.9538 C   0  0  2  0  0  0  0  0  0  0  0  0
   -0.6770    6.4004   37.8404 O   0  0  0  0  0  0  0  0  0  0  0  0
   -1.1546    4.2977   36.7163 C   0  0  1  0  0  0  0  0  0  0  0  0
   -2.3229    3.4528   36.3846 N   0  3  0  0  0  0  0  0  0  0  0  0
   -0.0231    4.1995   35.6594 C   0  0  1  0  0  0  0  0  0  0  0  0
    0.2814    2.8451   35.2448 O   0  0  0  0  0  0  0  0  0  0  0  0
   -0.4633    6.4675   34.7933 C   0  0  1  0  0  0  0  0  0  0  0  0
   -0.3282    5.0494   34.5027 O   0  0  0  0  0  0  0  0  0  0  0  0
   -0.4838    7.2965   33.4955 C   0  0  0  0  0  0  0  0  0  0  0  0
    0.7835    7.2103   32.7439 N   0  3  0  0  0  0  0  0  0  0  0  0
  1  2  1  6  0  0  0
  1  3  1  0  0  0  0
  1 10  1  0  0  0  0
  3  4  1  6  0  0  0
  3  5  1  0  0  0  0
  5  6  1  6  0  0  0
  5  7  1  0  0  0  0
  7  8  1  6  0  0  0
  7  9  1  0  0  0  0
  9 10  1  0  0  0  0
  9 11  1  1  0  0  0
 11 12  1  0  0  0  0
 13 14  1  1  0  0  0
 13 15  1  0  0  0  0
 13 22  1  0  0  0  0
 15 16  1  6  0  0  0
 15 17  1  0  0  0  0
 17 18  1  6  0  0  0
 17 19  1  0  0  0  0
 19  2  1  6  0  0  0
 19 20  1  0  0  0  0
 20 21  1  1  0  0  0
 20 22  1  0  0  0  0
 23 18  1  6  0  0  0
 23 24  1  0  0  0  0
 23 28  1  0  0  0  0
 24 25  1  6  0  0  0
 24 26  1  0  0  0  0
 26 27  1  0  0  0  0
 26 38  1  6  0  0  0
 27 28  1  0  0  0  0
 27 29  1  6  0  0  0
 29 30  1  0  0  0  0
 31 32  1  6  0  0  0
 31 33  1  0  0  0  0
 31 39  1  0  0  0  0
 33 34  1  1  0  0  0
 33 35  1  0  0  0  0
 35 36  1  6  0  0  0
 35 37  1  0  0  0  0
 37 38  1  6  0  0  0
 37 40  1  0  0  0  0
 39 40  1  0  0  0  0
 39 41  1  6  0  0  0
 41 42  1  0  0  0  0
M  CHG  5   4   1  14   1  21   1  36   1  42   1
M  END
>  <CHROM.1>
179.45287451,-82.61215781,-97.29687494,179.93423490,174.65394494,-61.74564034
177.14812357,51.68381055,-61.64717531,-75.55272323,149.45600181,160.44072129
62.94589585,57.97281240,62.35893443,-179.15935478,176.00317050,177.37588594
42.46753753,-75.26125954,174.26354042,71.92492131,2.18011574,1.52509305,37.65803114
-0.48820463,0.81461989,-1.50641694

>  <Name>
1pbr

>  <RI>
0

>  <Rbt.Current_Directory>
/home/itssahil/PROJECTS/Mol_Feturizer/New_Systems/rnas/1pbr

>  <Rbt.Executable>
rbdock ($Id: //depot/dev/client3/rdock/2013.1/src/exe/rbdock.cxx#4 $)

>  <Rbt.Library>
libRbt.so (2013.1, Build901 2013/11/27)

>  <Rbt.Parameter_File>
/export/apps/rDock/src/rDock_2013.1_src/data/scripts/dock_solv.prm

>  <Rbt.Receptor>
prm/blind_docking_80.prm

>  <SCORE>
-38.8135

>  <SCORE.INTER>
-37.2659

>  <SCORE.INTER.CONST>
1

>  <SCORE.INTER.POLAR>
-5.37319

>  <SCORE.INTER.ROT>
9

>  <SCORE.INTER.SOLV>
34.2754

>  <SCORE.INTER.VDW>
-27.9584

>  <SCORE.INTER.norm>
-0.887282

>  <SCORE.INTRA>
-4.92657

>  <SCORE.INTRA.DIHEDRAL>
-15.1595

>  <SCORE.INTRA.DIHEDRAL.0>
29.7866

>  <SCORE.INTRA.POLAR>
0.383005

>  <SCORE.INTRA.POLAR.0>
-0.984091

>  <SCORE.INTRA.REPUL>
-0.188209

>  <SCORE.INTRA.REPUL.0>
0.274115

>  <SCORE.INTRA.SOLV>
2.16243

>  <SCORE.INTRA.SOLV.lig_0>
-152.978

>  <SCORE.INTRA.VDW>
1.21081

>  <SCORE.INTRA.VDW.0>
-6.10719

>  <SCORE.INTRA.norm>
-0.117299

>  <SCORE.RESTR>
3.37898

>  <SCORE.RESTR.CAVITY>
3.37898

>  <SCORE.RESTR.norm>
0.0804518

>  <SCORE.SYSTEM>
0

>  <SCORE.SYSTEM.CONST>
0

>  <SCORE.SYSTEM.DIHEDRAL>
0

>  <SCORE.SYSTEM.SOLV>
0

>  <SCORE.SYSTEM.norm>
0

>  <SCORE.heavy>
42

>  <SCORE.norm>
-0.92413

>  <RMSD>
7.454

$$$$
1pbr
 OpenBabel11021811403D
libRbt.so/2013.1/901 2013/11/27
 42 45  0  0  0  0  0  0  0  0999 V2000
    5.9146   -0.6651   39.0894 C   0  0  2  0  0  0  0  0  0  0  0  0
    5.5037    0.7103   38.8831 O   0  0  0  0  0  0  0  0  0  0  0  0
    6.7704   -1.1816   37.8732 C   0  0  2  0  0  0  0  0  0  0  0  0
    7.7494   -0.1959   37.3459 N   0  3  0  0  0  0  0  0  0  0  0  0
    5.8794   -1.5835   36.6827 C   0  0  1  0  0  0  0  0  0  0  0  0
    6.6349   -2.2893   35.7007 O   0  0  0  0  0  0  0  0  0  0  0  0
    4.7016   -2.4549   37.1444 C   0  0  2  0  0  0  0  0  0  0  0  0
    3.9146   -2.8524   36.0259 O   0  0  0  0  0  0  0  0  0  0  0  0
    3.8708   -1.7253   38.2232 C   0  0  2  0  0  0  0  0  0  0  0  0
    4.7494   -1.4971   39.3454 O   0  0  0  0  0  0  0  0  0  0  0  0
    2.6631   -2.5149   38.7254 C   0  0  0  0  0  0  0  0  0  0  0  0
    1.8663   -2.9804   37.6442 O   0  0  0  0  0  0  0  0  0  0  0  0
    2.2109    0.4385   41.5833 C   0  0  1  0  0  0  0  0  0  0  0  0
    1.0811    0.6837   42.4984 N   0  3  0  0  0  0  0  0  0  0  0  0
    1.8749    0.8296   40.1123 C   0  0  2  0  0  0  0  0  0  0  0  0
    0.7511    0.0875   39.6444 O   0  0  0  0  0  0  0  0  0  0  0  0
    3.0777    0.5499   39.1643 C   0  0  1  0  0  0  0  0  0  0  0  0
    2.7670    1.0900   37.8456 O   0  0  0  0  0  0  0  0  0  0  0  0
    4.4026    1.1927   39.6902 C   0  0  1  0  0  0  0  0  0  0  0  0
    4.6989    0.8371   41.1823 C   0  0  1  0  0  0  0  0  0  0  0  0
    5.9030    1.5383   41.6803 N   0  3  0  0  0  0  0  0  0  0  0  0
    3.4832    1.1860   42.0794 C   0  0  0  0  0  0  0  0  0  0  0  0
    1.5459    1.8711   37.6444 C   0  0  1  0  0  0  0  0  0  0  0  0
    1.8835    3.3649   37.8077 C   0  0  2  0  0  0  0  0  0  0  0  0
    0.7336    4.1098   38.1991 O   0  0  0  0  0  0  0  0  0  0  0  0
    2.3137    3.6737   36.3657 C   0  0  1  0  0  0  0  0  0  0  0  0
    1.2611    2.9428   35.5489 C   0  0  2  0  0  0  0  0  0  0  0  0
    1.0883    1.7426   36.2866 O   0  0  0  0  0  0  0  0  0  0  0  0
    1.6605    2.6263   34.1018 C   0  0  0  0  0  0  0  0  0  0  0  0
    2.9835    2.1122   34.0627 O   0  0  0  0  0  0  0  0  0  0  0  0
   -0.3021    7.1998   33.3368 C   0  0  1  0  0  0  0  0  0  0  0  0
   -0.3159    8.4083   34.0944 O   0  0  0  0  0  0  0  0  0  0  0  0
    1.1390    6.9319   32.8200 C   0  0  2  0  0  0  0  0  0  0  0  0
    1.0742    5.9591   31.7797 O   0  0  0  0  0  0  0  0  0  0  0  0
    2.1588    6.4451   33.9011 C   0  0  1  0  0  0  0  0  0  0  0  0
    2.7462    7.6021   34.6121 N   0  3  0  0  0  0  0  0  0  0  0  0
    1.5275    5.4059   34.8645 C   0  0  1  0  0  0  0  0  0  0  0  0
    2.3551    5.0829   36.0090 O   0  0  0  0  0  0  0  0  0  0  0  0
   -0.7736    6.0116   34.2122 C   0  0  1  0  0  0  0  0  0  0  0  0
    0.1920    5.8440   35.2862 O   0  0  0  0  0  0  0  0  0  0  0  0
   -2.1984    6.1778   34.7731 C   0  0  0  0  0  0  0  0  0  0  0  0
   -3.2382    6.0582   33.7324 N   0  3  0  0  0  0  0  0  0  0  0  0
  1  2  1  6  0  0  0
  1  3  1  0  0  0  0
  1 10  1  0  0  0  0
  3  4  1  6  0  0  0
  3  5  1  0  0  0  0
  5  6  1  6  0  0  0
  5  7  1  0  0  0  0
  7  8  1  6  0  0  0
  7  9  1  0  0  0  0
  9 10  1  0  0  0  0
  9 11  1  1  0  0  0
 11 12  1  0  0  0  0
 13 14  1  1  0  0  0
 13 15  1  0  0  0  0
 13 22  1  0  0  0  0
 15 16  1  6  0  0  0
 15 17  1  0  0  0  0
 17 18  1  6  0  0  0
 17 19  1  0  0  0  0
 19  2  1  6  0  0  0
 19 20  1  0  0  0  0
 20 21  1  1  0  0  0
 20 22  1  0  0  0  0
 23 18  1  6  0  0  0
 23 24  1  0  0  0  0
 23 28  1  0  0  0  0
 24 25  1  6  0  0  0
 24 26  1  0  0  0  0
 26 27  1  0  0  0  0
 26 38  1  1  0  0  0
 27 28  1  0  0  0  0
 27 29  1  6  0  0  0
 29 30  1  0  0  0  0
 31 32  1  1  0  0  0
 31 33  1  0  0  0  0
 31 39  1  0  0  0  0
 33 34  1  6  0  0  0
 33 35  1  0  0  0  0
 35 36  1  1  0  0  0
 35 37  1  0  0  0  0
 37 38  1  1  0  0  0
 37 40  1  0  0  0  0
 39 40  1  0  0  0  0
 39 41  1  1  0  0  0
 41 42  1  0  0  0  0
M  CHG  5   4   1  14   1  21   1  36   1  42   1
M  END
>  <CHROM.1>
161.94699198,-73.03573157,-131.61598089,-178.57099798,-178.84951136,-51.14761098
-176.78314401,-41.90354493,-162.96618827,5.89721003,93.95411155,50.82258165
-52.79757683,-123.37932104,44.84209291,-72.47416777,174.44179416,-58.90328408
136.25053303,-141.02866571,70.75179382,42.27970844,2.56123114,2.12012436
37.06033741,-0.85356057,0.81959931,-1.16763387

>  <Name>
1pbr

>  <RI>
0

>  <Rbt.Current_Directory>
/home/itssahil/PROJECTS/Mol_Feturizer/New_Systems/rnas/1pbr

>  <Rbt.Executable>
rbdock ($Id: //depot/dev/client3/rdock/2013.1/src/exe/rbdock.cxx#4 $)

>  <Rbt.Library>
libRbt.so (2013.1, Build901 2013/11/27)

>  <Rbt.Parameter_File>
/export/apps/rDock/src/rDock_2013.1_src/data/scripts/dock_solv.prm

>  <Rbt.Receptor>
prm/blind_docking_80.prm

>  <SCORE>
15.3983

>  <SCORE.INTER>
-7.5853

>  <SCORE.INTER.CONST>
1

>  <SCORE.INTER.POLAR>
-5.37072

>  <SCORE.INTER.ROT>
9

>  <SCORE.INTER.SOLV>
41.3236

>  <SCORE.INTER.VDW>
-10.529

>  <SCORE.INTER.norm>
-0.180602

>  <SCORE.INTRA>
19.8566

>  <SCORE.INTRA.DIHEDRAL>
8.60735

>  <SCORE.INTRA.DIHEDRAL.0>
29.7866

>  <SCORE.INTRA.POLAR>
0.155711

>  <SCORE.INTRA.POLAR.0>
-0.984091

>  <SCORE.INTRA.REPUL>
-0.274115

>  <SCORE.INTRA.REPUL.0>
0.274115

>  <SCORE.INTRA.SOLV>
-2.84468

>  <SCORE.INTRA.SOLV.lig_0>
-152.978

>  <SCORE.INTRA.VDW>
17.8165

>  <SCORE.INTRA.VDW.0>
-6.10719

>  <SCORE.INTRA.norm>
0.472777

>  <SCORE.RESTR>
3.12693

>  <SCORE.RESTR.CAVITY>
3.12693

>  <SCORE.RESTR.norm>
0.0744506

>  <SCORE.SYSTEM>
0

>  <SCORE.SYSTEM.CONST>
0

>  <SCORE.SYSTEM.DIHEDRAL>
0

>  <SCORE.SYSTEM.SOLV>
0

>  <SCORE.SYSTEM.norm>
0

>  <SCORE.heavy>
42

>  <SCORE.norm>
0.366625

>  <RMSD>
7.455

$$$$
1pbr
 OpenBabel11021811403D
libRbt.so/2013.1/901 2013/11/27
 42 45  0  0  0  0  0  0  0  0999 V2000
    5.5176   -0.7356   38.7878 C   0  0  2  0  0  0  0  0  0  0  0  0
    5.2767    0.6897   38.9054 O   0  0  0  0  0  0  0  0  0  0  0  0
    6.5493   -1.0354   37.6372 C   0  0  2  0  0  0  0  0  0  0  0  0
    7.6952   -0.0913   37.5755 N   0  3  0  0  0  0  0  0  0  0  0  0
    5.8804   -0.9926   36.2503 C   0  0  1  0  0  0  0  0  0  0  0  0
    6.7514   -1.5198   35.2519 O   0  0  0  0  0  0  0  0  0  0  0  0
    4.5634   -1.7832   36.2482 C   0  0  2  0  0  0  0  0  0  0  0  0
    3.9821   -1.7690   34.9481 O   0  0  0  0  0  0  0  0  0  0  0  0
    3.6018   -1.2477   37.3322 C   0  0  2  0  0  0  0  0  0  0  0  0
    4.2571   -1.4375   38.6042 O   0  0  0  0  0  0  0  0  0  0  0  0
    2.2547   -1.9664   37.3861 C   0  0  0  0  0  0  0  0  0  0  0  0
    2.4019   -3.3028   37.8474 O   0  0  0  0  0  0  0  0  0  0  0  0
    3.2849    0.3427   42.6631 C   0  0  1  0  0  0  0  0  0  0  0  0
    2.6526    0.5574   43.9776 N   0  3  0  0  0  0  0  0  0  0  0  0
    2.4765    1.0013   41.5044 C   0  0  2  0  0  0  0  0  0  0  0  0
    1.1539    0.4713   41.4566 O   0  0  0  0  0  0  0  0  0  0  0  0
    3.1566    0.7501   40.1267 C   0  0  1  0  0  0  0  0  0  0  0  0
    2.4544    1.5273   39.1118 O   0  0  0  0  0  0  0  0  0  0  0  0
    4.6679    1.1515   40.1353 C   0  0  1  0  0  0  0  0  0  0  0  0
    5.4543    0.5286   41.3329 C   0  0  1  0  0  0  0  0  0  0  0  0
    6.8547    1.0049   41.3712 N   0  3  0  0  0  0  0  0  0  0  0  0
    4.7541    0.8573   42.6768 C   0  0  0  0  0  0  0  0  0  0  0  0
    1.1351    1.0986   38.6455 C   0  0  1  0  0  0  0  0  0  0  0  0
    0.1980    2.3207   38.6255 C   0  0  2  0  0  0  0  0  0  0  0  0
   -1.1642    1.9235   38.7548 O   0  0  0  0  0  0  0  0  0  0  0  0
    0.5194    2.8477   37.2188 C   0  0  1  0  0  0  0  0  0  0  0  0
    0.5593    1.5714   36.3948 C   0  0  2  0  0  0  0  0  0  0  0  0
    1.2056    0.6653   37.2756 O   0  0  0  0  0  0  0  0  0  0  0  0
    1.3306    1.6713   35.0723 C   0  0  0  0  0  0  0  0  0  0  0  0
    2.7178    1.8338   35.3283 O   0  0  0  0  0  0  0  0  0  0  0  0
    0.3256    6.6871   33.5506 C   0  0  1  0  0  0  0  0  0  0  0  0
   -0.1187    7.8127   34.3059 O   0  0  0  0  0  0  0  0  0  0  0  0
    1.5687    6.0608   34.2420 C   0  0  2  0  0  0  0  0  0  0  0  0
    2.2182    5.1975   33.3116 O   0  0  0  0  0  0  0  0  0  0  0  0
    1.2737    5.2582   35.5514 C   0  0  1  0  0  0  0  0  0  0  0  0
    1.2234    6.1717   36.7143 N   0  3  0  0  0  0  0  0  0  0  0  0
   -0.0012    4.3843   35.4188 C   0  0  1  0  0  0  0  0  0  0  0  0
   -0.4407    3.7886   36.6643 O   0  0  0  0  0  0  0  0  0  0  0  0
   -0.8031    5.6308   33.4463 C   0  0  1  0  0  0  0  0  0  0  0  0
   -1.0833    5.1501   34.7895 O   0  0  0  0  0  0  0  0  0  0  0  0
   -2.0843    6.1528   32.7694 C   0  0  0  0  0  0  0  0  0  0  0  0
   -1.8870    6.4658   31.3405 N   0  3  0  0  0  0  0  0  0  0  0  0
  1  2  1  6  0  0  0
  1  3  1  0  0  0  0
  1 10  1  0  0  0  0
  3  4  1  6  0  0  0
  3  5  1  0  0  0  0
  5  6  1  6  0  0  0
  5  7  1  0  0  0  0
  7  8  1  6  0  0  0
  7  9  1  0  0  0  0
  9 10  1  0  0  0  0
  9 11  1  1  0  0  0
 11 12  1  0  0  0  0
 13 14  1  1  0  0  0
 13 15  1  0  0  0  0
 13 22  1  0  0  0  0
 15 16  1  6  0  0  0
 15 17  1  0  0  0  0
 17 18  1  6  0  0  0
 17 19  1  0  0  0  0
 19  2  1  6  0  0  0
 19 20  1  0  0  0  0
 20 21  1  1  0  0  0
 20 22  1  0  0  0  0
 23 18  1  6  0  0  0
 23 24  1  0  0  0  0
 23 28  1  0  0  0  0
 24 25  1  6  0  0  0
 24 26  1  0  0  0  0
 26 27  1  0  0  0  0
 26 38  1  6  0  0  0
 27 28  1  0  0  0  0
 27 29  1  6  0  0  0
 29 30  1  0  0  0  0
 31 32  1  1  0  0  0
 31 33  1  0  0  0  0
 31 39  1  0  0  0  0
 33 34  1  6  0  0  0
 33 35  1  0  0  0  0
 35 36  1  1  0  0  0
 35 37  1  0  0  0  0
 37 38  1  1  0  0  0
 37 40  1  0  0  0  0
 39 40  1  0  0  0  0
 39 41  1  1  0  0  0
 41 42  1  0  0  0  0
M  CHG  5   4   1  14   1  21   1  36   1  42   1
M  END
>  <CHROM.1>
-162.80982105,-73.72590830,-35.41625505,-165.35328711,154.99350623,68.50528406
-60.37908019,64.88619662,66.06248558,-74.14471351,133.49691549,55.71674147
-50.77237496,172.34822623,68.28716347,-59.85717154,178.81188838,60.74162002
60.84843210,-63.76804094,66.74845142,167.21012964,2.43543437,1.81169402,37.36893505
-0.74192408,0.80271488,-1.41202600

>  <Name>
1pbr

>  <RI>
0

>  <Rbt.Current_Directory>
/home/itssahil/PROJECTS/Mol_Feturizer/New_Systems/rnas/1pbr

>  <Rbt.Executable>
rbdock ($Id: //depot/dev/client3/rdock/2013.1/src/exe/rbdock.cxx#4 $)

>  <Rbt.Library>
libRbt.so (2013.1, Build901 2013/11/27)

>  <Rbt.Parameter_File>
/export/apps/rDock/src/rDock_2013.1_src/data/scripts/dock_solv.prm

>  <Rbt.Receptor>
prm/blind_docking_80.prm

>  <SCORE>
-34.8795

>  <SCORE.INTER>
-33.4714

>  <SCORE.INTER.CONST>
1

>  <SCORE.INTER.POLAR>
-5.16241

>  <SCORE.INTER.ROT>
9

>  <SCORE.INTER.SOLV>
32.2049

>  <SCORE.INTER.VDW>
-25.4412

>  <SCORE.INTER.norm>
-0.796938

>  <SCORE.INTRA>
-4.16228

>  <SCORE.INTRA.DIHEDRAL>
-12.5306

>  <SCORE.INTRA.DIHEDRAL.0>
29.7866

>  <SCORE.INTRA.POLAR>
0.894614

>  <SCORE.INTRA.POLAR.0>
-0.984091

>  <SCORE.INTRA.REPUL>
-0.274115

>  <SCORE.INTRA.REPUL.0>
0.274115

>  <SCORE.INTRA.SOLV>
-0.275998

>  <SCORE.INTRA.SOLV.lig_0>
-152.978

>  <SCORE.INTRA.VDW>
0.569916

>  <SCORE.INTRA.VDW.0>
-6.10719

>  <SCORE.INTRA.norm>
-0.0991018

>  <SCORE.RESTR>
2.7542

>  <SCORE.RESTR.CAVITY>
2.7542

>  <SCORE.RESTR.norm>
0.0655761

>  <SCORE.SYSTEM>
0

>  <SCORE.SYSTEM.CONST>
0

>  <SCORE.SYSTEM.DIHEDRAL>
0

>  <SCORE.SYSTEM.SOLV>
0

>  <SCORE.SYSTEM.norm>
0

>  <SCORE.heavy>
42

>  <SCORE.norm>
-0.830463

>  <RMSD>
7.506

$$$$
1pbr
 OpenBabel11021811403D
libRbt.so/2013.1/901 2013/11/27
 42 45  0  0  0  0  0  0  0  0999 V2000
    3.6038    0.1900   38.5674 C   0  0  2  0  0  0  0  0  0  0  0  0
    4.3271    0.2811   39.8211 O   0  0  0  0  0  0  0  0  0  0  0  0
    4.2266   -0.9208   37.6420 C   0  0  2  0  0  0  0  0  0  0  0  0
    4.6206   -2.1652   38.3524 N   0  3  0  0  0  0  0  0  0  0  0  0
    5.4917   -0.4161   36.9226 C   0  0  1  0  0  0  0  0  0  0  0  0
    5.8890   -1.3262   35.8993 O   0  0  0  0  0  0  0  0  0  0  0  0
    5.2605    0.9730   36.3090 C   0  0  2  0  0  0  0  0  0  0  0  0
    6.4252    1.4038   35.6118 O   0  0  0  0  0  0  0  0  0  0  0  0
    4.8112    1.9810   37.3901 C   0  0  2  0  0  0  0  0  0  0  0  0
    3.5619    1.4936   37.9239 O   0  0  0  0  0  0  0  0  0  0  0  0
    4.5782    3.3979   36.8685 C   0  0  0  0  0  0  0  0  0  0  0  0
    3.5485    4.0524   37.5978 O   0  0  0  0  0  0  0  0  0  0  0  0
    1.7860    0.0656   43.2423 C   0  0  1  0  0  0  0  0  0  0  0  0
    0.9928    0.3181   44.4593 N   0  3  0  0  0  0  0  0  0  0  0  0
    1.2216    0.8224   42.0020 C   0  0  2  0  0  0  0  0  0  0  0  0
   -0.1247    0.4278   41.7484 O   0  0  0  0  0  0  0  0  0  0  0  0
    2.0675    0.5301   40.7283 C   0  0  1  0  0  0  0  0  0  0  0  0
    1.5982    1.3917   39.6492 O   0  0  0  0  0  0  0  0  0  0  0  0
    3.5930    0.7787   40.9658 C   0  0  1  0  0  0  0  0  0  0  0  0
    4.1334    0.0587   42.2426 C   0  0  1  0  0  0  0  0  0  0  0  0
    5.5525    0.3924   42.4961 N   0  3  0  0  0  0  0  0  0  0  0  0
    3.2801    0.4309   43.4826 C   0  0  0  0  0  0  0  0  0  0  0  0
    0.4019    1.0265   38.8895 C   0  0  1  0  0  0  0  0  0  0  0  0
   -0.6839    2.0902   39.1378 C   0  0  2  0  0  0  0  0  0  0  0  0
   -1.9866    1.5481   38.9394 O   0  0  0  0  0  0  0  0  0  0  0  0
   -0.2965    3.0911   38.0388 C   0  0  1  0  0  0  0  0  0  0  0  0
   -0.0033    2.1801   36.8582 C   0  0  2  0  0  0  0  0  0  0  0  0
    0.6670    1.0927   37.4771 O   0  0  0  0  0  0  0  0  0  0  0  0
    0.8765    2.7943   35.7617 C   0  0  0  0  0  0  0  0  0  0  0  0
    1.4420    1.7685   34.9590 O   0  0  0  0  0  0  0  0  0  0  0  0
   -0.0279    7.4938   35.3872 C   0  0  1  0  0  0  0  0  0  0  0  0
   -0.5633    7.0282   34.1498 O   0  0  0  0  0  0  0  0  0  0  0  0
   -1.1876    7.7274   36.3952 C   0  0  2  0  0  0  0  0  0  0  0  0
   -0.7005    8.5286   37.4692 O   0  0  0  0  0  0  0  0  0  0  0  0
   -1.8323    6.4312   36.9868 C   0  0  1  0  0  0  0  0  0  0  0  0
   -2.8755    5.9131   36.0745 N   0  3  0  0  0  0  0  0  0  0  0  0
   -0.7633    5.3650   37.3435 C   0  0  1  0  0  0  0  0  0  0  0  0
   -1.3136    4.0710   37.6925 O   0  0  0  0  0  0  0  0  0  0  0  0
    0.9678    6.4571   35.9657 C   0  0  1  0  0  0  0  0  0  0  0  0
    0.2210    5.2453   36.2617 O   0  0  0  0  0  0  0  0  0  0  0  0
    2.1618    6.1565   35.0406 C   0  0  0  0  0  0  0  0  0  0  0  0
    1.7441    5.6925   33.7031 N   0  3  0  0  0  0  0  0  0  0  0  0
  1  2  1  1  0  0  0
  1  3  1  0  0  0  0
  1 10  1  0  0  0  0
  3  4  1  1  0  0  0
  3  5  1  0  0  0  0
  5  6  1  6  0  0  0
  5  7  1  0  0  0  0
  7  8  1  1  0  0  0
  7  9  1  0  0  0  0
  9 10  1  0  0  0  0
  9 11  1  6  0  0  0
 11 12  1  0  0  0  0
 13 14  1  1  0  0  0
 13 15  1  0  0  0  0
 13 22  1  0  0  0  0
 15 16  1  6  0  0  0
 15 17  1  0  0  0  0
 17 18  1  6  0  0  0
 17 19  1  0  0  0  0
 19  2  1  6  0  0  0
 19 20  1  0  0  0  0
 20 21  1  1  0  0  0
 20 22  1  0  0  0  0
 23 18  1  1  0  0  0
 23 24  1  0  0  0  0
 23 28  1  0  0  0  0
 24 25  1  6  0  0  0
 24 26  1  0  0  0  0
 26 27  1  0  0  0  0
 26 38  1  6  0  0  0
 27 28  1  0  0  0  0
 27 29  1  6  0  0  0
 29 30  1  0  0  0  0
 31 32  1  6  0  0  0
 31 33  1  0  0  0  0
 31 39  1  0  0  0  0
 33 34  1  1  0  0  0
 33 35  1  0  0  0  0
 35 36  1  6  0  0  0
 35 37  1  0  0  0  0
 37 38  1  6  0  0  0
 37 40  1  0  0  0  0
 39 40  1  0  0  0  0
 39 41  1  6  0  0  0
 41 42  1  0  0  0  0
M  CHG  5   4   1  14   1  21   1  36   1  42   1
M  END
>  <CHROM.1>
-153.64861203,23.93677679,-173.16274651,-175.80567524,-61.42048527,148.08105737
-50.72765575,-53.02595540,-58.84194580,-80.72862329,115.68208880,-92.79623588
-179.90602831,145.10307636,160.85603579,155.69158493,63.52756984,179.80407359
64.04939581,-179.30716547,-56.45722031,56.36740203,1.82211923,2.52195490
38.12152816,-0.95989718,0.60215479,-1.00767828

>  <Name>
1pbr

>  <RI>
0

>  <Rbt.Current_Directory>
/home/itssahil/PROJECTS/Mol_Feturizer/New_Systems/rnas/1pbr

>  <Rbt.Executable>
rbdock ($Id: //depot/dev/client3/rdock/2013.1/src/exe/rbdock.cxx#4 $)

>  <Rbt.Library>
libRbt.so (2013.1, Build901 2013/11/27)

>  <Rbt.Parameter_File>
/export/apps/rDock/src/rDock_2013.1_src/data/scripts/dock_solv.prm

>  <Rbt.Receptor>
prm/blind_docking_60.prm

>  <SCORE>
-25.6753

>  <SCORE.INTER>
-30.743

>  <SCORE.INTER.CONST>
1

>  <SCORE.INTER.POLAR>
-3.99855

>  <SCORE.INTER.ROT>
9

>  <SCORE.INTER.SOLV>
24.9933

>  <SCORE.INTER.VDW>
-25.0979

>  <SCORE.INTER.norm>
-0.731977

>  <SCORE.INTRA>
4.56343

>  <SCORE.INTRA.DIHEDRAL>
1.82992

>  <SCORE.INTRA.DIHEDRAL.0>
29.7866

>  <SCORE.INTRA.POLAR>
0.297241

>  <SCORE.INTRA.POLAR.0>
-0.984091

>  <SCORE.INTRA.REPUL>
-0.257615

>  <SCORE.INTRA.REPUL.0>
0.274115

>  <SCORE.INTRA.SOLV>
0.425442

>  <SCORE.INTRA.SOLV.lig_0>
-152.978

>  <SCORE.INTRA.VDW>
3.7132

>  <SCORE.INTRA.VDW.0>
-6.10719

>  <SCORE.INTRA.norm>
0.108653

>  <SCORE.RESTR>
0.50431

>  <SCORE.RESTR.CAVITY>
0.50431

>  <SCORE.RESTR.norm>
0.0120074

>  <SCORE.SYSTEM>
0

>  <SCORE.SYSTEM.CONST>
0

>  <SCORE.SYSTEM.DIHEDRAL>
0

>  <SCORE.SYSTEM.SOLV>
0

>  <SCORE.SYSTEM.norm>
0

>  <SCORE.heavy>
42

>  <SCORE.norm>
-0.611317

>  <RMSD>
7.507

$$$$
1pbr
 OpenBabel11021811403D
libRbt.so/2013.1/901 2013/11/27
 42 45  0  0  0  0  0  0  0  0999 V2000
    5.6103   -0.5439   38.4085 C   0  0  2  0  0  0  0  0  0  0  0  0
    5.7012    0.4595   39.4516 O   0  0  0  0  0  0  0  0  0  0  0  0
    6.4961   -1.7971   38.7593 C   0  0  2  0  0  0  0  0  0  0  0  0
    6.4365   -2.2144   40.1843 N   0  3  0  0  0  0  0  0  0  0  0  0
    7.9831   -1.5465   38.4453 C   0  0  1  0  0  0  0  0  0  0  0  0
    8.7268   -2.7612   38.5150 O   0  0  0  0  0  0  0  0  0  0  0  0
    8.1553   -0.9215   37.0527 C   0  0  2  0  0  0  0  0  0  0  0  0
    9.5374   -0.7377   36.7625 O   0  0  0  0  0  0  0  0  0  0  0  0
    7.3469    0.3898   36.9375 C   0  0  2  0  0  0  0  0  0  0  0  0
    5.9582    0.0436   37.1243 O   0  0  0  0  0  0  0  0  0  0  0  0
    7.4784    1.0912   35.5866 C   0  0  0  0  0  0  0  0  0  0  0  0
    7.6968    0.1552   34.5394 O   0  0  0  0  0  0  0  0  0  0  0  0
    2.0920    0.4284   41.7277 C   0  0  1  0  0  0  0  0  0  0  0  0
    0.8228    0.7402   42.4102 N   0  3  0  0  0  0  0  0  0  0  0  0
    1.9377    0.4033   40.1768 C   0  0  2  0  0  0  0  0  0  0  0  0
    0.9702   -0.5693   39.7886 O   0  0  0  0  0  0  0  0  0  0  0  0
    3.2868    0.0597   39.4800 C   0  0  1  0  0  0  0  0  0  0  0  0
    3.1209    0.2181   38.0397 O   0  0  0  0  0  0  0  0  0  0  0  0
    4.4533    0.9770   39.9728 C   0  0  1  0  0  0  0  0  0  0  0  0
    4.5621    1.0361   41.5301 C   0  0  1  0  0  0  0  0  0  0  0  0
    5.6081    1.9872   41.9671 N   0  3  0  0  0  0  0  0  0  0  0  0
    3.2010    1.4322   42.1587 C   0  0  0  0  0  0  0  0  0  0  0  0
    1.9156    0.8556   37.5081 C   0  0  1  0  0  0  0  0  0  0  0  0
    1.9685    2.3598   37.8347 C   0  0  2  0  0  0  0  0  0  0  0  0
    0.6588    2.9188   37.8866 O   0  0  0  0  0  0  0  0  0  0  0  0
    2.7598    2.8446   36.6105 C   0  0  1  0  0  0  0  0  0  0  0  0
    2.1168    2.0624   35.4772 C   0  0  2  0  0  0  0  0  0  0  0  0
    1.9078    0.7902   36.0710 O   0  0  0  0  0  0  0  0  0  0  0  0
    2.9713    1.9257   34.2105 C   0  0  0  0  0  0  0  0  0  0  0  0
    4.3373    2.1645   34.5160 O   0  0  0  0  0  0  0  0  0  0  0  0
   -0.7049    6.7243   35.3091 C   0  0  1  0  0  0  0  0  0  0  0  0
   -0.1644    7.9330   35.8396 O   0  0  0  0  0  0  0  0  0  0  0  0
    0.1859    6.2336   34.1338 C   0  0  2  0  0  0  0  0  0  0  0  0
   -0.5446    5.2651   33.3848 O   0  0  0  0  0  0  0  0  0  0  0  0
    1.5615    5.6158   34.5484 C   0  0  1  0  0  0  0  0  0  0  0  0
    2.5719    6.6821   34.7251 N   0  3  0  0  0  0  0  0  0  0  0  0
    1.4317    4.6994   35.7935 C   0  0  1  0  0  0  0  0  0  0  0  0
    2.7007    4.2736   36.3479 O   0  0  0  0  0  0  0  0  0  0  0  0
   -0.7666    5.6351   36.4094 C   0  0  1  0  0  0  0  0  0  0  0  0
    0.5978    5.3410   36.8164 O   0  0  0  0  0  0  0  0  0  0  0  0
   -1.6321    6.0236   37.6227 C   0  0  0  0  0  0  0  0  0  0  0  0
   -3.0646    6.1409   37.2870 N   0  3  0  0  0  0  0  0  0  0  0  0
  1  2  1  1  0  0  0
  1  3  1  0  0  0  0
  1 10  1  0  0  0  0
  3  4  1  1  0  0  0
  3  5  1  0  0  0  0
  5  6  1  6  0  0  0
  5  7  1  0  0  0  0
  7  8  1  1  0  0  0
  7  9  1  0  0  0  0
  9 10  1  0  0  0  0
  9 11  1  6  0  0  0
 11 12  1  0  0  0  0
 13 14  1  1  0  0  0
 13 15  1  0  0  0  0
 13 22  1  0  0  0  0
 15 16  1  1  0  0  0
 15 17  1  0  0  0  0
 17 18  1  6  0  0  0
 17 19  1  0  0  0  0
 19  2  1  6  0  0  0
 19 20  1  0  0  0  0
 20 21  1  6  0  0  0
 20 22  1  0  0  0  0
 23 18  1  6  0  0  0
 23 24  1  0  0  0  0
 23 28  1  0  0  0  0
 24 25  1  6  0  0  0
 24 26  1  0  0  0  0
 26 27  1  0  0  0  0
 26 38  1  6  0  0  0
 27 28  1  0  0  0  0
 27 29  1  6  0  0  0
 29 30  1  0  0  0  0
 31 32  1  1  0  0  0
 31 33  1  0  0  0  0
 31 39  1  0  0  0  0
 33 34  1  1  0  0  0
 33 35  1  0  0  0  0
 35 36  1  1  0  0  0
 35 37  1  0  0  0  0
 37 38  1  1  0  0  0
 37 40  1  0  0  0  0
 39 40  1  0  0  0  0
 39 41  1  1  0  0  0
 41 42  1  0  0  0  0
M  CHG  5   4   1  14   1  21   1  36   1  42   1
M  END
>  <CHROM.1>
-129.34252532,12.84379614,72.06938768,67.03432480,-54.61587880,30.37228935
143.54385764,69.68595143,63.63041988,10.55818401,70.99488613,-24.44740708
63.94171327,-74.32009437,19.67283443,159.84053076,66.02592967,66.44212737
90.72550201,-131.99090686,66.60233503,167.07739442,3.28653048,2.03187138
37.54577973,-0.60352137,0.55520975,-1.05874421

>  <Name>
1pbr

>  <RI>
0

>  <Rbt.Current_Directory>
/home/itssahil/PROJECTS/Mol_Feturizer/New_Systems/rnas/1pbr

>  <Rbt.Executable>
rbdock ($Id: //depot/dev/client3/rdock/2013.1/src/exe/rbdock.cxx#4 $)

>  <Rbt.Library>
libRbt.so (2013.1, Build901 2013/11/27)

>  <Rbt.Parameter_File>
/export/apps/rDock/src/rDock_2013.1_src/data/scripts/dock_solv.prm

>  <Rbt.Receptor>
prm/blind_docking_60.prm

>  <SCORE>
-26.3403

>  <SCORE.INTER>
-45.5066

>  <SCORE.INTER.CONST>
1

>  <SCORE.INTER.POLAR>
-6.79392

>  <SCORE.INTER.ROT>
9

>  <SCORE.INTER.SOLV>
36.2519

>  <SCORE.INTER.VDW>
-29.3753

>  <SCORE.INTER.norm>
-1.08349

>  <SCORE.INTRA>
17.9614

>  <SCORE.INTRA.DIHEDRAL>
17.645

>  <SCORE.INTRA.DIHEDRAL.0>
29.7866

>  <SCORE.INTRA.POLAR>
0.975022

>  <SCORE.INTRA.POLAR.0>
-0.984091

>  <SCORE.INTRA.REPUL>
-0.273899

>  <SCORE.INTRA.REPUL.0>
0.274115

>  <SCORE.INTRA.SOLV>
-1.46322

>  <SCORE.INTRA.SOLV.lig_0>
-152.978

>  <SCORE.INTRA.VDW>
7.92489

>  <SCORE.INTRA.VDW.0>
-6.10719

>  <SCORE.INTRA.norm>
0.427652

>  <SCORE.RESTR>
1.20494

>  <SCORE.RESTR.CAVITY>
1.20494

>  <SCORE.RESTR.norm>
0.0286889

>  <SCORE.SYSTEM>
0

>  <SCORE.SYSTEM.CONST>
0

>  <SCORE.SYSTEM.DIHEDRAL>
0

>  <SCORE.SYSTEM.SOLV>
0

>  <SCORE.SYSTEM.norm>
0

>  <SCORE.heavy>
42

>  <SCORE.norm>
-0.627151

>  <RMSD>
7.511

$$$$
1pbr
 OpenBabel11021811403D
libRbt.so/2013.1/901 2013/11/27
 42 45  0  0  0  0  0  0  0  0999 V2000
    4.0348    0.1425   38.2799 C   0  0  2  0  0  0  0  0  0  0  0  0
    4.8141    0.1421   39.5029 O   0  0  0  0  0  0  0  0  0  0  0  0
    4.6745   -0.8175   37.2088 C   0  0  2  0  0  0  0  0  0  0  0  0
    5.1772   -2.1042   37.7566 N   0  3  0  0  0  0  0  0  0  0  0  0
    5.8692   -0.1563   36.4960 C   0  0  1  0  0  0  0  0  0  0  0  0
    6.2673   -0.9211   35.3602 O   0  0  0  0  0  0  0  0  0  0  0  0
    5.5252    1.2739   36.0535 C   0  0  2  0  0  0  0  0  0  0  0  0
    6.6254    1.8529   35.3588 O   0  0  0  0  0  0  0  0  0  0  0  0
    5.0725    2.1260   37.2599 C   0  0  2  0  0  0  0  0  0  0  0  0
    3.8830    1.5034   37.7897 O   0  0  0  0  0  0  0  0  0  0  0  0
    4.7296    3.5736   36.9120 C   0  0  0  0  0  0  0  0  0  0  0  0
    3.5460    3.6486   36.1284 O   0  0  0  0  0  0  0  0  0  0  0  0
    2.5205    0.1328   43.1011 C   0  0  1  0  0  0  0  0  0  0  0  0
    1.8280    0.4537   44.3627 N   0  3  0  0  0  0  0  0  0  0  0  0
    1.8984    0.8763   41.8805 C   0  0  2  0  0  0  0  0  0  0  0  0
    0.5227    0.5312   41.7360 O   0  0  0  0  0  0  0  0  0  0  0  0
    2.6378    0.5118   40.5599 C   0  0  1  0  0  0  0  0  0  0  0  0
    2.1263    1.3606   39.4899 O   0  0  0  0  0  0  0  0  0  0  0  0
    4.1851    0.7031   40.6803 C   0  0  1  0  0  0  0  0  0  0  0  0
    4.7874   -0.0015   41.9379 C   0  0  1  0  0  0  0  0  0  0  0  0
    6.2332    0.2796   42.0792 N   0  3  0  0  0  0  0  0  0  0  0  0
    4.0413    0.4421   43.2229 C   0  0  0  0  0  0  0  0  0  0  0  0
    0.9339    0.9574   38.7433 C   0  0  1  0  0  0  0  0  0  0  0  0
    0.3649    2.1916   38.0187 C   0  0  2  0  0  0  0  0  0  0  0  0
   -1.0309    2.0431   37.7735 O   0  0  0  0  0  0  0  0  0  0  0  0
    1.1937    2.1165   36.7275 C   0  0  1  0  0  0  0  0  0  0  0  0
    1.1603    0.6315   36.4058 C   0  0  2  0  0  0  0  0  0  0  0  0
    1.2884    0.0428   37.6910 O   0  0  0  0  0  0  0  0  0  0  0  0
    2.2792    0.1383   35.4794 C   0  0  0  0  0  0  0  0  0  0  0  0
    2.5258    1.0959   34.4604 O   0  0  0  0  0  0  0  0  0  0  0  0
   -0.2592    7.1117   35.4721 C   0  0  1  0  0  0  0  0  0  0  0  0
   -1.4738    6.9500   34.7418 O   0  0  0  0  0  0  0  0  0  0  0  0
   -0.3913    6.4114   36.8534 C   0  0  2  0  0  0  0  0  0  0  0  0
    0.6505    6.8852   37.7035 O   0  0  0  0  0  0  0  0  0  0  0  0
   -0.3414    4.8487   36.8197 C   0  0  1  0  0  0  0  0  0  0  0  0
   -1.6844    4.2972   36.5342 N   0  3  0  0  0  0  0  0  0  0  0  0
    0.7427    4.3260   35.8408 C   0  0  1  0  0  0  0  0  0  0  0  0
    0.6892    2.8969   35.6090 O   0  0  0  0  0  0  0  0  0  0  0  0
    0.9263    6.4984   34.6854 C   0  0  1  0  0  0  0  0  0  0  0  0
    0.6905    5.0679   34.5758 O   0  0  0  0  0  0  0  0  0  0  0  0
    1.1456    7.1287   33.2974 C   0  0  0  0  0  0  0  0  0  0  0  0
    0.8417    8.5729   33.2727 N   0  3  0  0  0  0  0  0  0  0  0  0
  1  2  1  1  0  0  0
  1  3  1  0  0  0  0
  1 10  1  0  0  0  0
  3  4  1  1  0  0  0
  3  5  1  0  0  0  0
  5  6  1  6  0  0  0
  5  7  1  0  0  0  0
  7  8  1  1  0  0  0
  7  9  1  0  0  0  0
  9 10  1  0  0  0  0
  9 11  1  6  0  0  0
 11 12  1  0  0  0  0
 13 14  1  1  0  0  0
 13 15  1  0  0  0  0
 13 22  1  0  0  0  0
 15 16  1  6  0  0  0
 15 17  1  0  0  0  0
 17 18  1  6  0  0  0
 17 19  1  0  0  0  0
 19  2  1  6  0  0  0
 19 20  1  0  0  0  0
 20 21  1  1  0  0  0
 20 22  1  0  0  0  0
 23 18  1  6  0  0  0
 23 24  1  0  0  0  0
 23 28  1  0  0  0  0
 24 25  1  6  0  0  0
 24 26  1  0  0  0  0
 26 27  1  0  0  0  0
 26 38  1  6  0  0  0
 27 28  1  0  0  0  0
 27 29  1  6  0  0  0
 29 30  1  0  0  0  0
 31 32  1  6  0  0  0
 31 33  1  0  0  0  0
 31 39  1  0  0  0  0
 33 34  1  1  0  0  0
 33 35  1  0  0  0  0
 35 36  1  6  0  0  0
 35 37  1  0  0  0  0
 37 38  1  6  0  0  0
 37 40  1  0  0  0  0
 39 40  1  0  0  0  0
 39 41  1  6  0  0  0
 41 42  1  0  0  0  0
M  CHG  5   4   1  14   1  21   1  36   1  42   1
M  END
>  <CHROM.1>
-165.02283389,28.69845978,53.66469010,-68.44409479,67.10792653,68.88614726
-142.67943661,-62.65543766,-55.73018773,-86.55256615,162.15650097,-89.17311658
-77.79934414,66.28855450,-39.36119603,-44.29746351,77.42203647,-49.08721569
-155.96486377,-74.63808542,34.80848397,61.09755752,2.40089115,2.29439693
37.67917853,-0.99923130,0.66994213,-1.11092977

>  <Name>
1pbr

>  <RI>
0

>  <Rbt.Current_Directory>
/home/itssahil/PROJECTS/Mol_Feturizer/New_Systems/rnas/1pbr

>  <Rbt.Executable>
rbdock ($Id: //depot/dev/client3/rdock/2013.1/src/exe/rbdock.cxx#4 $)

>  <Rbt.Library>
libRbt.so (2013.1, Build901 2013/11/27)

>  <Rbt.Parameter_File>
/export/apps/rDock/src/rDock_2013.1_src/data/scripts/dock_solv.prm

>  <Rbt.Receptor>
prm/blind_docking_100.prm

>  <SCORE>
-32.9748

>  <SCORE.INTER>
-39.919

>  <SCORE.INTER.CONST>
1

>  <SCORE.INTER.POLAR>
-5.99153

>  <SCORE.INTER.ROT>
9

>  <SCORE.INTER.SOLV>
24.9916

>  <SCORE.INTER.VDW>
-24.5714

>  <SCORE.INTER.norm>
-0.950452

>  <SCORE.INTRA>
3.31908

>  <SCORE.INTRA.DIHEDRAL>
-1.48689

>  <SCORE.INTRA.DIHEDRAL.0>
29.7866

>  <SCORE.INTRA.POLAR>
-0.111585

>  <SCORE.INTRA.POLAR.0>
-0.984091

>  <SCORE.INTRA.REPUL>
-0.25108

>  <SCORE.INTRA.REPUL.0>
0.274115

>  <SCORE.INTRA.SOLV>
4.09748

>  <SCORE.INTRA.SOLV.lig_0>
-152.978

>  <SCORE.INTRA.VDW>
3.64858

>  <SCORE.INTRA.VDW.0>
-6.10719

>  <SCORE.INTRA.norm>
0.0790258

>  <SCORE.RESTR>
3.62512

>  <SCORE.RESTR.CAVITY>
3.62512

>  <SCORE.RESTR.norm>
0.0863123

>  <SCORE.SYSTEM>
0

>  <SCORE.SYSTEM.CONST>
0

>  <SCORE.SYSTEM.DIHEDRAL>
0

>  <SCORE.SYSTEM.SOLV>
0

>  <SCORE.SYSTEM.norm>
0

>  <SCORE.heavy>
42

>  <SCORE.norm>
-0.785114

>  <RMSD>
7.518

$$$$
1pbr
 OpenBabel11021811403D
libRbt.so/2013.1/901 2013/11/27
 42 45  0  0  0  0  0  0  0  0999 V2000
    4.2082   -1.6343   38.5431 C   0  0  2  0  0  0  0  0  0  0  0  0
    5.1324   -0.6217   39.0160 O   0  0  0  0  0  0  0  0  0  0  0  0
    4.9850   -2.8963   38.0119 C   0  0  2  0  0  0  0  0  0  0  0  0
    6.1494   -3.2982   38.8433 N   0  3  0  0  0  0  0  0  0  0  0  0
    5.5290   -2.6699   36.5888 C   0  0  1  0  0  0  0  0  0  0  0  0
    5.9926   -3.8942   36.0235 O   0  0  0  0  0  0  0  0  0  0  0  0
    4.4529   -2.0617   35.6769 C   0  0  2  0  0  0  0  0  0  0  0  0
    4.9600   -1.9004   34.3559 O   0  0  0  0  0  0  0  0  0  0  0  0
    3.9158   -0.7403   36.2701 C   0  0  2  0  0  0  0  0  0  0  0  0
    3.3185   -1.0649   37.5433 O   0  0  0  0  0  0  0  0  0  0  0  0
    2.8526   -0.0546   35.4137 C   0  0  0  0  0  0  0  0  0  0  0  0
    1.5730   -0.6400   35.6149 O   0  0  0  0  0  0  0  0  0  0  0  0
    3.6139    0.2387   42.9098 C   0  0  1  0  0  0  0  0  0  0  0  0
    3.1524    0.8575   44.1659 N   0  3  0  0  0  0  0  0  0  0  0  0
    2.6801    0.5753   41.7079 C   0  0  2  0  0  0  0  0  0  0  0  0
    1.3527    0.1244   41.9675 O   0  0  0  0  0  0  0  0  0  0  0  0
    3.1806   -0.0991   40.3971 C   0  0  1  0  0  0  0  0  0  0  0  0
    2.3720    0.3869   39.2849 O   0  0  0  0  0  0  0  0  0  0  0  0
    4.6880    0.2076   40.1166 C   0  0  1  0  0  0  0  0  0  0  0  0
    5.6054   -0.0825   41.3475 C   0  0  1  0  0  0  0  0  0  0  0  0
    7.0078    0.3102   41.0858 N   0  3  0  0  0  0  0  0  0  0  0  0
    5.0821    0.6573   42.6058 C   0  0  0  0  0  0  0  0  0  0  0  0
    2.0807    1.8158   39.1621 C   0  0  1  0  0  0  0  0  0  0  0  0
    1.9913    2.1743   37.6670 C   0  0  2  0  0  0  0  0  0  0  0  0
    2.2885    3.5511   37.4519 O   0  0  0  0  0  0  0  0  0  0  0  0
    0.5071    1.8557   37.4311 C   0  0  1  0  0  0  0  0  0  0  0  0
   -0.1519    2.4426   38.6683 C   0  0  2  0  0  0  0  0  0  0  0  0
    0.7745    2.1069   39.6900 O   0  0  0  0  0  0  0  0  0  0  0  0
   -1.5392    1.8778   38.9999 C   0  0  0  0  0  0  0  0  0  0  0  0
   -1.4579    0.4751   39.2057 O   0  0  0  0  0  0  0  0  0  0  0  0
   -0.6654    6.5226   35.0016 C   0  0  1  0  0  0  0  0  0  0  0  0
   -1.0550    6.2080   33.6659 O   0  0  0  0  0  0  0  0  0  0  0  0
   -1.7059    5.9331   35.9943 C   0  0  2  0  0  0  0  0  0  0  0  0
   -1.5237    6.5547   37.2643 O   0  0  0  0  0  0  0  0  0  0  0  0
   -1.6494    4.3814   36.1810 C   0  0  1  0  0  0  0  0  0  0  0  0
   -2.4371    3.7073   35.1255 N   0  3  0  0  0  0  0  0  0  0  0  0
   -0.1898    3.8622   36.2649 C   0  0  1  0  0  0  0  0  0  0  0  0
   -0.0734    2.4187   36.2225 O   0  0  0  0  0  0  0  0  0  0  0  0
    0.7369    5.9372   35.3041 C   0  0  1  0  0  0  0  0  0  0  0  0
    0.6367    4.4888   35.2268 O   0  0  0  0  0  0  0  0  0  0  0  0
    1.8457    6.4633   34.3735 C   0  0  0  0  0  0  0  0  0  0  0  0
    1.9755    5.6695   33.1359 N   0  3  0  0  0  0  0  0  0  0  0  0
  1  2  1  6  0  0  0
  1  3  1  0  0  0  0
  1 10  1  0  0  0  0
  3  4  1  1  0  0  0
  3  5  1  0  0  0  0
  5  6  1  6  0  0  0
  5  7  1  0  0  0  0
  7  8  1  6  0  0  0
  7  9  1  0  0  0  0
  9 10  1  0  0  0  0
  9 11  1  6  0  0  0
 11 12  1  0  0  0  0
 13 14  1  1  0  0  0
 13 15  1  0  0  0  0
 13 22  1  0  0  0  0
 15 16  1  1  0  0  0
 15 17  1  0  0  0  0
 17 18  1  6  0  0  0
 17 19  1  0  0  0  0
 19  2  1  6  0  0  0
 19 20  1  0  0  0  0
 20 21  1  6  0  0  0
 20 22  1  0  0  0  0
 23 18  1  6  0  0  0
 23 24  1  0  0  0  0
 23 28  1  0  0  0  0
 24 25  1  1  0  0  0
 24 26  1  0  0  0  0
 26 27  1  0  0  0  0
 26 38  1  6  0  0  0
 27 28  1  0  0  0  0
 27 29  1  1  0  0  0
 29 30  1  0  0  0  0
 31 32  1  6  0  0  0
 31 33  1  0  0  0  0
 31 39  1  0  0  0  0
 33 34  1  1  0  0  0
 33 35  1  0  0  0  0
 35 36  1  6  0  0  0
 35 37  1  0  0  0  0
 37 38  1  6  0  0  0
 37 40  1  0  0  0  0
 39 40  1  0  0  0  0
 39 41  1  6  0  0  0
 41 42  1  0  0  0  0
M  CHG  5   4   1  14   1  21   1  36   1  42   1
M  END
>  <CHROM.1>
-147.91655273,-7.69005970,-38.80094843,-170.88411532,57.73279349,80.94435274
58.35758769,-38.24212754,163.71631543,45.43131472,147.23914997,-38.25694436
63.99791619,-68.48245162,59.25224065,81.38514133,-179.59988659,-57.12672964
85.01968782,-117.66397632,-87.47462066,120.20376492,2.19194482,1.42630436
37.81907201,-0.48869507,0.85482252,-1.51715704

>  <Name>
1pbr

>  <RI>
0

>  <Rbt.Current_Directory>
/home/itssahil/PROJECTS/Mol_Feturizer/New_Systems/rnas/1pbr

>  <Rbt.Executable>
rbdock ($Id: //depot/dev/client3/rdock/2013.1/src/exe/rbdock.cxx#4 $)

>  <Rbt.Library>
libRbt.so (2013.1, Build901 2013/11/27)

>  <Rbt.Parameter_File>
/export/apps/rDock/src/rDock_2013.1_src/data/scripts/dock_solv.prm

>  <Rbt.Receptor>
prm/blind_docking_60.prm

>  <SCORE>
-26.4681

>  <SCORE.INTER>
-37.7146

>  <SCORE.INTER.CONST>
1

>  <SCORE.INTER.POLAR>
-5.76573

>  <SCORE.INTER.ROT>
9

>  <SCORE.INTER.SOLV>
37.5485

>  <SCORE.INTER.VDW>
-28.0401

>  <SCORE.INTER.norm>
-0.897968

>  <SCORE.INTRA>
10.8419

>  <SCORE.INTRA.DIHEDRAL>
9.46047

>  <SCORE.INTRA.DIHEDRAL.0>
29.7866

>  <SCORE.INTRA.POLAR>
0.0467251

>  <SCORE.INTRA.POLAR.0>
-0.984091

>  <SCORE.INTRA.REPUL>
0.0709301

>  <SCORE.INTRA.REPUL.0>
0.274115

>  <SCORE.INTRA.SOLV>
0.749935

>  <SCORE.INTRA.SOLV.lig_0>
-152.978

>  <SCORE.INTRA.VDW>
5.22321

>  <SCORE.INTRA.VDW.0>
-6.10719

>  <SCORE.INTRA.norm>
0.258141

>  <SCORE.RESTR>
0.404562

>  <SCORE.RESTR.CAVITY>
0.404562

>  <SCORE.RESTR.norm>
0.00963242

>  <SCORE.SYSTEM>
0

>  <SCORE.SYSTEM.CONST>
0

>  <SCORE.SYSTEM.DIHEDRAL>
0

>  <SCORE.SYSTEM.SOLV>
0

>  <SCORE.SYSTEM.norm>
0

>  <SCORE.heavy>
42

>  <SCORE.norm>
-0.630194

>  <RMSD>
7.525

$$$$
1pbr
 OpenBabel11021811403D
libRbt.so/2013.1/901 2013/11/27
 42 45  0  0  0  0  0  0  0  0999 V2000
    5.6223   -2.9658   40.1817 C   0  0  2  0  0  0  0  0  0  0  0  0
    4.2416   -3.1771   39.7915 O   0  0  0  0  0  0  0  0  0  0  0  0
    5.9398   -3.7027   41.5361 C   0  0  2  0  0  0  0  0  0  0  0  0
    5.3447   -5.0594   41.6537 N   0  3  0  0  0  0  0  0  0  0  0  0
    5.4315   -2.9023   42.7500 C   0  0  1  0  0  0  0  0  0  0  0  0
    5.9517   -3.4394   43.9642 O   0  0  0  0  0  0  0  0  0  0  0  0
    5.8232   -1.4212   42.6377 C   0  0  2  0  0  0  0  0  0  0  0  0
    5.3833   -0.7065   43.7883 O   0  0  0  0  0  0  0  0  0  0  0  0
    5.2888   -0.8120   41.3225 C   0  0  2  0  0  0  0  0  0  0  0  0
    5.9077   -1.5409   40.2413 O   0  0  0  0  0  0  0  0  0  0  0  0
    5.6163    0.6688   41.1385 C   0  0  0  0  0  0  0  0  0  0  0  0
    5.0610    1.1731   39.9312 O   0  0  0  0  0  0  0  0  0  0  0  0
    4.3008   -0.4216   36.5340 C   0  0  1  0  0  0  0  0  0  0  0  0
    4.0853    0.3229   35.2797 N   0  3  0  0  0  0  0  0  0  0  0  0
    3.0637   -0.3554   37.4799 C   0  0  2  0  0  0  0  0  0  0  0  0
    2.7611    0.9982   37.8095 O   0  0  0  0  0  0  0  0  0  0  0  0
    3.3200   -1.1373   38.8014 C   0  0  1  0  0  0  0  0  0  0  0  0
    2.0779   -1.1830   39.5643 O   0  0  0  0  0  0  0  0  0  0  0  0
    3.8200   -2.5947   38.5347 C   0  0  1  0  0  0  0  0  0  0  0  0
    5.0254   -2.6505   37.5424 C   0  0  1  0  0  0  0  0  0  0  0  0
    5.4114   -4.0450   37.2326 N   0  3  0  0  0  0  0  0  0  0  0  0
    4.6877   -1.8983   36.2291 C   0  0  0  0  0  0  0  0  0  0  0  0
    1.4150    0.0611   39.9574 C   0  0  1  0  0  0  0  0  0  0  0  0
    0.0973   -0.2875   40.6746 C   0  0  2  0  0  0  0  0  0  0  0  0
   -0.8415    0.7791   40.5677 O   0  0  0  0  0  0  0  0  0  0  0  0
    0.6360   -0.4474   42.1043 C   0  0  1  0  0  0  0  0  0  0  0  0
    1.5903    0.7291   42.2255 C   0  0  2  0  0  0  0  0  0  0  0  0
    2.1991    0.7554   40.9436 O   0  0  0  0  0  0  0  0  0  0  0  0
    2.6571    0.5951   43.3199 C   0  0  0  0  0  0  0  0  0  0  0  0
    3.7619    1.4385   43.0293 O   0  0  0  0  0  0  0  0  0  0  0  0
   -0.1806   -4.5592   44.3635 C   0  0  1  0  0  0  0  0  0  0  0  0
    1.2422   -4.6484   44.3152 O   0  0  0  0  0  0  0  0  0  0  0  0
   -0.5960   -3.5340   45.4552 C   0  0  2  0  0  0  0  0  0  0  0  0
   -1.9773   -3.7233   45.7531 O   0  0  0  0  0  0  0  0  0  0  0  0
   -0.3620   -2.0320   45.0875 C   0  0  1  0  0  0  0  0  0  0  0  0
    1.0290   -1.6366   45.4003 N   0  3  0  0  0  0  0  0  0  0  0  0
   -0.7564   -1.7286   43.6181 C   0  0  1  0  0  0  0  0  0  0  0  0
   -0.3623   -0.4114   43.1611 O   0  0  0  0  0  0  0  0  0  0  0  0
   -0.7379   -4.1140   42.9880 C   0  0  1  0  0  0  0  0  0  0  0  0
   -0.2426   -2.7728   42.7242 O   0  0  0  0  0  0  0  0  0  0  0  0
   -0.3834   -5.0694   41.8333 C   0  0  0  0  0  0  0  0  0  0  0  0
   -0.9433   -6.4222   42.0203 N   0  3  0  0  0  0  0  0  0  0  0  0
  1  2  1  1  0  0  0
  1  3  1  0  0  0  0
  1 10  1  0  0  0  0
  3  4  1  6  0  0  0
  3  5  1  0  0  0  0
  5  6  1  1  0  0  0
  5  7  1  0  0  0  0
  7  8  1  1  0  0  0
  7  9  1  0  0  0  0
  9 10  1  0  0  0  0
  9 11  1  6  0  0  0
 11 12  1  0  0  0  0
 13 14  1  6  0  0  0
 13 15  1  0  0  0  0
 13 22  1  0  0  0  0
 15 16  1  1  0  0  0
 15 17  1  0  0  0  0
 17 18  1  6  0  0  0
 17 19  1  0  0  0  0
 19  2  1  1  0  0  0
 19 20  1  0  0  0  0
 20 21  1  6  0  0  0
 20 22  1  0  0  0  0
 23 18  1  1  0  0  0
 23 24  1  0  0  0  0
 23 28  1  0  0  0  0
 24 25  1  1  0  0  0
 24 26  1  0  0  0  0
 26 27  1  0  0  0  0
 26 38  1  1  0  0  0
 27 28  1  0  0  0  0
 27 29  1  1  0  0  0
 29 30  1  0  0  0  0
 31 32  1  6  0  0  0
 31 33  1  0  0  0  0
 31 39  1  0  0  0  0
 33 34  1  6  0  0  0
 33 35  1  0  0  0  0
 35 36  1  6  0  0  0
 35 37  1  0  0  0  0
 37 38  1  6  0  0  0
 37 40  1  0  0  0  0
 39 40  1  0  0  0  0
 39 41  1  6  0  0  0
 41 42  1  0  0  0  0
M  CHG  5   4   1  14   1  21   1  36   1  42   1
M  END
>  <CHROM.1>
-177.83076567,-88.51418448,179.28960044,-76.38535716,-55.20976735,-178.19272169
-53.68080640,-172.68824084,-64.26721971,-58.14359921,176.80265363,76.14679239
62.44763651,98.49629686,157.63417858,65.96744338,59.89249905,-61.70928326
-172.92013784,114.53264627,62.02502820,82.18847016,2.65596003,-1.76399654
41.28798088,-0.80334755,-0.46436295,2.32523481

>  <Name>
1pbr

>  <RI>
0

>  <Rbt.Current_Directory>
/home/itssahil/PROJECTS/Mol_Feturizer/New_Systems/rnas/1pbr

>  <Rbt.Executable>
rbdock ($Id: //depot/dev/client3/rdock/2013.1/src/exe/rbdock.cxx#4 $)

>  <Rbt.Library>
libRbt.so (2013.1, Build901 2013/11/27)

>  <Rbt.Parameter_File>
/export/apps/rDock/src/rDock_2013.1_src/data/scripts/dock_solv.prm

>  <Rbt.Receptor>
prm/pocket_docking_5.prm

>  <SCORE>
-41.5994

>  <SCORE.INTER>
-41.5645

>  <SCORE.INTER.CONST>
1

>  <SCORE.INTER.POLAR>
-6.90878

>  <SCORE.INTER.ROT>
9

>  <SCORE.INTER.SOLV>
21.689

>  <SCORE.INTER.VDW>
-21.5101

>  <SCORE.INTER.norm>
-0.989632

>  <SCORE.INTRA>
-0.0348211

>  <SCORE.INTRA.DIHEDRAL>
-7.93714

>  <SCORE.INTRA.DIHEDRAL.0>
29.7866

>  <SCORE.INTRA.POLAR>
0.228444

>  <SCORE.INTRA.POLAR.0>
-0.984091

>  <SCORE.INTRA.REPUL>
-0.157365

>  <SCORE.INTRA.REPUL.0>
0.274115

>  <SCORE.INTRA.SOLV>
2.71582

>  <SCORE.INTRA.SOLV.lig_0>
-152.978

>  <SCORE.INTRA.VDW>
2.58596

>  <SCORE.INTRA.VDW.0>
-6.10719

>  <SCORE.INTRA.norm>
-0.000829073

>  <SCORE.RESTR>
0

>  <SCORE.RESTR.CAVITY>
0

>  <SCORE.RESTR.norm>
0

>  <SCORE.SYSTEM>
0

>  <SCORE.SYSTEM.CONST>
0

>  <SCORE.SYSTEM.DIHEDRAL>
0

>  <SCORE.SYSTEM.SOLV>
0

>  <SCORE.SYSTEM.norm>
0

>  <SCORE.heavy>
42

>  <SCORE.norm>
-0.990461

>  <RMSD>
7.530

$$$$
1pbr
 OpenBabel11021811403D
libRbt.so/2013.1/901 2013/11/27
 42 45  0  0  0  0  0  0  0  0999 V2000
    1.7068   -2.3298   43.5898 C   0  0  2  0  0  0  0  0  0  0  0  0
    1.5224   -1.5518   42.3799 O   0  0  0  0  0  0  0  0  0  0  0  0
    0.3619   -3.0284   44.0159 C   0  0  2  0  0  0  0  0  0  0  0  0
   -0.4192   -3.6009   42.8888 N   0  3  0  0  0  0  0  0  0  0  0  0
   -0.5811   -2.0492   44.7404 C   0  0  1  0  0  0  0  0  0  0  0  0
   -1.6658   -2.7474   45.3482 O   0  0  0  0  0  0  0  0  0  0  0  0
    0.1734   -1.2465   45.8109 C   0  0  2  0  0  0  0  0  0  0  0  0
   -0.7224   -0.3792   46.4990 O   0  0  0  0  0  0  0  0  0  0  0  0
    1.3676   -0.4904   45.1876 C   0  0  2  0  0  0  0  0  0  0  0  0
    2.2560   -1.4881   44.6411 O   0  0  0  0  0  0  0  0  0  0  0  0
    2.1638    0.3533   46.1818 C   0  0  0  0  0  0  0  0  0  0  0  0
    2.7847   -0.4614   47.1674 O   0  0  0  0  0  0  0  0  0  0  0  0
    3.7979    0.1350   39.1886 C   0  0  1  0  0  0  0  0  0  0  0  0
    4.8487    0.6131   38.2714 N   0  3  0  0  0  0  0  0  0  0  0  0
    3.7305   -1.4211   39.2494 C   0  0  2  0  0  0  0  0  0  0  0  0
    3.4727   -1.9590   37.9545 O   0  0  0  0  0  0  0  0  0  0  0  0
    2.6063   -1.9010   40.2135 C   0  0  1  0  0  0  0  0  0  0  0  0
    2.7038   -3.3489   40.3589 O   0  0  0  0  0  0  0  0  0  0  0  0
    2.7128   -1.2290   41.6214 C   0  0  1  0  0  0  0  0  0  0  0  0
    2.8347    0.3266   41.5435 C   0  0  1  0  0  0  0  0  0  0  0  0
    3.0336    0.9248   42.8822 N   0  3  0  0  0  0  0  0  0  0  0  0
    4.0023    0.7374   40.6094 C   0  0  0  0  0  0  0  0  0  0  0  0
    2.5088   -4.2154   39.1957 C   0  0  1  0  0  0  0  0  0  0  0  0
    3.5654   -5.3353   39.2323 C   0  0  2  0  0  0  0  0  0  0  0  0
    3.8232   -5.8389   37.9246 O   0  0  0  0  0  0  0  0  0  0  0  0
    2.8126   -6.3484   40.1081 C   0  0  1  0  0  0  0  0  0  0  0  0
    1.4040   -6.2845   39.5412 C   0  0  2  0  0  0  0  0  0  0  0  0
    1.2453   -4.8973   39.2865 O   0  0  0  0  0  0  0  0  0  0  0  0
    0.2985   -6.7842   40.4802 C   0  0  0  0  0  0  0  0  0  0  0  0
    0.4138   -8.1873   40.6656 O   0  0  0  0  0  0  0  0  0  0  0  0
    7.2312   -8.2244   41.8405 C   0  0  1  0  0  0  0  0  0  0  0  0
    6.7464   -8.6569   43.1104 O   0  0  0  0  0  0  0  0  0  0  0  0
    6.8166   -9.2540   40.7526 C   0  0  2  0  0  0  0  0  0  0  0  0
    7.6025   -9.0223   39.5858 O   0  0  0  0  0  0  0  0  0  0  0  0
    5.3048   -9.2341   40.3528 C   0  0  1  0  0  0  0  0  0  0  0  0
    4.5149  -10.0668   41.2865 N   0  3  0  0  0  0  0  0  0  0  0  0
    4.7586   -7.7873   40.2297 C   0  0  1  0  0  0  0  0  0  0  0  0
    3.3203   -7.7106   40.0732 O   0  0  0  0  0  0  0  0  0  0  0  0
    6.6515   -6.8308   41.4904 C   0  0  1  0  0  0  0  0  0  0  0  0
    5.2101   -6.9716   41.3629 O   0  0  0  0  0  0  0  0  0  0  0  0
    7.0100   -5.7330   42.5095 C   0  0  0  0  0  0  0  0  0  0  0  0
    6.5603   -4.3927   42.0853 N   0  3  0  0  0  0  0  0  0  0  0  0
  1  2  1  6  0  0  0
  1  3  1  0  0  0  0
  1 10  1  0  0  0  0
  3  4  1  6  0  0  0
  3  5  1  0  0  0  0
  5  6  1  1  0  0  0
  5  7  1  0  0  0  0
  7  8  1  6  0  0  0
  7  9  1  0  0  0  0
  9 10  1  0  0  0  0
  9 11  1  1  0  0  0
 11 12  1  0  0  0  0
 13 14  1  6  0  0  0
 13 15  1  0  0  0  0
 13 22  1  0  0  0  0
 15 16  1  6  0  0  0
 15 17  1  0  0  0  0
 17 18  1  1  0  0  0
 17 19  1  0  0  0  0
 19  2  1  1  0  0  0
 19 20  1  0  0  0  0
 20 21  1  1  0  0  0
 20 22  1  0  0  0  0
 23 18  1  1  0  0  0
 23 24  1  0  0  0  0
 23 28  1  0  0  0  0
 24 25  1  6  0  0  0
 24 26  1  0  0  0  0
 26 27  1  0  0  0  0
 26 38  1  6  0  0  0
 27 28  1  0  0  0  0
 27 29  1  1  0  0  0
 29 30  1  0  0  0  0
 31 32  1  1  0  0  0
 31 33  1  0  0  0  0
 31 39  1  0  0  0  0
 33 34  1  6  0  0  0
 33 35  1  0  0  0  0
 35 36  1  1  0  0  0
 35 37  1  0  0  0  0
 37 38  1  1  0  0  0
 37 40  1  0  0  0  0
 39 40  1  0  0  0  0
 39 41  1  1  0  0  0
 41 42  1  0  0  0  0
M  CHG  5   4   1  14   1  21   1  36   1  42   1
M  END
>  <CHROM.1>
-159.79239948,117.07675209,157.20289208,61.05453540,80.98178086,64.08948245
-50.48219718,117.67696257,63.79349360,-62.96163710,138.02755990,63.24537702
-73.29663915,47.44634809,-68.48845448,52.09871528,176.32552891,45.80393866
66.38662518,173.59679392,174.32014076,-168.84910127,3.10238107,-4.01257709
41.72189608,2.44034188,0.96313728,-0.30855837

>  <Name>
1pbr

>  <RI>
0

>  <Rbt.Current_Directory>
/home/itssahil/PROJECTS/Mol_Feturizer/New_Systems/rnas/1pbr

>  <Rbt.Executable>
rbdock ($Id: //depot/dev/client3/rdock/2013.1/src/exe/rbdock.cxx#4 $)

>  <Rbt.Library>
libRbt.so (2013.1, Build901 2013/11/27)

>  <Rbt.Parameter_File>
/export/apps/rDock/src/rDock_2013.1_src/data/scripts/dock_solv.prm

>  <Rbt.Receptor>
prm/pocket_docking_8.prm

>  <SCORE>
-28.6555

>  <SCORE.INTER>
-31.8457

>  <SCORE.INTER.CONST>
1

>  <SCORE.INTER.POLAR>
-5.06045

>  <SCORE.INTER.ROT>
9

>  <SCORE.INTER.SOLV>
15.8336

>  <SCORE.INTER.VDW>
-19.2402

>  <SCORE.INTER.norm>
-0.758231

>  <SCORE.INTRA>
3.19024

>  <SCORE.INTRA.DIHEDRAL>
-3.07889

>  <SCORE.INTRA.DIHEDRAL.0>
29.7866

>  <SCORE.INTRA.POLAR>
0.536617

>  <SCORE.INTRA.POLAR.0>
-0.984091

>  <SCORE.INTRA.REPUL>
-0.274115

>  <SCORE.INTRA.REPUL.0>
0.274115

>  <SCORE.INTRA.SOLV>
0.797264

>  <SCORE.INTRA.SOLV.lig_0>
-152.978

>  <SCORE.INTRA.VDW>
3.87713

>  <SCORE.INTRA.VDW.0>
-6.10719

>  <SCORE.INTRA.norm>
0.075958

>  <SCORE.RESTR>
0

>  <SCORE.RESTR.CAVITY>
0

>  <SCORE.RESTR.norm>
0

>  <SCORE.SYSTEM>
0

>  <SCORE.SYSTEM.CONST>
0

>  <SCORE.SYSTEM.DIHEDRAL>
0

>  <SCORE.SYSTEM.SOLV>
0

>  <SCORE.SYSTEM.norm>
0

>  <SCORE.heavy>
42

>  <SCORE.norm>
-0.682273

>  <RMSD>
7.556

$$$$
1pbr
 OpenBabel11021811403D
libRbt.so/2013.1/901 2013/11/27
 42 45  0  0  0  0  0  0  0  0999 V2000
    5.5188   -0.8345   38.7293 C   0  0  2  0  0  0  0  0  0  0  0  0
    5.4697    0.6010   38.9294 O   0  0  0  0  0  0  0  0  0  0  0  0
    6.5447   -1.2063   37.5945 C   0  0  2  0  0  0  0  0  0  0  0  0
    7.8100   -0.4277   37.6286 N   0  3  0  0  0  0  0  0  0  0  0  0
    5.9432   -0.9902   36.1930 C   0  0  1  0  0  0  0  0  0  0  0  0
    6.7730   -1.5735   35.1908 O   0  0  0  0  0  0  0  0  0  0  0  0
    4.5319   -1.5897   36.0998 C   0  0  2  0  0  0  0  0  0  0  0  0
    4.0099   -1.4191   34.7858 O   0  0  0  0  0  0  0  0  0  0  0  0
    3.6101   -0.9907   37.1852 C   0  0  2  0  0  0  0  0  0  0  0  0
    4.1827   -1.3434   38.4623 O   0  0  0  0  0  0  0  0  0  0  0  0
    2.1766   -1.5180   37.1515 C   0  0  0  0  0  0  0  0  0  0  0  0
    1.3713   -0.8840   38.1364 O   0  0  0  0  0  0  0  0  0  0  0  0
    2.7538    0.3191   42.2085 C   0  0  1  0  0  0  0  0  0  0  0  0
    1.8673    0.5567   43.3624 N   0  3  0  0  0  0  0  0  0  0  0  0
    2.1993    0.9542   40.8974 C   0  0  2  0  0  0  0  0  0  0  0  0
    0.9133    0.4203   40.5910 O   0  0  0  0  0  0  0  0  0  0  0  0
    3.1454    0.6791   39.6920 C   0  0  1  0  0  0  0  0  0  0  0  0
    2.6658    1.4357   38.5411 O   0  0  0  0  0  0  0  0  0  0  0  0
    4.6238    1.0841   40.0007 C   0  0  1  0  0  0  0  0  0  0  0  0
    5.1489    0.4853   41.3448 C   0  0  1  0  0  0  0  0  0  0  0  0
    6.5128    0.9655   41.6587 N   0  3  0  0  0  0  0  0  0  0  0  0
    4.1901    0.8373   42.5116 C   0  0  0  0  0  0  0  0  0  0  0  0
    2.1332    2.7865   38.7244 C   0  0  1  0  0  0  0  0  0  0  0  0
    2.5246    3.6408   37.5041 C   0  0  2  0  0  0  0  0  0  0  0  0
    2.5690    5.0245   37.8409 O   0  0  0  0  0  0  0  0  0  0  0  0
    1.3414    3.3034   36.5842 C   0  0  1  0  0  0  0  0  0  0  0  0
    0.1609    3.3588   37.5396 C   0  0  2  0  0  0  0  0  0  0  0  0
    0.6948    2.7627   38.7119 O   0  0  0  0  0  0  0  0  0  0  0  0
   -1.0898    2.5999   37.0777 C   0  0  0  0  0  0  0  0  0  0  0  0
   -2.1926    2.9248   37.9111 O   0  0  0  0  0  0  0  0  0  0  0  0
   -2.5013    6.5081   35.0930 C   0  0  1  0  0  0  0  0  0  0  0  0
   -1.8655    7.7797   35.2084 O   0  0  0  0  0  0  0  0  0  0  0  0
   -1.9947    5.7932   33.8093 C   0  0  2  0  0  0  0  0  0  0  0  0
   -2.8858    4.7229   33.5046 O   0  0  0  0  0  0  0  0  0  0  0  0
   -0.5384    5.2284   33.8874 C   0  0  1  0  0  0  0  0  0  0  0  0
    0.4418    6.2853   33.5539 N   0  3  0  0  0  0  0  0  0  0  0  0
   -0.2525    4.5545   35.2553 C   0  0  1  0  0  0  0  0  0  0  0  0
    1.1385    4.2062   35.4624 O   0  0  0  0  0  0  0  0  0  0  0  0
   -2.1889    5.6366   36.3355 C   0  0  1  0  0  0  0  0  0  0  0  0
   -0.7564    5.3890   36.3521 O   0  0  0  0  0  0  0  0  0  0  0  0
   -2.6564    6.2572   37.6653 C   0  0  0  0  0  0  0  0  0  0  0  0
   -4.1235    6.3992   37.7435 N   0  3  0  0  0  0  0  0  0  0  0  0
  1  2  1  6  0  0  0
  1  3  1  0  0  0  0
  1 10  1  0  0  0  0
  3  4  1  6  0  0  0
  3  5  1  0  0  0  0
  5  6  1  6  0  0  0
  5  7  1  0  0  0  0
  7  8  1  6  0  0  0
  7  9  1  0  0  0  0
  9 10  1  0  0  0  0
  9 11  1  1  0  0  0
 11 12  1  0  0  0  0
 13 14  1  1  0  0  0
 13 15  1  0  0  0  0
 13 22  1  0  0  0  0
 15 16  1  6  0  0  0
 15 17  1  0  0  0  0
 17 18  1  6  0  0  0
 17 19  1  0  0  0  0
 19  2  1  6  0  0  0
 19 20  1  0  0  0  0
 20 21  1  1  0  0  0
 20 22  1  0  0  0  0
 23 18  1  6  0  0  0
 23 24  1  0  0  0  0
 23 28  1  0  0  0  0
 24 25  1  1  0  0  0
 24 26  1  0  0  0  0
 26 27  1  0  0  0  0
 26 38  1  6  0  0  0
 27 28  1  0  0  0  0
 27 29  1  6  0  0  0
 29 30  1  0  0  0  0
 31 32  1  1  0  0  0
 31 33  1  0  0  0  0
 31 39  1  0  0  0  0
 33 34  1  1  0  0  0
 33 35  1  0  0  0  0
 35 36  1  1  0  0  0
 35 37  1  0  0  0  0
 37 38  1  1  0  0  0
 37 40  1  0  0  0  0
 39 40  1  0  0  0  0
 39 41  1  1  0  0  0
 41 42  1  0  0  0  0
M  CHG  5   4   1  14   1  21   1  36   1  42   1
M  END
>  <CHROM.1>
-176.44453983,-62.03744297,-39.56669804,-168.79867976,79.84725447,-177.45941604
59.30830296,49.65523465,-72.90447180,38.67113105,144.66272141,35.39382849
-179.51896793,-136.58132175,-169.09269664,-169.90514341,70.36917446,45.88880274
-49.09993946,-166.16665462,64.12138804,30.75051866,1.88086321,2.18093602
37.66860326,-0.43976130,0.69006269,-1.43540081

>  <Name>
1pbr

>  <RI>
0

>  <Rbt.Current_Directory>
/home/itssahil/PROJECTS/Mol_Feturizer/New_Systems/rnas/1pbr

>  <Rbt.Executable>
rbdock ($Id: //depot/dev/client3/rdock/2013.1/src/exe/rbdock.cxx#4 $)

>  <Rbt.Library>
libRbt.so (2013.1, Build901 2013/11/27)

>  <Rbt.Parameter_File>
/export/apps/rDock/src/rDock_2013.1_src/data/scripts/dock_solv.prm

>  <Rbt.Receptor>
prm/blind_docking_60.prm

>  <SCORE>
-42.3263

>  <SCORE.INTER>
-47.3557

>  <SCORE.INTER.CONST>
1

>  <SCORE.INTER.POLAR>
-7.13052

>  <SCORE.INTER.ROT>
9

>  <SCORE.INTER.SOLV>
33.0719

>  <SCORE.INTER.VDW>
-28.4261

>  <SCORE.INTER.norm>
-1.12752

>  <SCORE.INTRA>
3.92722

>  <SCORE.INTRA.DIHEDRAL>
-5.46802

>  <SCORE.INTRA.DIHEDRAL.0>
29.7866

>  <SCORE.INTRA.POLAR>
-0.0148581

>  <SCORE.INTRA.POLAR.0>
-0.984091

>  <SCORE.INTRA.REPUL>
-0.274115

>  <SCORE.INTRA.REPUL.0>
0.274115

>  <SCORE.INTRA.SOLV>
-1.31956

>  <SCORE.INTRA.SOLV.lig_0>
-152.978

>  <SCORE.INTRA.VDW>
8.74209

>  <SCORE.INTRA.VDW.0>
-6.10719

>  <SCORE.INTRA.norm>
0.0935051

>  <SCORE.RESTR>
1.10216

>  <SCORE.RESTR.CAVITY>
1.10216

>  <SCORE.RESTR.norm>
0.026242

>  <SCORE.SYSTEM>
0

>  <SCORE.SYSTEM.CONST>
0

>  <SCORE.SYSTEM.DIHEDRAL>
0

>  <SCORE.SYSTEM.SOLV>
0

>  <SCORE.SYSTEM.norm>
0

>  <SCORE.heavy>
42

>  <SCORE.norm>
-1.00777

>  <RMSD>
7.561

$$$$
1pbr
 OpenBabel11021811403D
libRbt.so/2013.1/901 2013/11/27
 42 45  0  0  0  0  0  0  0  0999 V2000
    3.8868   -0.1874   38.1453 C   0  0  2  0  0  0  0  0  0  0  0  0
    4.5540   -0.1872   39.4329 O   0  0  0  0  0  0  0  0  0  0  0  0
    4.1199   -1.5515   37.3948 C   0  0  2  0  0  0  0  0  0  0  0  0
    4.0367   -2.7546   38.2632 N   0  3  0  0  0  0  0  0  0  0  0  0
    5.5052   -1.5998   36.7230 C   0  0  1  0  0  0  0  0  0  0  0  0
    5.5993   -2.7130   35.8368 O   0  0  0  0  0  0  0  0  0  0  0  0
    5.7878   -0.3043   35.9473 C   0  0  2  0  0  0  0  0  0  0  0  0
    7.0526   -0.3848   35.2978 O   0  0  0  0  0  0  0  0  0  0  0  0
    5.6767    0.9250   36.8762 C   0  0  2  0  0  0  0  0  0  0  0  0
    4.3185    0.9605   37.3635 O   0  0  0  0  0  0  0  0  0  0  0  0
    5.9640    2.2587   36.1887 C   0  0  0  0  0  0  0  0  0  0  0  0
    5.5816    3.3543   37.0096 O   0  0  0  0  0  0  0  0  0  0  0  0
    2.4533    0.1157   43.1347 C   0  0  1  0  0  0  0  0  0  0  0  0
    1.7604    0.5541   44.3601 N   0  3  0  0  0  0  0  0  0  0  0  0
    1.6460    0.4570   41.8457 C   0  0  2  0  0  0  0  0  0  0  0  0
    0.3640   -0.1659   41.8819 O   0  0  0  0  0  0  0  0  0  0  0  0
    2.3912   -0.0267   40.5673 C   0  0  1  0  0  0  0  0  0  0  0  0
    1.6767    0.4680   39.3961 O   0  0  0  0  0  0  0  0  0  0  0  0
    3.8712    0.4762   40.5239 C   0  0  1  0  0  0  0  0  0  0  0  0
    4.6528    0.1762   41.8430 C   0  0  1  0  0  0  0  0  0  0  0  0
    6.0162    0.7504   41.8105 N   0  3  0  0  0  0  0  0  0  0  0  0
    3.8836    0.7271   43.0715 C   0  0  0  0  0  0  0  0  0  0  0  0
    1.4558    1.9048   39.2272 C   0  0  1  0  0  0  0  0  0  0  0  0
    1.8217    2.2936   37.7825 C   0  0  2  0  0  0  0  0  0  0  0  0
    2.1892    3.6677   37.6996 O   0  0  0  0  0  0  0  0  0  0  0  0
    0.4712    2.0107   37.1073 C   0  0  1  0  0  0  0  0  0  0  0  0
   -0.5186    2.5875   38.1059 C   0  0  2  0  0  0  0  0  0  0  0  0
    0.0559    2.2130   39.3487 O   0  0  0  0  0  0  0  0  0  0  0  0
   -1.9495    2.0456   37.9951 C   0  0  0  0  0  0  0  0  0  0  0  0
   -2.8796    3.1185   38.0118 O   0  0  0  0  0  0  0  0  0  0  0  0
   -0.8385    6.6282   34.6712 C   0  0  1  0  0  0  0  0  0  0  0  0
   -1.4419    6.2554   33.4336 O   0  0  0  0  0  0  0  0  0  0  0  0
   -1.6292    5.9849   35.8445 C   0  0  2  0  0  0  0  0  0  0  0  0
   -1.2651    6.6468   37.0535 O   0  0  0  0  0  0  0  0  0  0  0  0
   -1.4187    4.4464   36.0302 C   0  0  1  0  0  0  0  0  0  0  0  0
   -2.3325    3.6915   35.1447 N   0  3  0  0  0  0  0  0  0  0  0  0
    0.0672    4.0401   35.8462 C   0  0  1  0  0  0  0  0  0  0  0  0
    0.2858    2.6087   35.7948 O   0  0  0  0  0  0  0  0  0  0  0  0
    0.6367    6.1565   34.7132 C   0  0  1  0  0  0  0  0  0  0  0  0
    0.6370    4.7034   34.6678 O   0  0  0  0  0  0  0  0  0  0  0  0
    1.5107    6.7432   33.5889 C   0  0  0  0  0  0  0  0  0  0  0  0
    1.1788    8.1486   33.2833 N   0  3  0  0  0  0  0  0  0  0  0  0
  1  2  1  1  0  0  0
  1  3  1  0  0  0  0
  1 10  1  0  0  0  0
  3  4  1  1  0  0  0
  3  5  1  0  0  0  0
  5  6  1  6  0  0  0
  5  7  1  0  0  0  0
  7  8  1  1  0  0  0
  7  9  1  0  0  0  0
  9 10  1  0  0  0  0
  9 11  1  6  0  0  0
 11 12  1  0  0  0  0
 13 14  1  1  0  0  0
 13 15  1  0  0  0  0
 13 22  1  0  0  0  0
 15 16  1  1  0  0  0
 15 17  1  0  0  0  0
 17 18  1  6  0  0  0
 17 19  1  0  0  0  0
 19  2  1  6  0  0  0
 19 20  1  0  0  0  0
 20 21  1  6  0  0  0
 20 22  1  0  0  0  0
 23 18  1  6  0  0  0
 23 24  1  0  0  0  0
 23 28  1  0  0  0  0
 24 25  1  1  0  0  0
 24 26  1  0  0  0  0
 26 27  1  0  0  0  0
 26 38  1  6  0  0  0
 27 28  1  0  0  0  0
 27 29  1  6  0  0  0
 29 30  1  0  0  0  0
 31 32  1  6  0  0  0
 31 33  1  0  0  0  0
 31 39  1  0  0  0  0
 33 34  1  1  0  0  0
 33 35  1  0  0  0  0
 35 36  1  6  0  0  0
 35 37  1  0  0  0  0
 37 38  1  6  0  0  0
 37 40  1  0  0  0  0
 39 40  1  0  0  0  0
 39 41  1  6  0  0  0
 41 42  1  0  0  0  0
M  CHG  5   4   1  14   1  21   1  36   1  42   1
M  END
>  <CHROM.1>
-142.94253784,48.90683173,51.37218724,-123.44472078,156.32135797,167.97332401
176.87286061,56.44899608,-59.03181017,57.40536506,133.26921536,-68.15560489
-176.02966892,-73.50329984,-132.57093569,174.50487827,-58.12129317,-67.16775882
89.39491841,-87.43758234,37.88075612,-158.33592753,2.06013777,2.09325340
37.79306366,-0.89247939,0.54345189,-1.06918759

>  <Name>
1pbr

>  <RI>
0

>  <Rbt.Current_Directory>
/home/itssahil/PROJECTS/Mol_Feturizer/New_Systems/rnas/1pbr

>  <Rbt.Executable>
rbdock ($Id: //depot/dev/client3/rdock/2013.1/src/exe/rbdock.cxx#4 $)

>  <Rbt.Library>
libRbt.so (2013.1, Build901 2013/11/27)

>  <Rbt.Parameter_File>
/export/apps/rDock/src/rDock_2013.1_src/data/scripts/dock_solv.prm

>  <Rbt.Receptor>
prm/blind_docking_80.prm

>  <SCORE>
-38.7015

>  <SCORE.INTER>
-52.1534

>  <SCORE.INTER.CONST>
1

>  <SCORE.INTER.POLAR>
-7.53715

>  <SCORE.INTER.ROT>
9

>  <SCORE.INTER.SOLV>
34.4389

>  <SCORE.INTER.VDW>
-30.7247

>  <SCORE.INTER.norm>
-1.24175

>  <SCORE.INTRA>
10.7695

>  <SCORE.INTRA.DIHEDRAL>
6.80354

>  <SCORE.INTRA.DIHEDRAL.0>
29.7866

>  <SCORE.INTRA.POLAR>
0.983569

>  <SCORE.INTRA.POLAR.0>
-0.984091

>  <SCORE.INTRA.REPUL>
-0.274115

>  <SCORE.INTRA.REPUL.0>
0.274115

>  <SCORE.INTRA.SOLV>
1.22825

>  <SCORE.INTRA.SOLV.lig_0>
-152.978

>  <SCORE.INTRA.VDW>
4.78

>  <SCORE.INTRA.VDW.0>
-6.10719

>  <SCORE.INTRA.norm>
0.256416

>  <SCORE.RESTR>
2.68236

>  <SCORE.RESTR.CAVITY>
2.68236

>  <SCORE.RESTR.norm>
0.0638656

>  <SCORE.SYSTEM>
0

>  <SCORE.SYSTEM.CONST>
0

>  <SCORE.SYSTEM.DIHEDRAL>
0

>  <SCORE.SYSTEM.SOLV>
0

>  <SCORE.SYSTEM.norm>
0

>  <SCORE.heavy>
42

>  <SCORE.norm>
-0.921465

>  <RMSD>
7.596

$$$$
1pbr
 OpenBabel11021811403D
libRbt.so/2013.1/901 2013/11/27
 42 45  0  0  0  0  0  0  0  0999 V2000
    1.9673   -2.4555   40.0714 C   0  0  2  0  0  0  0  0  0  0  0  0
    1.7202   -3.6956   39.3612 O   0  0  0  0  0  0  0  0  0  0  0  0
    2.7308   -1.4286   39.1545 C   0  0  2  0  0  0  0  0  0  0  0  0
    2.2532   -1.3846   37.7480 N   0  3  0  0  0  0  0  0  0  0  0  0
    4.2382   -1.7388   39.0884 C   0  0  1  0  0  0  0  0  0  0  0  0
    4.9501   -0.6630   38.4808 O   0  0  0  0  0  0  0  0  0  0  0  0
    4.8093   -2.0020   40.4899 C   0  0  2  0  0  0  0  0  0  0  0  0
    6.2108   -2.2435   40.4135 O   0  0  0  0  0  0  0  0  0  0  0  0
    4.0475   -3.1527   41.1841 C   0  0  2  0  0  0  0  0  0  0  0  0
    2.6741   -2.7280   41.3130 O   0  0  0  0  0  0  0  0  0  0  0  0
    4.5658   -3.4960   42.5797 C   0  0  0  0  0  0  0  0  0  0  0  0
    3.5703   -4.1551   43.3511 O   0  0  0  0  0  0  0  0  0  0  0  0
    0.0417   -7.4758   40.4103 C   0  0  1  0  0  0  0  0  0  0  0  0
   -0.3126   -8.7678   41.0261 N   0  3  0  0  0  0  0  0  0  0  0  0
   -0.3514   -6.2653   41.3102 C   0  0  2  0  0  0  0  0  0  0  0  0
   -1.7540   -6.2697   41.5653 O   0  0  0  0  0  0  0  0  0  0  0  0
    0.0207   -4.9136   40.6335 C   0  0  1  0  0  0  0  0  0  0  0  0
   -0.2122   -3.8352   41.5874 O   0  0  0  0  0  0  0  0  0  0  0  0
    1.5127   -4.8810   40.1665 C   0  0  1  0  0  0  0  0  0  0  0  0
    1.9080   -6.1272   39.3112 C   0  0  1  0  0  0  0  0  0  0  0  0
    3.3475   -6.1180   38.9686 N   0  3  0  0  0  0  0  0  0  0  0  0
    1.5584   -7.4384   40.0615 C   0  0  0  0  0  0  0  0  0  0  0  0
    0.7377   -3.6045   42.6766 C   0  0  1  0  0  0  0  0  0  0  0  0
    0.6208   -2.1374   43.1305 C   0  0  2  0  0  0  0  0  0  0  0  0
    1.8335   -1.6884   43.7288 O   0  0  0  0  0  0  0  0  0  0  0  0
   -0.5119   -2.2922   44.1566 C   0  0  1  0  0  0  0  0  0  0  0  0
   -0.1163   -3.5643   44.8879 C   0  0  2  0  0  0  0  0  0  0  0  0
    0.3708   -4.3786   43.8323 O   0  0  0  0  0  0  0  0  0  0  0  0
   -1.2576   -4.2752   45.6266 C   0  0  0  0  0  0  0  0  0  0  0  0
   -1.9698   -5.1151   44.7301 O   0  0  0  0  0  0  0  0  0  0  0  0
    2.5287    0.8886   47.1242 C   0  0  1  0  0  0  0  0  0  0  0  0
    2.0042    2.1952   46.8945 O   0  0  0  0  0  0  0  0  0  0  0  0
    1.5405    0.0861   48.0159 C   0  0  2  0  0  0  0  0  0  0  0  0
    2.2237   -1.0497   48.5411 O   0  0  0  0  0  0  0  0  0  0  0  0
    0.2355   -0.3973   47.3025 C   0  0  1  0  0  0  0  0  0  0  0  0
   -0.7871    0.6718   47.3212 N   0  3  0  0  0  0  0  0  0  0  0  0
    0.5213   -0.9297   45.8736 C   0  0  1  0  0  0  0  0  0  0  0  0
   -0.6700   -1.1893   45.0911 O   0  0  0  0  0  0  0  0  0  0  0  0
    2.7380    0.1496   45.7786 C   0  0  1  0  0  0  0  0  0  0  0  0
    1.4324   -0.0250   45.1631 O   0  0  0  0  0  0  0  0  0  0  0  0
    3.7082    0.8645   44.8195 C   0  0  0  0  0  0  0  0  0  0  0  0
    4.2886   -0.0456   43.8128 N   0  3  0  0  0  0  0  0  0  0  0  0
  1  2  1  6  0  0  0
  1  3  1  0  0  0  0
  1 10  1  0  0  0  0
  3  4  1  6  0  0  0
  3  5  1  0  0  0  0
  5  6  1  1  0  0  0
  5  7  1  0  0  0  0
  7  8  1  6  0  0  0
  7  9  1  0  0  0  0
  9 10  1  0  0  0  0
  9 11  1  1  0  0  0
 11 12  1  0  0  0  0
 13 14  1  1  0  0  0
 13 15  1  0  0  0  0
 13 22  1  0  0  0  0
 15 16  1  6  0  0  0
 15 17  1  0  0  0  0
 17 18  1  1  0  0  0
 17 19  1  0  0  0  0
 19  2  1  6  0  0  0
 19 20  1  0  0  0  0
 20 21  1  1  0  0  0
 20 22  1  0  0  0  0
 23 18  1  6  0  0  0
 23 24  1  0  0  0  0
 23 28  1  0  0  0  0
 24 25  1  1  0  0  0
 24 26  1  0  0  0  0
 26 27  1  0  0  0  0
 26 38  1  1  0  0  0
 27 28  1  0  0  0  0
 27 29  1  6  0  0  0
 29 30  1  0  0  0  0
 31 32  1  6  0  0  0
 31 33  1  0  0  0  0
 31 39  1  0  0  0  0
 33 34  1  6  0  0  0
 33 35  1  0  0  0  0
 35 36  1  6  0  0  0
 35 37  1  0  0  0  0
 37 38  1  6  0  0  0
 37 40  1  0  0  0  0
 39 40  1  0  0  0  0
 39 41  1  6  0  0  0
 41 42  1  0  0  0  0
M  CHG  5   4   1  14   1  21   1  36   1  42   1
M  END
>  <CHROM.1>
156.88292539,82.48712398,88.60772332,-72.49952759,65.67863493,157.62319855
-81.58193454,-48.60120913,51.36841397,76.53760418,155.91952590,-173.44122112
68.87431757,-58.41820939,84.23111579,-71.52436029,24.68313005,59.09911995
-44.24717076,-147.98309636,158.21588972,-122.07511625,1.65224561,-2.77645159
42.78104929,-1.49594853,0.74512087,0.87347119

>  <Name>
1pbr

>  <RI>
0

>  <Rbt.Current_Directory>
/home/itssahil/PROJECTS/Mol_Feturizer/New_Systems/rnas/1pbr

>  <Rbt.Executable>
rbdock ($Id: //depot/dev/client3/rdock/2013.1/src/exe/rbdock.cxx#4 $)

>  <Rbt.Library>
libRbt.so (2013.1, Build901 2013/11/27)

>  <Rbt.Parameter_File>
/export/apps/rDock/src/rDock_2013.1_src/data/scripts/dock_solv.prm

>  <Rbt.Receptor>
prm/pocket_docking_2.prm

>  <SCORE>
3.0568

>  <SCORE.INTER>
-10.9757

>  <SCORE.INTER.CONST>
1

>  <SCORE.INTER.POLAR>
-2.51112

>  <SCORE.INTER.ROT>
9

>  <SCORE.INTER.SOLV>
28.6796

>  <SCORE.INTER.VDW>
-18.1066

>  <SCORE.INTER.norm>
-0.261326

>  <SCORE.INTRA>
8.4112

>  <SCORE.INTRA.DIHEDRAL>
3.16651

>  <SCORE.INTRA.DIHEDRAL.0>
29.7866

>  <SCORE.INTRA.POLAR>
-0.532058

>  <SCORE.INTRA.POLAR.0>
-0.984091

>  <SCORE.INTRA.REPUL>
-0.273196

>  <SCORE.INTRA.REPUL.0>
0.274115

>  <SCORE.INTRA.SOLV>
5.8799

>  <SCORE.INTRA.SOLV.lig_0>
-152.978

>  <SCORE.INTRA.VDW>
7.06297

>  <SCORE.INTRA.VDW.0>
-6.10719

>  <SCORE.INTRA.norm>
0.200267

>  <SCORE.RESTR>
5.62127

>  <SCORE.RESTR.CAVITY>
5.62127

>  <SCORE.RESTR.norm>
0.13384

>  <SCORE.SYSTEM>
0

>  <SCORE.SYSTEM.CONST>
0

>  <SCORE.SYSTEM.DIHEDRAL>
0

>  <SCORE.SYSTEM.SOLV>
0

>  <SCORE.SYSTEM.norm>
0

>  <SCORE.heavy>
42

>  <SCORE.norm>
0.0727809

>  <RMSD>
7.597

$$$$
1pbr
 OpenBabel11021811403D
libRbt.so/2013.1/901 2013/11/27
 42 45  0  0  0  0  0  0  0  0999 V2000
    5.2987   -0.0717   38.2803 C   0  0  2  0  0  0  0  0  0  0  0  0
    4.1419   -0.0437   39.1545 O   0  0  0  0  0  0  0  0  0  0  0  0
    5.2334    1.0979   37.2286 C   0  0  2  0  0  0  0  0  0  0  0  0
    4.7620    2.3955   37.7785 N   0  3  0  0  0  0  0  0  0  0  0  0
    4.2905    0.7572   36.0592 C   0  0  1  0  0  0  0  0  0  0  0  0
    4.4425    1.6958   34.9966 O   0  0  0  0  0  0  0  0  0  0  0  0
    4.5568   -0.6603   35.5306 C   0  0  2  0  0  0  0  0  0  0  0  0
    3.7067   -0.9410   34.4230 O   0  0  0  0  0  0  0  0  0  0  0  0
    4.4171   -1.7019   36.6628 C   0  0  2  0  0  0  0  0  0  0  0  0
    5.4151   -1.3793   37.6543 O   0  0  0  0  0  0  0  0  0  0  0  0
    4.6459   -3.1457   36.2186 C   0  0  0  0  0  0  0  0  0  0  0  0
    4.4482   -4.0532   37.2946 O   0  0  0  0  0  0  0  0  0  0  0  0
    4.1103   -0.1382   43.4204 C   0  0  1  0  0  0  0  0  0  0  0  0
    4.2583    0.1277   44.8630 N   0  3  0  0  0  0  0  0  0  0  0  0
    3.1120    0.8455   42.7380 C   0  0  2  0  0  0  0  0  0  0  0  0
    1.8256    0.7494   43.3449 O   0  0  0  0  0  0  0  0  0  0  0  0
    2.9632    0.5367   41.2194 C   0  0  1  0  0  0  0  0  0  0  0  0
    2.1566    1.5864   40.6074 O   0  0  0  0  0  0  0  0  0  0  0  0
    4.3479    0.4576   40.4972 C   0  0  1  0  0  0  0  0  0  0  0  0
    5.3570   -0.4894   41.2221 C   0  0  1  0  0  0  0  0  0  0  0  0
    6.6868   -0.4669   40.5736 N   0  3  0  0  0  0  0  0  0  0  0  0
    5.4979   -0.0978   42.7158 C   0  0  0  0  0  0  0  0  0  0  0  0
    0.8471    1.2645   40.0386 C   0  0  1  0  0  0  0  0  0  0  0  0
    0.3833    2.4473   39.1681 C   0  0  2  0  0  0  0  0  0  0  0  0
   -1.0375    2.4819   39.0664 O   0  0  0  0  0  0  0  0  0  0  0  0
    1.0519    2.0487   37.8437 C   0  0  1  0  0  0  0  0  0  0  0  0
    0.7767    0.5555   37.7773 C   0  0  2  0  0  0  0  0  0  0  0  0
    0.9565    0.1566   39.1275 O   0  0  0  0  0  0  0  0  0  0  0  0
    1.7110   -0.2408   36.8571 C   0  0  0  0  0  0  0  0  0  0  0  0
    1.6378    0.2654   35.5324 O   0  0  0  0  0  0  0  0  0  0  0  0
   -1.3784    6.5523   36.1255 C   0  0  1  0  0  0  0  0  0  0  0  0
   -1.7343    6.3336   34.7616 O   0  0  0  0  0  0  0  0  0  0  0  0
   -2.1162    5.5197   37.0226 C   0  0  2  0  0  0  0  0  0  0  0  0
   -2.0572    5.9692   38.3743 O   0  0  0  0  0  0  0  0  0  0  0  0
   -1.5646    4.0579   36.9542 C   0  0  1  0  0  0  0  0  0  0  0  0
   -2.1672    3.3336   35.8135 N   0  3  0  0  0  0  0  0  0  0  0  0
   -0.0137    4.0257   36.9340 C   0  0  1  0  0  0  0  0  0  0  0  0
    0.5461    2.7186   36.6563 O   0  0  0  0  0  0  0  0  0  0  0  0
    0.1531    6.4073   36.3109 C   0  0  1  0  0  0  0  0  0  0  0  0
    0.5069    5.0316   36.0009 O   0  0  0  0  0  0  0  0  0  0  0  0
    0.9794    7.3931   35.4640 C   0  0  0  0  0  0  0  0  0  0  0  0
    0.6646    8.8039   35.7624 N   0  3  0  0  0  0  0  0  0  0  0  0
  1  2  1  6  0  0  0
  1  3  1  0  0  0  0
  1 10  1  0  0  0  0
  3  4  1  1  0  0  0
  3  5  1  0  0  0  0
  5  6  1  6  0  0  0
  5  7  1  0  0  0  0
  7  8  1  6  0  0  0
  7  9  1  0  0  0  0
  9 10  1  0  0  0  0
  9 11  1  6  0  0  0
 11 12  1  0  0  0  0
 13 14  1  1  0  0  0
 13 15  1  0  0  0  0
 13 22  1  0  0  0  0
 15 16  1  1  0  0  0
 15 17  1  0  0  0  0
 17 18  1  6  0  0  0
 17 19  1  0  0  0  0
 19  2  1  6  0  0  0
 19 20  1  0  0  0  0
 20 21  1  6  0  0  0
 20 22  1  0  0  0  0
 23 18  1  6  0  0  0
 23 24  1  0  0  0  0
 23 28  1  0  0  0  0
 24 25  1  6  0  0  0
 24 26  1  0  0  0  0
 26 27  1  0  0  0  0
 26 38  1  6  0  0  0
 27 28  1  0  0  0  0
 27 29  1  6  0  0  0
 29 30  1  0  0  0  0
 31 32  1  6  0  0  0
 31 33  1  0  0  0  0
 31 39  1  0  0  0  0
 33 34  1  1  0  0  0
 33 35  1  0  0  0  0
 35 36  1  6  0  0  0
 35 37  1  0  0  0  0
 37 38  1  6  0  0  0
 37 40  1  0  0  0  0
 39 40  1  0  0  0  0
 39 41  1  6  0  0  0
 41 42  1  0  0  0  0
M  CHG  5   4   1  14   1  21   1  36   1  42   1
M  END
>  <CHROM.1>
-104.41371218,174.43683360,69.63788988,90.18627734,-178.21216199,-177.59014868
71.30826675,158.94318254,179.21215392,-115.12883006,-166.08164215,30.17706517
-57.16183213,27.06000806,-58.32451846,46.15654419,176.17402520,-61.78873597
-48.03542811,-102.81629272,59.16806843,172.70828447,2.21967141,1.73429844
38.16286476,-0.41042775,0.87772298,-1.58134719

>  <Name>
1pbr

>  <RI>
0

>  <Rbt.Current_Directory>
/home/itssahil/PROJECTS/Mol_Feturizer/New_Systems/rnas/1pbr

>  <Rbt.Executable>
rbdock ($Id: //depot/dev/client3/rdock/2013.1/src/exe/rbdock.cxx#4 $)

>  <Rbt.Library>
libRbt.so (2013.1, Build901 2013/11/27)

>  <Rbt.Parameter_File>
/export/apps/rDock/src/rDock_2013.1_src/data/scripts/dock_solv.prm

>  <Rbt.Receptor>
prm/blind_docking_60.prm

>  <SCORE>
-33.6081

>  <SCORE.INTER>
-43.2283

>  <SCORE.INTER.CONST>
1

>  <SCORE.INTER.POLAR>
-6.8006

>  <SCORE.INTER.ROT>
9

>  <SCORE.INTER.SOLV>
33.7695

>  <SCORE.INTER.VDW>
-27.0067

>  <SCORE.INTER.norm>
-1.02925

>  <SCORE.INTRA>
8.92769

>  <SCORE.INTRA.DIHEDRAL>
3.94035

>  <SCORE.INTRA.DIHEDRAL.0>
29.7866

>  <SCORE.INTRA.POLAR>
0.289255

>  <SCORE.INTRA.POLAR.0>
-0.984091

>  <SCORE.INTRA.REPUL>
-0.274115

>  <SCORE.INTRA.REPUL.0>
0.274115

>  <SCORE.INTRA.SOLV>
4.2694

>  <SCORE.INTRA.SOLV.lig_0>
-152.978

>  <SCORE.INTRA.VDW>
5.20992

>  <SCORE.INTRA.VDW.0>
-6.10719

>  <SCORE.INTRA.norm>
0.212564

>  <SCORE.RESTR>
0.692592

>  <SCORE.RESTR.CAVITY>
0.692592

>  <SCORE.RESTR.norm>
0.0164903

>  <SCORE.SYSTEM>
0

>  <SCORE.SYSTEM.CONST>
0

>  <SCORE.SYSTEM.DIHEDRAL>
0

>  <SCORE.SYSTEM.SOLV>
0

>  <SCORE.SYSTEM.norm>
0

>  <SCORE.heavy>
42

>  <SCORE.norm>
-0.800192

>  <RMSD>
7.646

$$$$
1pbr
 OpenBabel11021811403D
libRbt.so/2013.1/901 2013/11/27
 42 45  0  0  0  0  0  0  0  0999 V2000
    5.3708   -0.8535   38.7585 C   0  0  2  0  0  0  0  0  0  0  0  0
    5.3928    0.5725   39.0213 O   0  0  0  0  0  0  0  0  0  0  0  0
    6.4539   -1.2409   37.6838 C   0  0  2  0  0  0  0  0  0  0  0  0
    7.7575   -0.5456   37.8443 N   0  3  0  0  0  0  0  0  0  0  0  0
    5.9719   -0.9286   36.2545 C   0  0  1  0  0  0  0  0  0  0  0  0
    6.8374   -1.5202   35.2880 O   0  0  0  0  0  0  0  0  0  0  0  0
    4.5382   -1.4337   36.0330 C   0  0  2  0  0  0  0  0  0  0  0  0
    4.1260   -1.1754   34.6945 O   0  0  0  0  0  0  0  0  0  0  0  0
    3.5759   -0.8242   37.0766 C   0  0  2  0  0  0  0  0  0  0  0  0
    4.0302   -1.2657   38.3735 O   0  0  0  0  0  0  0  0  0  0  0  0
    2.1199   -1.2584   36.9161 C   0  0  0  0  0  0  0  0  0  0  0  0
    1.4953   -0.5772   35.8362 O   0  0  0  0  0  0  0  0  0  0  0  0
    2.7397    0.3234   42.3540 C   0  0  1  0  0  0  0  0  0  0  0  0
    1.8324    0.5763   43.4884 N   0  3  0  0  0  0  0  0  0  0  0  0
    2.1074    0.7335   40.9895 C   0  0  2  0  0  0  0  0  0  0  0  0
    0.8982    0.0125   40.7646 O   0  0  0  0  0  0  0  0  0  0  0  0
    3.0784    0.4452   39.8072 C   0  0  1  0  0  0  0  0  0  0  0  0
    2.5055    1.0024   38.5873 O   0  0  0  0  0  0  0  0  0  0  0  0
    4.4948    1.0634   40.0457 C   0  0  1  0  0  0  0  0  0  0  0  0
    5.0933    0.6891   41.4394 C   0  0  1  0  0  0  0  0  0  0  0  0
    6.3867    1.3677   41.6764 N   0  3  0  0  0  0  0  0  0  0  0  0
    4.1000    1.0472   42.5750 C   0  0  0  0  0  0  0  0  0  0  0  0
    2.0230    2.3840   38.5706 C   0  0  1  0  0  0  0  0  0  0  0  0
    1.9770    2.8728   37.1108 C   0  0  2  0  0  0  0  0  0  0  0  0
    2.0891    4.2915   37.0421 O   0  0  0  0  0  0  0  0  0  0  0  0
    0.5705    2.3814   36.7364 C   0  0  1  0  0  0  0  0  0  0  0  0
   -0.2407    2.7490   37.9678 C   0  0  2  0  0  0  0  0  0  0  0  0
    0.6585    2.4425   39.0224 O   0  0  0  0  0  0  0  0  0  0  0  0
   -1.5520    1.9720   38.1423 C   0  0  0  0  0  0  0  0  0  0  0  0
   -2.6464    2.8736   38.2171 O   0  0  0  0  0  0  0  0  0  0  0  0
   -0.3818    7.0998   34.2985 C   0  0  1  0  0  0  0  0  0  0  0  0
   -0.9710    6.8030   33.0338 O   0  0  0  0  0  0  0  0  0  0  0  0
   -1.3312    6.6247   35.4336 C   0  0  2  0  0  0  0  0  0  0  0  0
   -0.9276    7.2455   36.6519 O   0  0  0  0  0  0  0  0  0  0  0  0
   -1.3912    5.0775   35.6532 C   0  0  1  0  0  0  0  0  0  0  0  0
   -2.3690    4.4641   34.7277 N   0  3  0  0  0  0  0  0  0  0  0  0
    0.0137    4.4258   35.5606 C   0  0  1  0  0  0  0  0  0  0  0  0
   -0.0076    2.9772   35.5425 O   0  0  0  0  0  0  0  0  0  0  0  0
    0.9894    6.3908   34.4318 C   0  0  1  0  0  0  0  0  0  0  0  0
    0.7493    4.9571   34.4074 O   0  0  0  0  0  0  0  0  0  0  0  0
    2.0087    6.7973   33.3511 C   0  0  0  0  0  0  0  0  0  0  0  0
    2.4089    5.6667   32.4908 N   0  3  0  0  0  0  0  0  0  0  0  0
  1  2  1  6  0  0  0
  1  3  1  0  0  0  0
  1 10  1  0  0  0  0
  3  4  1  1  0  0  0
  3  5  1  0  0  0  0
  5  6  1  6  0  0  0
  5  7  1  0  0  0  0
  7  8  1  6  0  0  0
  7  9  1  0  0  0  0
  9 10  1  0  0  0  0
  9 11  1  6  0  0  0
 11 12  1  0  0  0  0
 13 14  1  1  0  0  0
 13 15  1  0  0  0  0
 13 22  1  0  0  0  0
 15 16  1  6  0  0  0
 15 17  1  0  0  0  0
 17 18  1  6  0  0  0
 17 19  1  0  0  0  0
 19  2  1  6  0  0  0
 19 20  1  0  0  0  0
 20 21  1  1  0  0  0
 20 22  1  0  0  0  0
 23 18  1  6  0  0  0
 23 24  1  0  0  0  0
 23 28  1  0  0  0  0
 24 25  1  1  0  0  0
 24 26  1  0  0  0  0
 26 27  1  0  0  0  0
 26 38  1  6  0  0  0
 27 28  1  0  0  0  0
 27 29  1  1  0  0  0
 29 30  1  0  0  0  0
 31 32  1  6  0  0  0
 31 33  1  0  0  0  0
 31 39  1  0  0  0  0
 33 34  1  1  0  0  0
 33 35  1  0  0  0  0
 35 36  1  6  0  0  0
 35 37  1  0  0  0  0
 37 38  1  6  0  0  0
 37 40  1  0  0  0  0
 39 40  1  0  0  0  0
 39 41  1  6  0  0  0
 41 42  1  0  0  0  0
M  CHG  5   4   1  14   1  21   1  36   1  42   1
M  END
>  <CHROM.1>
-176.77859460,-47.15164509,-48.49981073,-169.89478268,-32.40802308,-76.44637856
55.84262280,54.98583456,-54.86093873,49.65198082,158.95040753,45.74029125
167.42511664,-52.30206648,-122.89418769,-161.98688839,-174.95623935,-45.88125154
-97.09690241,-112.61118870,-117.08288234,138.10628468,2.19488169,2.07338914
37.43657804,-0.76341747,0.65443013,-1.21737193

>  <Name>
1pbr

>  <RI>
0

>  <Rbt.Current_Directory>
/home/itssahil/PROJECTS/Mol_Feturizer/New_Systems/rnas/1pbr

>  <Rbt.Executable>
rbdock ($Id: //depot/dev/client3/rdock/2013.1/src/exe/rbdock.cxx#4 $)

>  <Rbt.Library>
libRbt.so (2013.1, Build901 2013/11/27)

>  <Rbt.Parameter_File>
/export/apps/rDock/src/rDock_2013.1_src/data/scripts/dock_solv.prm

>  <Rbt.Receptor>
prm/blind_docking_80.prm

>  <SCORE>
-44.9382

>  <SCORE.INTER>
-57.7516

>  <SCORE.INTER.CONST>
1

>  <SCORE.INTER.POLAR>
-8.98473

>  <SCORE.INTER.ROT>
9

>  <SCORE.INTER.SOLV>
40.3349

>  <SCORE.INTER.VDW>
-31.597

>  <SCORE.INTER.norm>
-1.37504

>  <SCORE.INTRA>
10.8504

>  <SCORE.INTRA.DIHEDRAL>
6.08519

>  <SCORE.INTRA.DIHEDRAL.0>
29.7866

>  <SCORE.INTRA.POLAR>
0.059604

>  <SCORE.INTRA.POLAR.0>
-0.984091

>  <SCORE.INTRA.REPUL>
-0.274115

>  <SCORE.INTRA.REPUL.0>
0.274115

>  <SCORE.INTRA.SOLV>
-0.251961

>  <SCORE.INTRA.SOLV.lig_0>
-152.978

>  <SCORE.INTRA.VDW>
9.10173

>  <SCORE.INTRA.VDW.0>
-6.10719

>  <SCORE.INTRA.norm>
0.258343

>  <SCORE.RESTR>
1.96305

>  <SCORE.RESTR.CAVITY>
1.96305

>  <SCORE.RESTR.norm>
0.0467393

>  <SCORE.SYSTEM>
0

>  <SCORE.SYSTEM.CONST>
0

>  <SCORE.SYSTEM.DIHEDRAL>
0

>  <SCORE.SYSTEM.SOLV>
0

>  <SCORE.SYSTEM.norm>
0

>  <SCORE.heavy>
42

>  <SCORE.norm>
-1.06996

>  <RMSD>
7.654

$$$$
1pbr
 OpenBabel11021811403D
libRbt.so/2013.1/901 2013/11/27
 42 45  0  0  0  0  0  0  0  0999 V2000
    4.3125    0.0203   38.2380 C   0  0  2  0  0  0  0  0  0  0  0  0
    5.1115   -0.0071   39.4480 O   0  0  0  0  0  0  0  0  0  0  0  0
    4.1941   -1.4199   37.6134 C   0  0  2  0  0  0  0  0  0  0  0  0
    3.9844   -2.5064   38.6052 N   0  3  0  0  0  0  0  0  0  0  0  0
    5.4581   -1.7993   36.8190 C   0  0  1  0  0  0  0  0  0  0  0  0
    5.2362   -2.9778   36.0476 O   0  0  0  0  0  0  0  0  0  0  0  0
    5.8904   -0.6548   35.8901 C   0  0  2  0  0  0  0  0  0  0  0  0
    7.0334   -1.0398   35.1328 O   0  0  0  0  0  0  0  0  0  0  0  0
    6.1228    0.6440   36.6935 C   0  0  2  0  0  0  0  0  0  0  0  0
    4.8615    0.9904   37.3038 O   0  0  0  0  0  0  0  0  0  0  0  0
    6.5771    1.8322   35.8474 C   0  0  0  0  0  0  0  0  0  0  0  0
    7.5984    1.4536   34.9341 O   0  0  0  0  0  0  0  0  0  0  0  0
    2.8621    0.0551   43.0735 C   0  0  1  0  0  0  0  0  0  0  0  0
    2.1984    0.3961   44.3452 N   0  3  0  0  0  0  0  0  0  0  0  0
    2.2569    0.8315   41.8650 C   0  0  2  0  0  0  0  0  0  0  0  0
    0.8665    0.5446   41.7349 O   0  0  0  0  0  0  0  0  0  0  0  0
    2.9649    0.4454   40.5333 C   0  0  1  0  0  0  0  0  0  0  0  0
    2.4764    1.3216   39.4747 O   0  0  0  0  0  0  0  0  0  0  0  0
    4.5201    0.5718   40.6362 C   0  0  1  0  0  0  0  0  0  0  0  0
    5.1076   -0.1652   41.8822 C   0  0  1  0  0  0  0  0  0  0  0  0
    6.5654    0.0550   42.0077 N   0  3  0  0  0  0  0  0  0  0  0  0
    4.3957    0.3004   43.1787 C   0  0  0  0  0  0  0  0  0  0  0  0
    1.2068    1.0267   38.8091 C   0  0  1  0  0  0  0  0  0  0  0  0
    0.7561    2.2769   38.0306 C   0  0  2  0  0  0  0  0  0  0  0  0
   -0.6581    2.2897   37.8570 O   0  0  0  0  0  0  0  0  0  0  0  0
    1.5019    2.0216   36.7121 C   0  0  1  0  0  0  0  0  0  0  0  0
    1.2710    0.5360   36.4905 C   0  0  2  0  0  0  0  0  0  0  0  0
    1.3924    0.0137   37.8047 O   0  0  0  0  0  0  0  0  0  0  0  0
    2.2721   -0.1478   35.5504 C   0  0  0  0  0  0  0  0  0  0  0  0
    2.1655    0.3986   34.2441 O   0  0  0  0  0  0  0  0  0  0  0  0
    0.2270    7.0217   35.2190 C   0  0  1  0  0  0  0  0  0  0  0  0
   -0.8539    6.8732   34.3000 O   0  0  0  0  0  0  0  0  0  0  0  0
   -0.1479    6.3484   36.5687 C   0  0  2  0  0  0  0  0  0  0  0  0
    0.7503    6.8146   37.5729 O   0  0  0  0  0  0  0  0  0  0  0  0
   -0.1302    4.7846   36.5649 C   0  0  1  0  0  0  0  0  0  0  0  0
   -1.4203    4.2568   36.0687 N   0  3  0  0  0  0  0  0  0  0  0  0
    1.0879    4.2223   35.7860 C   0  0  1  0  0  0  0  0  0  0  0  0
    1.0395    2.7907   35.5679 O   0  0  0  0  0  0  0  0  0  0  0  0
    1.5112    6.3699   34.6476 C   0  0  1  0  0  0  0  0  0  0  0  0
    1.2628    4.9431   34.5198 O   0  0  0  0  0  0  0  0  0  0  0  0
    1.9715    6.9714   33.3065 C   0  0  0  0  0  0  0  0  0  0  0  0
    0.9839    6.7792   32.2266 N   0  3  0  0  0  0  0  0  0  0  0  0
  1  2  1  1  0  0  0
  1  3  1  0  0  0  0
  1 10  1  0  0  0  0
  3  4  1  1  0  0  0
  3  5  1  0  0  0  0
  5  6  1  6  0  0  0
  5  7  1  0  0  0  0
  7  8  1  1  0  0  0
  7  9  1  0  0  0  0
  9 10  1  0  0  0  0
  9 11  1  6  0  0  0
 11 12  1  0  0  0  0
 13 14  1  1  0  0  0
 13 15  1  0  0  0  0
 13 22  1  0  0  0  0
 15 16  1  6  0  0  0
 15 17  1  0  0  0  0
 17 18  1  6  0  0  0
 17 19  1  0  0  0  0
 19  2  1  6  0  0  0
 19 20  1  0  0  0  0
 20 21  1  1  0  0  0
 20 22  1  0  0  0  0
 23 18  1  6  0  0  0
 23 24  1  0  0  0  0
 23 28  1  0  0  0  0
 24 25  1  6  0  0  0
 24 26  1  0  0  0  0
 26 27  1  0  0  0  0
 26 38  1  6  0  0  0
 27 28  1  0  0  0  0
 27 29  1  6  0  0  0
 29 30  1  0  0  0  0
 31 32  1  6  0  0  0
 31 33  1  0  0  0  0
 31 39  1  0  0  0  0
 33 34  1  1  0  0  0
 33 35  1  0  0  0  0
 35 36  1  6  0  0  0
 35 37  1  0  0  0  0
 37 38  1  6  0  0  0
 37 40  1  0  0  0  0
 39 40  1  0  0  0  0
 39 41  1  6  0  0  0
 41 42  1  0  0  0  0
M  CHG  5   4   1  14   1  21   1  36   1  42   1
M  END
>  <CHROM.1>
-126.84493461,28.03687279,-174.12780583,61.21334216,-65.01428231,-45.20765170
67.18090845,0.03481261,50.39276936,-81.93280226,164.97965238,-17.70950919
-50.60968702,57.31112458,-63.68331330,-56.47671861,62.27891059,178.65733425
-37.82530588,-82.19883436,-62.74771896,-86.34769727,2.76698318,1.79291921
37.56648939,-0.90694527,0.75031283,-1.18894969

>  <Name>
1pbr

>  <RI>
0

>  <Rbt.Current_Directory>
/home/itssahil/PROJECTS/Mol_Feturizer/New_Systems/rnas/1pbr

>  <Rbt.Executable>
rbdock ($Id: //depot/dev/client3/rdock/2013.1/src/exe/rbdock.cxx#4 $)

>  <Rbt.Library>
libRbt.so (2013.1, Build901 2013/11/27)

>  <Rbt.Parameter_File>
/export/apps/rDock/src/rDock_2013.1_src/data/scripts/dock_solv.prm

>  <Rbt.Receptor>
prm/blind_docking_60.prm

>  <SCORE>
-26.9931

>  <SCORE.INTER>
-29.4583

>  <SCORE.INTER.CONST>
1

>  <SCORE.INTER.POLAR>
-2.73275

>  <SCORE.INTER.ROT>
9

>  <SCORE.INTER.SOLV>
23.8255

>  <SCORE.INTER.VDW>
-28.0715

>  <SCORE.INTER.norm>
-0.701387

>  <SCORE.INTRA>
2.4352

>  <SCORE.INTRA.DIHEDRAL>
-1.86249

>  <SCORE.INTRA.DIHEDRAL.0>
29.7866

>  <SCORE.INTRA.POLAR>
-0.701183

>  <SCORE.INTRA.POLAR.0>
-0.984091

>  <SCORE.INTRA.REPUL>
-0.274115

>  <SCORE.INTRA.REPUL.0>
0.274115

>  <SCORE.INTRA.SOLV>
4.02782

>  <SCORE.INTRA.SOLV.lig_0>
-152.978

>  <SCORE.INTRA.VDW>
5.10714

>  <SCORE.INTRA.VDW.0>
-6.10719

>  <SCORE.INTRA.norm>
0.057981

>  <SCORE.RESTR>
0.0300016

>  <SCORE.RESTR.CAVITY>
0.0300016

>  <SCORE.RESTR.norm>
0.000714325

>  <SCORE.SYSTEM>
0

>  <SCORE.SYSTEM.CONST>
0

>  <SCORE.SYSTEM.DIHEDRAL>
0

>  <SCORE.SYSTEM.SOLV>
0

>  <SCORE.SYSTEM.norm>
0

>  <SCORE.heavy>
42

>  <SCORE.norm>
-0.642692

>  <RMSD>
7.676

$$$$
1pbr
 OpenBabel11021811403D
libRbt.so/2013.1/901 2013/11/27
 42 45  0  0  0  0  0  0  0  0999 V2000
    5.0615   -0.5209   38.5308 C   0  0  2  0  0  0  0  0  0  0  0  0
    4.2033    0.6450   38.4444 O   0  0  0  0  0  0  0  0  0  0  0  0
    5.9827   -0.6327   37.2591 C   0  0  2  0  0  0  0  0  0  0  0  0
    6.5479    0.6598   36.7920 N   0  3  0  0  0  0  0  0  0  0  0  0
    5.2233   -1.2298   36.0593 C   0  0  1  0  0  0  0  0  0  0  0  0
    6.1249   -1.5693   35.0080 O   0  0  0  0  0  0  0  0  0  0  0  0
    4.4297   -2.4779   36.4743 C   0  0  2  0  0  0  0  0  0  0  0  0
    3.7701   -3.0407   35.3445 O   0  0  0  0  0  0  0  0  0  0  0  0
    3.4539   -2.1482   37.6257 C   0  0  2  0  0  0  0  0  0  0  0  0
    4.2568   -1.7135   38.7437 O   0  0  0  0  0  0  0  0  0  0  0  0
    2.6066   -3.3323   38.0883 C   0  0  0  0  0  0  0  0  0  0  0  0
    1.6540   -2.9336   39.0650 O   0  0  0  0  0  0  0  0  0  0  0  0
    2.5001    0.2506   42.3368 C   0  0  1  0  0  0  0  0  0  0  0  0
    1.9002    0.4534   43.6683 N   0  3  0  0  0  0  0  0  0  0  0  0
    1.5228    0.6331   41.1844 C   0  0  2  0  0  0  0  0  0  0  0  0
    0.3320   -0.1471   41.2621 O   0  0  0  0  0  0  0  0  0  0  0  0
    2.1738    0.3984   39.7898 C   0  0  1  0  0  0  0  0  0  0  0  0
    1.2834    0.9303   38.7644 O   0  0  0  0  0  0  0  0  0  0  0  0
    3.5730    1.0863   39.6709 C   0  0  1  0  0  0  0  0  0  0  0  0
    4.5235    0.7378   40.8608 C   0  0  1  0  0  0  0  0  0  0  0  0
    5.8006    1.4799   40.7728 N   0  3  0  0  0  0  0  0  0  0  0  0
    3.8357    1.0413   42.2170 C   0  0  0  0  0  0  0  0  0  0  0  0
    0.9969    2.3647   38.7172 C   0  0  1  0  0  0  0  0  0  0  0  0
    1.4746    2.9187   37.3619 C   0  0  2  0  0  0  0  0  0  0  0  0
    1.7684    4.3100   37.4524 O   0  0  0  0  0  0  0  0  0  0  0  0
    0.2125    2.6433   36.5306 C   0  0  1  0  0  0  0  0  0  0  0  0
   -0.8988    3.0651   37.4775 C   0  0  2  0  0  0  0  0  0  0  0  0
   -0.4237    2.5913   38.7283 O   0  0  0  0  0  0  0  0  0  0  0  0
   -2.2792    2.4699   37.1712 C   0  0  0  0  0  0  0  0  0  0  0  0
   -3.2302    2.9314   38.1194 O   0  0  0  0  0  0  0  0  0  0  0  0
   -0.8696    7.4880   34.4286 C   0  0  1  0  0  0  0  0  0  0  0  0
   -1.2511    7.2578   33.0735 O   0  0  0  0  0  0  0  0  0  0  0  0
   -1.8346    6.7187   35.3735 C   0  0  2  0  0  0  0  0  0  0  0  0
   -1.6889    7.2398   36.6925 O   0  0  0  0  0  0  0  0  0  0  0  0
   -1.6324    5.1686   35.4199 C   0  0  1  0  0  0  0  0  0  0  0  0
   -2.3726    4.5201   34.3151 N   0  3  0  0  0  0  0  0  0  0  0  0
   -0.1302    4.7822   35.4443 C   0  0  1  0  0  0  0  0  0  0  0  0
    0.1177    3.3652   35.2718 O   0  0  0  0  0  0  0  0  0  0  0  0
    0.5855    7.0112   34.6654 C   0  0  1  0  0  0  0  0  0  0  0  0
    0.6176    5.5723   34.4595 O   0  0  0  0  0  0  0  0  0  0  0  0
    1.6253    7.7184   33.7762 C   0  0  0  0  0  0  0  0  0  0  0  0
    3.0141    7.3766   34.1409 N   0  3  0  0  0  0  0  0  0  0  0  0
  1  2  1  6  0  0  0
  1  3  1  0  0  0  0
  1 10  1  0  0  0  0
  3  4  1  6  0  0  0
  3  5  1  0  0  0  0
  5  6  1  6  0  0  0
  5  7  1  0  0  0  0
  7  8  1  6  0  0  0
  7  9  1  0  0  0  0
  9 10  1  0  0  0  0
  9 11  1  1  0  0  0
 11 12  1  0  0  0  0
 13 14  1  1  0  0  0
 13 15  1  0  0  0  0
 13 22  1  0  0  0  0
 15 16  1  6  0  0  0
 15 17  1  0  0  0  0
 17 18  1  6  0  0  0
 17 19  1  0  0  0  0
 19  2  1  6  0  0  0
 19 20  1  0  0  0  0
 20 21  1  6  0  0  0
 20 22  1  0  0  0  0
 23 18  1  6  0  0  0
 23 24  1  0  0  0  0
 23 28  1  0  0  0  0
 24 25  1  1  0  0  0
 24 26  1  0  0  0  0
 26 27  1  0  0  0  0
 26 38  1  6  0  0  0
 27 28  1  0  0  0  0
 27 29  1  6  0  0  0
 29 30  1  0  0  0  0
 31 32  1  6  0  0  0
 31 33  1  0  0  0  0
 31 39  1  0  0  0  0
 33 34  1  1  0  0  0
 33 35  1  0  0  0  0
 35 36  1  6  0  0  0
 35 37  1  0  0  0  0
 37 38  1  6  0  0  0
 37 40  1  0  0  0  0
 39 40  1  0  0  0  0
 39 41  1  6  0  0  0
 41 42  1  0  0  0  0
M  CHG  5   4   1  14   1  21   1  36   1  42   1
M  END
>  <CHROM.1>
-163.65354319,-91.80432526,-58.67938884,-79.96678633,58.84891960,-174.93735568
-176.87550195,-71.10545217,65.60961437,63.95461927,119.21344689,69.31316794
-22.97669062,-71.01286800,179.88079542,-85.64564966,68.23721190,178.50949085
51.54910863,-92.73629583,172.53695038,-64.39150120,1.76513691,2.05788058
37.52416560,-0.89412650,0.65759287,-0.97373155

>  <Name>
1pbr

>  <RI>
0

>  <Rbt.Current_Directory>
/home/itssahil/PROJECTS/Mol_Feturizer/New_Systems/rnas/1pbr

>  <Rbt.Executable>
rbdock ($Id: //depot/dev/client3/rdock/2013.1/src/exe/rbdock.cxx#4 $)

>  <Rbt.Library>
libRbt.so (2013.1, Build901 2013/11/27)

>  <Rbt.Parameter_File>
/export/apps/rDock/src/rDock_2013.1_src/data/scripts/dock_solv.prm

>  <Rbt.Receptor>
prm/blind_docking_80.prm

>  <SCORE>
-47.9173

>  <SCORE.INTER>
-56.1688

>  <SCORE.INTER.CONST>
1

>  <SCORE.INTER.POLAR>
-8.95055

>  <SCORE.INTER.ROT>
9

>  <SCORE.INTER.SOLV>
44.4619

>  <SCORE.INTER.VDW>
-32.0314

>  <SCORE.INTER.norm>
-1.33735

>  <SCORE.INTRA>
5.1265

>  <SCORE.INTRA.DIHEDRAL>
-1.22261

>  <SCORE.INTRA.DIHEDRAL.0>
29.7866

>  <SCORE.INTRA.POLAR>
0.932151

>  <SCORE.INTRA.POLAR.0>
-0.984091

>  <SCORE.INTRA.REPUL>
-0.0381972

>  <SCORE.INTRA.REPUL.0>
0.274115

>  <SCORE.INTRA.SOLV>
-1.22587

>  <SCORE.INTRA.SOLV.lig_0>
-152.978

>  <SCORE.INTRA.VDW>
3.37242

>  <SCORE.INTRA.VDW.0>
-6.10719

>  <SCORE.INTRA.norm>
0.12206

>  <SCORE.RESTR>
3.12499

>  <SCORE.RESTR.CAVITY>
3.12499

>  <SCORE.RESTR.norm>
0.0744044

>  <SCORE.SYSTEM>
0

>  <SCORE.SYSTEM.CONST>
0

>  <SCORE.SYSTEM.DIHEDRAL>
0

>  <SCORE.SYSTEM.SOLV>
0

>  <SCORE.SYSTEM.norm>
0

>  <SCORE.heavy>
42

>  <SCORE.norm>
-1.14089

>  <RMSD>
7.716

$$$$
1pbr
 OpenBabel11021811403D
libRbt.so/2013.1/901 2013/11/27
 42 45  0  0  0  0  0  0  0  0999 V2000
    5.7257   -0.7818   38.9136 C   0  0  2  0  0  0  0  0  0  0  0  0
    5.5034    0.6302   39.1583 O   0  0  0  0  0  0  0  0  0  0  0  0
    7.2622   -1.0876   38.7588 C   0  0  2  0  0  0  0  0  0  0  0  0
    8.1343   -0.3647   39.7207 N   0  3  0  0  0  0  0  0  0  0  0  0
    7.7746   -0.7214   37.3531 C   0  0  1  0  0  0  0  0  0  0  0  0
    9.0850   -1.2422   37.1406 O   0  0  0  0  0  0  0  0  0  0  0  0
    6.8304   -1.2550   36.2653 C   0  0  2  0  0  0  0  0  0  0  0  0
    7.3425   -0.9452   34.9730 O   0  0  0  0  0  0  0  0  0  0  0  0
    5.3957   -0.7227   36.4765 C   0  0  2  0  0  0  0  0  0  0  0  0
    4.9520   -1.2124   37.7597 O   0  0  0  0  0  0  0  0  0  0  0  0
    4.3922   -1.1891   35.4233 C   0  0  0  0  0  0  0  0  0  0  0  0
    3.1701   -1.5994   36.0222 O   0  0  0  0  0  0  0  0  0  0  0  0
    2.7987   -0.0755   42.3823 C   0  0  1  0  0  0  0  0  0  0  0  0
    1.8985    0.0148   43.5465 N   0  3  0  0  0  0  0  0  0  0  0  0
    2.2148    0.6415   41.1275 C   0  0  2  0  0  0  0  0  0  0  0  0
    0.9590    0.0705   40.7674 O   0  0  0  0  0  0  0  0  0  0  0  0
    3.1765    0.5215   39.9092 C   0  0  1  0  0  0  0  0  0  0  0  0
    2.6607    1.3494   38.8249 O   0  0  0  0  0  0  0  0  0  0  0  0
    4.6312    0.9741   40.2617 C   0  0  1  0  0  0  0  0  0  0  0  0
    5.1837    0.2888   41.5524 C   0  0  1  0  0  0  0  0  0  0  0  0
    6.5201    0.8098   41.9158 N   0  3  0  0  0  0  0  0  0  0  0  0
    4.2054    0.4880   42.7388 C   0  0  0  0  0  0  0  0  0  0  0  0
    1.4063    0.9889   38.1628 C   0  0  1  0  0  0  0  0  0  0  0  0
    0.6827    2.2810   37.7399 C   0  0  2  0  0  0  0  0  0  0  0  0
   -0.7227    2.0705   37.6366 O   0  0  0  0  0  0  0  0  0  0  0  0
    1.3424    2.4887   36.3682 C   0  0  1  0  0  0  0  0  0  0  0  0
    1.3491    1.0814   35.7944 C   0  0  2  0  0  0  0  0  0  0  0  0
    1.6726    0.2952   36.9310 O   0  0  0  0  0  0  0  0  0  0  0  0
    2.3655    0.8386   34.6712 C   0  0  0  0  0  0  0  0  0  0  0  0
    2.0426   -0.3540   33.9713 O   0  0  0  0  0  0  0  0  0  0  0  0
   -2.1290    6.6090   36.2876 C   0  0  1  0  0  0  0  0  0  0  0  0
   -2.7290    6.5946   34.9936 O   0  0  0  0  0  0  0  0  0  0  0  0
   -2.3990    5.2523   36.9961 C   0  0  2  0  0  0  0  0  0  0  0  0
   -2.1341    5.4070   38.3884 O   0  0  0  0  0  0  0  0  0  0  0  0
   -1.5712    4.0393   36.4583 C   0  0  1  0  0  0  0  0  0  0  0  0
   -2.2439    3.4366   35.2865 N   0  3  0  0  0  0  0  0  0  0  0  0
   -0.0972    4.4279   36.1703 C   0  0  1  0  0  0  0  0  0  0  0  0
    0.6570    3.4065   35.4723 O   0  0  0  0  0  0  0  0  0  0  0  0
   -0.6020    6.8430   36.1691 C   0  0  1  0  0  0  0  0  0  0  0  0
   -0.0356    5.7089   35.4571 O   0  0  0  0  0  0  0  0  0  0  0  0
   -0.2263    8.1688   35.4813 C   0  0  0  0  0  0  0  0  0  0  0  0
    1.0981    8.6710   35.8962 N   0  3  0  0  0  0  0  0  0  0  0  0
  1  2  1  6  0  0  0
  1  3  1  0  0  0  0
  1 10  1  0  0  0  0
  3  4  1  1  0  0  0
  3  5  1  0  0  0  0
  5  6  1  6  0  0  0
  5  7  1  0  0  0  0
  7  8  1  6  0  0  0
  7  9  1  0  0  0  0
  9 10  1  0  0  0  0
  9 11  1  6  0  0  0
 11 12  1  0  0  0  0
 13 14  1  1  0  0  0
 13 15  1  0  0  0  0
 13 22  1  0  0  0  0
 15 16  1  6  0  0  0
 15 17  1  0  0  0  0
 17 18  1  6  0  0  0
 17 19  1  0  0  0  0
 19  2  1  6  0  0  0
 19 20  1  0  0  0  0
 20 21  1  1  0  0  0
 20 22  1  0  0  0  0
 23 18  1  6  0  0  0
 23 24  1  0  0  0  0
 23 28  1  0  0  0  0
 24 25  1  6  0  0  0
 24 26  1  0  0  0  0
 26 27  1  0  0  0  0
 26 38  1  6  0  0  0
 27 28  1  0  0  0  0
 27 29  1  6  0  0  0
 29 30  1  0  0  0  0
 31 32  1  6  0  0  0
 31 33  1  0  0  0  0
 31 39  1  0  0  0  0
 33 34  1  1  0  0  0
 33 35  1  0  0  0  0
 35 36  1  6  0  0  0
 35 37  1  0  0  0  0
 37 38  1  6  0  0  0
 37 40  1  0  0  0  0
 39 40  1  0  0  0  0
 39 41  1  6  0  0  0
 41 42  1  0  0  0  0
M  CHG  5   4   1  14   1  21   1  36   1  42   1
M  END
>  <CHROM.1>
-131.12421219,-67.60795018,99.23607867,-64.79775730,-161.76747219,135.66275208
152.68439359,-165.59791319,65.27255827,-67.34660292,146.78492354,-108.64105485
-72.69092443,28.42152953,-163.92974599,175.26500299,-59.76255038,-54.97621328
8.33983020,-91.02410093,153.97215852,161.51962999,2.55901391,1.73694464,37.72403358
-0.35837597,0.67684453,-1.45758499

>  <Name>
1pbr

>  <RI>
0

>  <Rbt.Current_Directory>
/home/itssahil/PROJECTS/Mol_Feturizer/New_Systems/rnas/1pbr

>  <Rbt.Executable>
rbdock ($Id: //depot/dev/client3/rdock/2013.1/src/exe/rbdock.cxx#4 $)

>  <Rbt.Library>
libRbt.so (2013.1, Build901 2013/11/27)

>  <Rbt.Parameter_File>
/export/apps/rDock/src/rDock_2013.1_src/data/scripts/dock_solv.prm

>  <Rbt.Receptor>
prm/blind_docking_60.prm

>  <SCORE>
-27.5711

>  <SCORE.INTER>
-52.3594

>  <SCORE.INTER.CONST>
1

>  <SCORE.INTER.POLAR>
-8.0895

>  <SCORE.INTER.ROT>
9

>  <SCORE.INTER.SOLV>
40.9494

>  <SCORE.INTER.VDW>
-31.191

>  <SCORE.INTER.norm>
-1.24665

>  <SCORE.INTRA>
23.1206

>  <SCORE.INTRA.DIHEDRAL>
13.3666

>  <SCORE.INTRA.DIHEDRAL.0>
29.7866

>  <SCORE.INTRA.POLAR>
0.309453

>  <SCORE.INTRA.POLAR.0>
-0.984091

>  <SCORE.INTRA.REPUL>
-0.267456

>  <SCORE.INTRA.REPUL.0>
0.274115

>  <SCORE.INTRA.SOLV>
7.62079

>  <SCORE.INTRA.SOLV.lig_0>
-152.978

>  <SCORE.INTRA.VDW>
12.9121

>  <SCORE.INTRA.VDW.0>
-6.10719

>  <SCORE.INTRA.norm>
0.550491

>  <SCORE.RESTR>
1.66763

>  <SCORE.RESTR.CAVITY>
1.66763

>  <SCORE.RESTR.norm>
0.0397055

>  <SCORE.SYSTEM>
0

>  <SCORE.SYSTEM.CONST>
0

>  <SCORE.SYSTEM.DIHEDRAL>
0

>  <SCORE.SYSTEM.SOLV>
0

>  <SCORE.SYSTEM.norm>
0

>  <SCORE.heavy>
42

>  <SCORE.norm>
-0.656455

>  <RMSD>
7.722

$$$$
1pbr
 OpenBabel11021811403D
libRbt.so/2013.1/901 2013/11/27
 42 45  0  0  0  0  0  0  0  0999 V2000
    4.0482    0.5479   38.5901 C   0  0  2  0  0  0  0  0  0  0  0  0
    4.8076    1.2137   39.6309 O   0  0  0  0  0  0  0  0  0  0  0  0
    4.4334   -0.9761   38.5046 C   0  0  2  0  0  0  0  0  0  0  0  0
    4.6111   -1.6415   39.8214 N   0  3  0  0  0  0  0  0  0  0  0  0
    5.7508   -1.1858   37.7344 C   0  0  1  0  0  0  0  0  0  0  0  0
    5.9487   -2.5662   37.4367 O   0  0  0  0  0  0  0  0  0  0  0  0
    5.7621   -0.3754   36.4295 C   0  0  2  0  0  0  0  0  0  0  0  0
    6.9678   -0.6156   35.7106 O   0  0  0  0  0  0  0  0  0  0  0  0
    5.5325    1.1253   36.7153 C   0  0  2  0  0  0  0  0  0  0  0  0
    4.2291    1.2412   37.3244 O   0  0  0  0  0  0  0  0  0  0  0  0
    5.5495    2.0107   35.4703 C   0  0  0  0  0  0  0  0  0  0  0  0
    4.3680    1.8378   34.6992 O   0  0  0  0  0  0  0  0  0  0  0  0
    2.9066    0.0014   43.2536 C   0  0  1  0  0  0  0  0  0  0  0  0
    2.2617   -0.0857   44.5766 N   0  3  0  0  0  0  0  0  0  0  0  0
    2.0104    0.7296   42.2067 C   0  0  2  0  0  0  0  0  0  0  0  0
    0.7679    0.0473   42.0546 O   0  0  0  0  0  0  0  0  0  0  0  0
    2.7070    0.7976   40.8161 C   0  0  1  0  0  0  0  0  0  0  0  0
    1.9018    1.6322   39.9318 O   0  0  0  0  0  0  0  0  0  0  0  0
    4.1530    1.3852   40.9110 C   0  0  1  0  0  0  0  0  0  0  0  0
    5.0230    0.6825   42.0019 C   0  0  1  0  0  0  0  0  0  0  0  0
    6.3495    1.3241   42.1368 N   0  3  0  0  0  0  0  0  0  0  0  0
    4.2961    0.6933   43.3715 C   0  0  0  0  0  0  0  0  0  0  0  0
    0.8124    1.0374   39.1564 C   0  0  1  0  0  0  0  0  0  0  0  0
   -0.4553    1.8897   39.3527 C   0  0  2  0  0  0  0  0  0  0  0  0
   -1.6316    1.1141   39.1407 O   0  0  0  0  0  0  0  0  0  0  0  0
   -0.2285    2.9199   38.2361 C   0  0  1  0  0  0  0  0  0  0  0  0
    0.2568    2.0520   37.0868 C   0  0  2  0  0  0  0  0  0  0  0  0
    1.0978    1.1197   37.7488 O   0  0  0  0  0  0  0  0  0  0  0  0
    1.0380    2.7923   35.9935 C   0  0  0  0  0  0  0  0  0  0  0  0
    2.3005    3.2079   36.4933 O   0  0  0  0  0  0  0  0  0  0  0  0
   -1.4748    7.1054   35.1949 C   0  0  1  0  0  0  0  0  0  0  0  0
   -2.6751    6.7256   34.5242 O   0  0  0  0  0  0  0  0  0  0  0  0
   -1.7856    7.3768   36.6934 C   0  0  2  0  0  0  0  0  0  0  0  0
   -0.6952    8.1007   37.2588 O   0  0  0  0  0  0  0  0  0  0  0  0
   -2.0501    6.1047   37.5638 C   0  0  1  0  0  0  0  0  0  0  0  0
   -3.4675    5.6941   37.4571 N   0  3  0  0  0  0  0  0  0  0  0  0
   -1.0649    4.9559   37.2226 C   0  0  1  0  0  0  0  0  0  0  0  0
   -1.3979    3.6892   37.8419 O   0  0  0  0  0  0  0  0  0  0  0  0
   -0.4142    5.9822   35.0753 C   0  0  1  0  0  0  0  0  0  0  0  0
   -0.9296    4.8127   35.7684 O   0  0  0  0  0  0  0  0  0  0  0  0
   -0.0318    5.6384   33.6235 C   0  0  0  0  0  0  0  0  0  0  0  0
   -1.0467    6.0798   32.6469 N   0  3  0  0  0  0  0  0  0  0  0  0
  1  2  1  1  0  0  0
  1  3  1  0  0  0  0
  1 10  1  0  0  0  0
  3  4  1  1  0  0  0
  3  5  1  0  0  0  0
  5  6  1  6  0  0  0
  5  7  1  0  0  0  0
  7  8  1  1  0  0  0
  7  9  1  0  0  0  0
  9 10  1  0  0  0  0
  9 11  1  6  0  0  0
 11 12  1  0  0  0  0
 13 14  1  1  0  0  0
 13 15  1  0  0  0  0
 13 22  1  0  0  0  0
 15 16  1  6  0  0  0
 15 17  1  0  0  0  0
 17 18  1  6  0  0  0
 17 19  1  0  0  0  0
 19  2  1  6  0  0  0
 19 20  1  0  0  0  0
 20 21  1  1  0  0  0
 20 22  1  0  0  0  0
 23 18  1  1  0  0  0
 23 24  1  0  0  0  0
 23 28  1  0  0  0  0
 24 25  1  6  0  0  0
 24 26  1  0  0  0  0
 26 27  1  0  0  0  0
 26 38  1  6  0  0  0
 27 28  1  0  0  0  0
 27 29  1  6  0  0  0
 29 30  1  0  0  0  0
 31 32  1  6  0  0  0
 31 33  1  0  0  0  0
 31 39  1  0  0  0  0
 33 34  1  1  0  0  0
 33 35  1  0  0  0  0
 35 36  1  6  0  0  0
 35 37  1  0  0  0  0
 37 38  1  6  0  0  0
 37 40  1  0  0  0  0
 39 40  1  0  0  0  0
 39 41  1  6  0  0  0
 41 42  1  0  0  0  0
M  CHG  5   4   1  14   1  21   1  36   1  42   1
M  END
>  <CHROM.1>
-97.76451835,-1.16630086,174.26610707,-172.06563773,67.74160392,73.32854277
-78.93088770,-148.51373281,171.16758717,-87.40143161,130.58241192,-0.56460997
59.59303250,156.62432164,69.64189588,51.06267899,62.53356497,179.67606795
64.53218845,-144.38083043,-20.01256502,-153.36077486,1.90677864,2.28755554
38.15349589,-0.69849275,0.60443787,-1.22086656

>  <Name>
1pbr

>  <RI>
0

>  <Rbt.Current_Directory>
/home/itssahil/PROJECTS/Mol_Feturizer/New_Systems/rnas/1pbr

>  <Rbt.Executable>
rbdock ($Id: //depot/dev/client3/rdock/2013.1/src/exe/rbdock.cxx#4 $)

>  <Rbt.Library>
libRbt.so (2013.1, Build901 2013/11/27)

>  <Rbt.Parameter_File>
/export/apps/rDock/src/rDock_2013.1_src/data/scripts/dock_solv.prm

>  <Rbt.Receptor>
prm/blind_docking_60.prm

>  <SCORE>
-27.5467

>  <SCORE.INTER>
-39.0264

>  <SCORE.INTER.CONST>
1

>  <SCORE.INTER.POLAR>
-5.18233

>  <SCORE.INTER.ROT>
9

>  <SCORE.INTER.SOLV>
28.1667

>  <SCORE.INTER.VDW>
-27.7321

>  <SCORE.INTER.norm>
-0.9292

>  <SCORE.INTRA>
10.5439

>  <SCORE.INTRA.DIHEDRAL>
14.8085

>  <SCORE.INTRA.DIHEDRAL.0>
29.7866

>  <SCORE.INTRA.POLAR>
-0.968546

>  <SCORE.INTRA.POLAR.0>
-0.984091

>  <SCORE.INTRA.REPUL>
-0.06851

>  <SCORE.INTRA.REPUL.0>
0.274115

>  <SCORE.INTRA.SOLV>
4.62098

>  <SCORE.INTRA.SOLV.lig_0>
-152.978

>  <SCORE.INTRA.VDW>
4.46475

>  <SCORE.INTRA.VDW.0>
-6.10719

>  <SCORE.INTRA.norm>
0.251045

>  <SCORE.RESTR>
0.935815

>  <SCORE.RESTR.CAVITY>
0.935815

>  <SCORE.RESTR.norm>
0.0222813

>  <SCORE.SYSTEM>
0

>  <SCORE.SYSTEM.CONST>
0

>  <SCORE.SYSTEM.DIHEDRAL>
0

>  <SCORE.SYSTEM.SOLV>
0

>  <SCORE.SYSTEM.norm>
0

>  <SCORE.heavy>
42

>  <SCORE.norm>
-0.655874

>  <RMSD>
7.723

$$$$
1pbr
 OpenBabel11021811403D
libRbt.so/2013.1/901 2013/11/27
 42 45  0  0  0  0  0  0  0  0999 V2000
    5.5844   -0.6138   38.5294 C   0  0  2  0  0  0  0  0  0  0  0  0
    5.3711    0.8086   38.7148 O   0  0  0  0  0  0  0  0  0  0  0  0
    6.5338   -0.8818   37.3026 C   0  0  2  0  0  0  0  0  0  0  0  0
    7.6859    0.0511   37.1997 N   0  3  0  0  0  0  0  0  0  0  0  0
    5.7756   -0.7797   35.9657 C   0  0  1  0  0  0  0  0  0  0  0  0
    6.5717   -1.2788   34.8930 O   0  0  0  0  0  0  0  0  0  0  0  0
    4.4507   -1.5550   36.0220 C   0  0  2  0  0  0  0  0  0  0  0  0
    3.7853   -1.4857   34.7648 O   0  0  0  0  0  0  0  0  0  0  0  0
    3.5700   -1.0498   37.1863 C   0  0  2  0  0  0  0  0  0  0  0  0
    4.3051   -1.2943   38.4042 O   0  0  0  0  0  0  0  0  0  0  0  0
    2.2197   -1.7549   37.3032 C   0  0  0  0  0  0  0  0  0  0  0  0
    1.6132   -1.5006   38.5633 O   0  0  0  0  0  0  0  0  0  0  0  0
    3.2669    0.3317   42.3961 C   0  0  1  0  0  0  0  0  0  0  0  0
    2.6169    0.4951   43.7094 N   0  3  0  0  0  0  0  0  0  0  0  0
    2.5324    1.1224   41.2714 C   0  0  2  0  0  0  0  0  0  0  0  0
    1.1798    0.6862   41.1584 O   0  0  0  0  0  0  0  0  0  0  0  0
    3.2293    0.9240   39.8935 C   0  0  1  0  0  0  0  0  0  0  0  0
    2.6048    1.8155   38.9228 O   0  0  0  0  0  0  0  0  0  0  0  0
    4.7627    1.2223   39.9619 C   0  0  1  0  0  0  0  0  0  0  0  0
    5.4766    0.4659   41.1276 C   0  0  1  0  0  0  0  0  0  0  0  0
    6.9035    0.8441   41.2288 N   0  3  0  0  0  0  0  0  0  0  0  0
    4.7655    0.7452   42.4770 C   0  0  0  0  0  0  0  0  0  0  0  0
    1.5269    1.3223   38.0645 C   0  0  1  0  0  0  0  0  0  0  0  0
    0.4147    2.3862   38.0090 C   0  0  2  0  0  0  0  0  0  0  0  0
   -0.8464    1.7936   37.7112 O   0  0  0  0  0  0  0  0  0  0  0  0
    0.9492    3.2331   36.8440 C   0  0  1  0  0  0  0  0  0  0  0  0
    1.4062    2.1736   35.8550 C   0  0  2  0  0  0  0  0  0  0  0  0
    1.9862    1.1976   36.7069 O   0  0  0  0  0  0  0  0  0  0  0  0
    2.4289    2.6486   34.8147 C   0  0  0  0  0  0  0  0  0  0  0  0
    2.9750    1.5345   34.1242 O   0  0  0  0  0  0  0  0  0  0  0  0
    0.7270    7.4393   33.5425 C   0  0  1  0  0  0  0  0  0  0  0  0
   -0.5093    7.3186   32.8411 O   0  0  0  0  0  0  0  0  0  0  0  0
    0.4438    7.7968   35.0283 C   0  0  2  0  0  0  0  0  0  0  0  0
    1.6506    8.2754   35.6175 O   0  0  0  0  0  0  0  0  0  0  0  0
   -0.1143    6.6275   35.9041 C   0  0  1  0  0  0  0  0  0  0  0  0
   -1.5838    6.5335   35.7606 N   0  3  0  0  0  0  0  0  0  0  0  0
    0.6053    5.2863   35.6040 C   0  0  1  0  0  0  0  0  0  0  0  0
   -0.0119    4.1330   36.2268 O   0  0  0  0  0  0  0  0  0  0  0  0
    1.5199    6.1104   33.4657 C   0  0  1  0  0  0  0  0  0  0  0  0
    0.7440    5.0928   34.1560 O   0  0  0  0  0  0  0  0  0  0  0  0
    1.8559    5.6673   32.0295 C   0  0  0  0  0  0  0  0  0  0  0  0
    2.6489    4.4232   31.9874 N   0  3  0  0  0  0  0  0  0  0  0  0
  1  2  1  6  0  0  0
  1  3  1  0  0  0  0
  1 10  1  0  0  0  0
  3  4  1  6  0  0  0
  3  5  1  0  0  0  0
  5  6  1  6  0  0  0
  5  7  1  0  0  0  0
  7  8  1  6  0  0  0
  7  9  1  0  0  0  0
  9 10  1  0  0  0  0
  9 11  1  1  0  0  0
 11 12  1  0  0  0  0
 13 14  1  1  0  0  0
 13 15  1  0  0  0  0
 13 22  1  0  0  0  0
 15 16  1  6  0  0  0
 15 17  1  0  0  0  0
 17 18  1  6  0  0  0
 17 19  1  0  0  0  0
 19  2  1  6  0  0  0
 19 20  1  0  0  0  0
 20 21  1  1  0  0  0
 20 22  1  0  0  0  0
 23 18  1  1  0  0  0
 23 24  1  0  0  0  0
 23 28  1  0  0  0  0
 24 25  1  6  0  0  0
 24 26  1  0  0  0  0
 26 27  1  0  0  0  0
 26 38  1  6  0  0  0
 27 28  1  0  0  0  0
 27 29  1  6  0  0  0
 29 30  1  0  0  0  0
 31 32  1  6  0  0  0
 31 33  1  0  0  0  0
 31 39  1  0  0  0  0
 33 34  1  1  0  0  0
 33 35  1  0  0  0  0
 35 36  1  6  0  0  0
 35 37  1  0  0  0  0
 37 38  1  6  0  0  0
 37 40  1  0  0  0  0
 39 40  1  0  0  0  0
 39 41  1  6  0  0  0
 41 42  1  0  0  0  0
M  CHG  5   4   1  14   1  21   1  36   1  42   1
M  END
>  <CHROM.1>
-167.06663832,-76.78541108,93.49762492,67.72013811,-60.27816669,165.06711509
-65.33367370,-54.52457909,-56.77657578,-95.07656804,136.52380261,60.05377681
-175.98490326,153.66307449,168.56939647,171.81886687,174.51806438,66.65002481
47.58467234,-135.53146950,178.11475275,-175.34408115,2.69991320,2.09965593
37.14569255,-0.85697043,0.84538473,-1.27377300

>  <Name>
1pbr

>  <RI>
0

>  <Rbt.Current_Directory>
/home/itssahil/PROJECTS/Mol_Feturizer/New_Systems/rnas/1pbr

>  <Rbt.Executable>
rbdock ($Id: //depot/dev/client3/rdock/2013.1/src/exe/rbdock.cxx#4 $)

>  <Rbt.Library>
libRbt.so (2013.1, Build901 2013/11/27)

>  <Rbt.Parameter_File>
/export/apps/rDock/src/rDock_2013.1_src/data/scripts/dock_solv.prm

>  <Rbt.Receptor>
prm/blind_docking_80.prm

>  <SCORE>
-42.4488

>  <SCORE.INTER>
-41.2073

>  <SCORE.INTER.CONST>
1

>  <SCORE.INTER.POLAR>
-6.35461

>  <SCORE.INTER.ROT>
9

>  <SCORE.INTER.SOLV>
31.982

>  <SCORE.INTER.VDW>
-26.5502

>  <SCORE.INTER.norm>
-0.981126

>  <SCORE.INTRA>
-2.7728

>  <SCORE.INTRA.DIHEDRAL>
-2.45426

>  <SCORE.INTRA.DIHEDRAL.0>
29.7866

>  <SCORE.INTRA.POLAR>
0.0190882

>  <SCORE.INTRA.POLAR.0>
-0.984091

>  <SCORE.INTRA.REPUL>
-0.274115

>  <SCORE.INTRA.REPUL.0>
0.274115

>  <SCORE.INTRA.SOLV>
1.30182

>  <SCORE.INTRA.SOLV.lig_0>
-152.978

>  <SCORE.INTRA.VDW>
-0.890901

>  <SCORE.INTRA.VDW.0>
-6.10719

>  <SCORE.INTRA.norm>
-0.0660189

>  <SCORE.RESTR>
1.53133

>  <SCORE.RESTR.CAVITY>
1.53133

>  <SCORE.RESTR.norm>
0.0364602

>  <SCORE.SYSTEM>
0

>  <SCORE.SYSTEM.CONST>
0

>  <SCORE.SYSTEM.DIHEDRAL>
0

>  <SCORE.SYSTEM.SOLV>
0

>  <SCORE.SYSTEM.norm>
0

>  <SCORE.heavy>
42

>  <SCORE.norm>
-1.01068

>  <RMSD>
7.732

$$$$
1pbr
 OpenBabel11021811403D
libRbt.so/2013.1/901 2013/11/27
 42 45  0  0  0  0  0  0  0  0999 V2000
    5.4493   -0.6584   38.8481 C   0  0  2  0  0  0  0  0  0  0  0  0
    5.3775    0.7735   39.0661 O   0  0  0  0  0  0  0  0  0  0  0  0
    6.4997   -1.0015   37.7269 C   0  0  2  0  0  0  0  0  0  0  0  0
    7.7537   -0.2069   37.7934 N   0  3  0  0  0  0  0  0  0  0  0  0
    5.9199   -0.7748   36.3180 C   0  0  1  0  0  0  0  0  0  0  0  0
    6.7748   -1.3336   35.3230 O   0  0  0  0  0  0  0  0  0  0  0  0
    4.5186   -1.3914   36.1921 C   0  0  2  0  0  0  0  0  0  0  0  0
    4.0173   -1.2103   34.8714 O   0  0  0  0  0  0  0  0  0  0  0  0
    3.5701   -0.8192   37.2688 C   0  0  2  0  0  0  0  0  0  0  0  0
    4.1250   -1.1812   38.5511 O   0  0  0  0  0  0  0  0  0  0  0  0
    2.1446   -1.3648   37.2029 C   0  0  0  0  0  0  0  0  0  0  0  0
    1.4551   -0.8682   36.0634 O   0  0  0  0  0  0  0  0  0  0  0  0
    2.8560    0.4118   42.4894 C   0  0  1  0  0  0  0  0  0  0  0  0
    2.0683    0.6126   43.7195 N   0  3  0  0  0  0  0  0  0  0  0  0
    2.2815    1.2142   41.2829 C   0  0  2  0  0  0  0  0  0  0  0  0
    0.9356    0.8235   41.0210 O   0  0  0  0  0  0  0  0  0  0  0  0
    3.1219    0.9761   39.9942 C   0  0  1  0  0  0  0  0  0  0  0  0
    2.6428    1.8773   38.9524 O   0  0  0  0  0  0  0  0  0  0  0  0
    4.6474    1.2223   40.2333 C   0  0  1  0  0  0  0  0  0  0  0  0
    5.1980    0.4553   41.4779 C   0  0  1  0  0  0  0  0  0  0  0  0
    6.6170    0.7853   41.7370 N   0  3  0  0  0  0  0  0  0  0  0  0
    4.3497    0.7744   42.7361 C   0  0  0  0  0  0  0  0  0  0  0  0
    1.6181    1.4264   38.0098 C   0  0  1  0  0  0  0  0  0  0  0  0
    0.4586    2.4400   38.0198 C   0  0  2  0  0  0  0  0  0  0  0  0
   -0.7624    1.8253   37.6178 O   0  0  0  0  0  0  0  0  0  0  0  0
    0.9893    3.4237   36.9659 C   0  0  1  0  0  0  0  0  0  0  0  0
    1.5282    2.4914   35.8935 C   0  0  2  0  0  0  0  0  0  0  0  0
    2.1264    1.4606   36.6645 O   0  0  0  0  0  0  0  0  0  0  0  0
    2.5600    3.1145   34.9444 C   0  0  0  0  0  0  0  0  0  0  0  0
    2.8887    2.1970   33.9117 O   0  0  0  0  0  0  0  0  0  0  0  0
    0.7405    7.8942   34.0617 C   0  0  1  0  0  0  0  0  0  0  0  0
   -0.3997    7.7346   33.2196 O   0  0  0  0  0  0  0  0  0  0  0  0
    0.2722    8.1097   35.5280 C   0  0  2  0  0  0  0  0  0  0  0  0
    1.3645    8.6317   36.2809 O   0  0  0  0  0  0  0  0  0  0  0  0
   -0.2736    6.8350   36.2511 C   0  0  1  0  0  0  0  0  0  0  0  0
   -1.7063    6.6395   35.9376 N   0  3  0  0  0  0  0  0  0  0  0  0
    0.5856    5.5814   35.9396 C   0  0  1  0  0  0  0  0  0  0  0  0
    0.0066    4.3380   36.4065 O   0  0  0  0  0  0  0  0  0  0  0  0
    1.6477    6.6408   33.9808 C   0  0  1  0  0  0  0  0  0  0  0  0
    0.8928    5.5148   34.5063 O   0  0  0  0  0  0  0  0  0  0  0  0
    2.1704    6.3404   32.5635 C   0  0  0  0  0  0  0  0  0  0  0  0
    2.3610    4.8972   32.3201 N   0  3  0  0  0  0  0  0  0  0  0  0
  1  2  1  6  0  0  0
  1  3  1  0  0  0  0
  1 10  1  0  0  0  0
  3  4  1  1  0  0  0
  3  5  1  0  0  0  0
  5  6  1  6  0  0  0
  5  7  1  0  0  0  0
  7  8  1  6  0  0  0
  7  9  1  0  0  0  0
  9 10  1  0  0  0  0
  9 11  1  6  0  0  0
 11 12  1  0  0  0  0
 13 14  1  1  0  0  0
 13 15  1  0  0  0  0
 13 22  1  0  0  0  0
 15 16  1  6  0  0  0
 15 17  1  0  0  0  0
 17 18  1  6  0  0  0
 17 19  1  0  0  0  0
 19  2  1  6  0  0  0
 19 20  1  0  0  0  0
 20 21  1  1  0  0  0
 20 22  1  0  0  0  0
 23 18  1  1  0  0  0
 23 24  1  0  0  0  0
 23 28  1  0  0  0  0
 24 25  1  6  0  0  0
 24 26  1  0  0  0  0
 26 27  1  0  0  0  0
 26 38  1  6  0  0  0
 27 28  1  0  0  0  0
 27 29  1  6  0  0  0
 29 30  1  0  0  0  0
 31 32  1  6  0  0  0
 31 33  1  0  0  0  0
 31 39  1  0  0  0  0
 33 34  1  1  0  0  0
 33 35  1  0  0  0  0
 35 36  1  6  0  0  0
 35 37  1  0  0  0  0
 37 38  1  6  0  0  0
 37 40  1  0  0  0  0
 39 40  1  0  0  0  0
 39 41  1  6  0  0  0
 41 42  1  0  0  0  0
M  CHG  5   4   1  14   1  21   1  36   1  42   1
M  END
>  <CHROM.1>
-168.64626277,-71.02134576,86.89132998,-166.82881191,75.86948863,-70.74645122
43.31816680,48.11284894,70.76649439,-92.97684131,126.60715626,-85.84289727
-165.85847951,152.98181405,-174.20824047,66.51275302,-61.03898916,-59.27615884
86.23117125,-140.17655635,-148.47046284,164.11599824,2.64186632,2.29812991
37.29175686,-0.79741954,0.88489998,-1.28863467

>  <Name>
1pbr

>  <RI>
0

>  <Rbt.Current_Directory>
/home/itssahil/PROJECTS/Mol_Feturizer/New_Systems/rnas/1pbr

>  <Rbt.Executable>
rbdock ($Id: //depot/dev/client3/rdock/2013.1/src/exe/rbdock.cxx#4 $)

>  <Rbt.Library>
libRbt.so (2013.1, Build901 2013/11/27)

>  <Rbt.Parameter_File>
/export/apps/rDock/src/rDock_2013.1_src/data/scripts/dock_solv.prm

>  <Rbt.Receptor>
prm/blind_docking_60.prm

>  <SCORE>
-41.3599

>  <SCORE.INTER>
-48.1497

>  <SCORE.INTER.CONST>
1

>  <SCORE.INTER.POLAR>
-7.39069

>  <SCORE.INTER.ROT>
9

>  <SCORE.INTER.SOLV>
32.0967

>  <SCORE.INTER.VDW>
-27.7631

>  <SCORE.INTER.norm>
-1.14642

>  <SCORE.INTRA>
5.81346

>  <SCORE.INTRA.DIHEDRAL>
5.01036

>  <SCORE.INTRA.DIHEDRAL.0>
29.7866

>  <SCORE.INTRA.POLAR>
-0.056722

>  <SCORE.INTRA.POLAR.0>
-0.984091

>  <SCORE.INTRA.REPUL>
-0.0255192

>  <SCORE.INTRA.REPUL.0>
0.274115

>  <SCORE.INTRA.SOLV>
3.26466

>  <SCORE.INTRA.SOLV.lig_0>
-152.978

>  <SCORE.INTRA.VDW>
1.99639

>  <SCORE.INTRA.VDW.0>
-6.10719

>  <SCORE.INTRA.norm>
0.138416

>  <SCORE.RESTR>
0.976331

>  <SCORE.RESTR.CAVITY>
0.976331

>  <SCORE.RESTR.norm>
0.023246

>  <SCORE.SYSTEM>
0

>  <SCORE.SYSTEM.CONST>
0

>  <SCORE.SYSTEM.DIHEDRAL>
0

>  <SCORE.SYSTEM.SOLV>
0

>  <SCORE.SYSTEM.norm>
0

>  <SCORE.heavy>
42

>  <SCORE.norm>
-0.98476

>  <RMSD>
7.737

$$$$
1pbr
 OpenBabel11021811403D
libRbt.so/2013.1/901 2013/11/27
 42 45  0  0  0  0  0  0  0  0999 V2000
    4.2263   -1.2865   38.5045 C   0  0  2  0  0  0  0  0  0  0  0  0
    3.7265   -0.7965   37.2343 O   0  0  0  0  0  0  0  0  0  0  0  0
    3.0658   -1.9295   39.3517 C   0  0  2  0  0  0  0  0  0  0  0  0
    2.1185   -2.7630   38.5666 N   0  3  0  0  0  0  0  0  0  0  0  0
    2.2144   -0.8554   40.0546 C   0  0  1  0  0  0  0  0  0  0  0  0
    1.3453   -1.4483   41.0171 O   0  0  0  0  0  0  0  0  0  0  0  0
    3.1040    0.1893   40.7451 C   0  0  2  0  0  0  0  0  0  0  0  0
    2.3006    1.1485   41.4254 O   0  0  0  0  0  0  0  0  0  0  0  0
    4.0716    0.8399   39.7317 C   0  0  2  0  0  0  0  0  0  0  0  0
    4.9087   -0.2161   39.2144 O   0  0  0  0  0  0  0  0  0  0  0  0
    4.9823    1.9097   40.3318 C   0  0  0  0  0  0  0  0  0  0  0  0
    5.8877    1.3470   41.2722 O   0  0  0  0  0  0  0  0  0  0  0  0
    7.6180    0.0238   35.6880 C   0  0  1  0  0  0  0  0  0  0  0  0
    8.7983    0.3238   34.8569 N   0  3  0  0  0  0  0  0  0  0  0  0
    6.6338    1.2296   35.7730 C   0  0  2  0  0  0  0  0  0  0  0  0
    7.2899    2.3697   36.3227 O   0  0  0  0  0  0  0  0  0  0  0  0
    5.4033    0.8931   36.6653 C   0  0  1  0  0  0  0  0  0  0  0  0
    4.4442    1.9875   36.5685 O   0  0  0  0  0  0  0  0  0  0  0  0
    4.7129   -0.4424   36.2352 C   0  0  1  0  0  0  0  0  0  0  0  0
    5.7193   -1.6298   36.1008 C   0  0  1  0  0  0  0  0  0  0  0  0
    5.0548   -2.8523   35.5975 N   0  3  0  0  0  0  0  0  0  0  0  0
    6.8922   -1.2486   35.1610 C   0  0  0  0  0  0  0  0  0  0  0  0
    3.2756    2.0158   37.4491 C   0  0  1  0  0  0  0  0  0  0  0  0
    2.6410    3.4175   37.3815 C   0  0  2  0  0  0  0  0  0  0  0  0
    1.9123    3.7075   38.5712 O   0  0  0  0  0  0  0  0  0  0  0  0
    1.7188    3.2064   36.1712 C   0  0  1  0  0  0  0  0  0  0  0  0
    1.1375    1.8286   36.4419 C   0  0  2  0  0  0  0  0  0  0  0  0
    2.2577    1.1259   36.9576 O   0  0  0  0  0  0  0  0  0  0  0  0
    0.5734    1.1043   35.2127 C   0  0  0  0  0  0  0  0  0  0  0  0
   -0.5387    1.8187   34.6939 O   0  0  0  0  0  0  0  0  0  0  0  0
    0.8758    7.6687   33.4529 C   0  0  1  0  0  0  0  0  0  0  0  0
   -0.3932    7.4588   32.8362 O   0  0  0  0  0  0  0  0  0  0  0  0
    0.6739    7.9299   34.9717 C   0  0  2  0  0  0  0  0  0  0  0  0
    1.8713    8.4979   35.4973 O   0  0  0  0  0  0  0  0  0  0  0  0
    0.2971    6.6734   35.8232 C   0  0  1  0  0  0  0  0  0  0  0  0
   -1.1635    6.4420   35.7802 N   0  3  0  0  0  0  0  0  0  0  0  0
    1.1155    5.4241   35.4033 C   0  0  1  0  0  0  0  0  0  0  0  0
    0.6593    4.1890   36.0078 O   0  0  0  0  0  0  0  0  0  0  0  0
    1.7829    6.4289   33.2509 C   0  0  1  0  0  0  0  0  0  0  0  0
    1.1615    5.3102   33.9410 O   0  0  0  0  0  0  0  0  0  0  0  0
    2.0491    6.0858   31.7733 C   0  0  0  0  0  0  0  0  0  0  0  0
    2.7218    4.7831   31.6028 N   0  3  0  0  0  0  0  0  0  0  0  0
  1  2  1  6  0  0  0
  1  3  1  0  0  0  0
  1 10  1  0  0  0  0
  3  4  1  6  0  0  0
  3  5  1  0  0  0  0
  5  6  1  1  0  0  0
  5  7  1  0  0  0  0
  7  8  1  6  0  0  0
  7  9  1  0  0  0  0
  9 10  1  0  0  0  0
  9 11  1  1  0  0  0
 11 12  1  0  0  0  0
 13 14  1  6  0  0  0
 13 15  1  0  0  0  0
 13 22  1  0  0  0  0
 15 16  1  1  0  0  0
 15 17  1  0  0  0  0
 17 18  1  6  0  0  0
 17 19  1  0  0  0  0
 19  2  1  1  0  0  0
 19 20  1  0  0  0  0
 20 21  1  6  0  0  0
 20 22  1  0  0  0  0
 23 18  1  6  0  0  0
 23 24  1  0  0  0  0
 23 28  1  0  0  0  0
 24 25  1  1  0  0  0
 24 26  1  0  0  0  0
 26 27  1  0  0  0  0
 26 38  1  1  0  0  0
 27 28  1  0  0  0  0
 27 29  1  6  0  0  0
 29 30  1  0  0  0  0
 31 32  1  6  0  0  0
 31 33  1  0  0  0  0
 31 39  1  0  0  0  0
 33 34  1  1  0  0  0
 33 35  1  0  0  0  0
 35 36  1  6  0  0  0
 35 37  1  0  0  0  0
 37 38  1  1  0  0  0
 37 40  1  0  0  0  0
 39 40  1  0  0  0  0
 39 41  1  6  0  0  0
 41 42  1  0  0  0  0
M  CHG  5   4   1  14   1  21   1  36   1  42   1
M  END
>  <CHROM.1>
-167.13994660,-72.85138982,-58.02498999,-47.06219789,-175.11030624,65.64218467
166.59693657,65.77433825,176.06196785,-171.68495096,166.18384738,-57.59980794
-176.91498493,79.72471252,-64.35656062,-51.07743627,179.58346097,-78.00506116
85.74959962,-151.48600224,-170.44089748,79.12874289,3.05339139,2.19307592
36.65750234,1.03110567,-0.61302374,2.27348093

>  <Name>
1pbr

>  <RI>
0

>  <Rbt.Current_Directory>
/home/itssahil/PROJECTS/Mol_Feturizer/New_Systems/rnas/1pbr

>  <Rbt.Executable>
rbdock ($Id: //depot/dev/client3/rdock/2013.1/src/exe/rbdock.cxx#4 $)

>  <Rbt.Library>
libRbt.so (2013.1, Build901 2013/11/27)

>  <Rbt.Parameter_File>
/export/apps/rDock/src/rDock_2013.1_src/data/scripts/dock_solv.prm

>  <Rbt.Receptor>
prm/blind_docking_80.prm

>  <SCORE>
-22.4145

>  <SCORE.INTER>
-26.3263

>  <SCORE.INTER.CONST>
1

>  <SCORE.INTER.POLAR>
-3.95419

>  <SCORE.INTER.ROT>
9

>  <SCORE.INTER.SOLV>
34.7159

>  <SCORE.INTER.VDW>
-25.5422

>  <SCORE.INTER.norm>
-0.626817

>  <SCORE.INTRA>
-0.381119

>  <SCORE.INTRA.DIHEDRAL>
-14.4725

>  <SCORE.INTRA.DIHEDRAL.0>
29.7866

>  <SCORE.INTRA.POLAR>
0.978536

>  <SCORE.INTRA.POLAR.0>
-0.984091

>  <SCORE.INTRA.REPUL>
0.10013

>  <SCORE.INTRA.REPUL.0>
0.274115

>  <SCORE.INTRA.SOLV>
-2.66061

>  <SCORE.INTRA.SOLV.lig_0>
-152.978

>  <SCORE.INTRA.VDW>
4.35774

>  <SCORE.INTRA.VDW.0>
-6.10719

>  <SCORE.INTRA.norm>
-0.00907425

>  <SCORE.RESTR>
4.29288

>  <SCORE.RESTR.CAVITY>
4.29288

>  <SCORE.RESTR.norm>
0.102211

>  <SCORE.SYSTEM>
0

>  <SCORE.SYSTEM.CONST>
0

>  <SCORE.SYSTEM.DIHEDRAL>
0

>  <SCORE.SYSTEM.SOLV>
0

>  <SCORE.SYSTEM.norm>
0

>  <SCORE.heavy>
42

>  <SCORE.norm>
-0.53368

>  <RMSD>
7.767

$$$$
1pbr
 OpenBabel11021811403D
libRbt.so/2013.1/901 2013/11/27
 42 45  0  0  0  0  0  0  0  0999 V2000
    1.8455   -0.1176   39.7771 C   0  0  2  0  0  0  0  0  0  0  0  0
    1.5893   -1.4947   39.4013 O   0  0  0  0  0  0  0  0  0  0  0  0
    0.7018    0.4296   40.7102 C   0  0  2  0  0  0  0  0  0  0  0  0
    0.2309   -0.5347   41.7382 N   0  3  0  0  0  0  0  0  0  0  0  0
   -0.5432    0.8391   39.9010 C   0  0  1  0  0  0  0  0  0  0  0  0
   -1.4577    1.5705   40.7147 O   0  0  0  0  0  0  0  0  0  0  0  0
   -0.1539    1.6877   38.6811 C   0  0  2  0  0  0  0  0  0  0  0  0
   -1.3196    2.0931   37.9705 O   0  0  0  0  0  0  0  0  0  0  0  0
    0.8514    0.9300   37.7857 C   0  0  2  0  0  0  0  0  0  0  0  0
    2.0300    0.6950   38.5850 O   0  0  0  0  0  0  0  0  0  0  0  0
    1.2777    1.6956   36.5342 C   0  0  0  0  0  0  0  0  0  0  0  0
    0.1665    1.9589   35.6879 O   0  0  0  0  0  0  0  0  0  0  0  0
    3.8998   -4.9208   38.3376 C   0  0  1  0  0  0  0  0  0  0  0  0
    4.9300   -5.9627   38.1735 N   0  3  0  0  0  0  0  0  0  0  0  0
    3.3011   -4.9038   39.7766 C   0  0  2  0  0  0  0  0  0  0  0  0
    2.7145   -6.1658   40.0865 O   0  0  0  0  0  0  0  0  0  0  0  0
    2.2077   -3.8050   39.9211 C   0  0  1  0  0  0  0  0  0  0  0  0
    1.8103   -3.7244   41.3220 O   0  0  0  0  0  0  0  0  0  0  0  0
    2.7145   -2.4050   39.4433 C   0  0  1  0  0  0  0  0  0  0  0  0
    3.3616   -2.4467   38.0220 C   0  0  1  0  0  0  0  0  0  0  0  0
    3.9200   -1.1310   37.6392 N   0  3  0  0  0  0  0  0  0  0  0  0
    4.4748   -3.5244   37.9595 C   0  0  0  0  0  0  0  0  0  0  0  0
    2.4028   -4.6339   42.3037 C   0  0  1  0  0  0  0  0  0  0  0  0
    3.3768   -3.8359   43.1905 C   0  0  2  0  0  0  0  0  0  0  0  0
    4.3799   -4.6846   43.7417 O   0  0  0  0  0  0  0  0  0  0  0  0
    2.3845   -3.3412   44.2538 C   0  0  1  0  0  0  0  0  0  0  0  0
    1.5408   -4.5786   44.5117 C   0  0  2  0  0  0  0  0  0  0  0  0
    1.3945   -5.1195   43.2076 O   0  0  0  0  0  0  0  0  0  0  0  0
    0.1650   -4.3128   45.1362 C   0  0  0  0  0  0  0  0  0  0  0  0
   -0.6014   -5.5081   45.1536 O   0  0  0  0  0  0  0  0  0  0  0  0
    2.2417    1.1123   47.0400 C   0  0  1  0  0  0  0  0  0  0  0  0
    1.7506    0.6711   48.3045 O   0  0  0  0  0  0  0  0  0  0  0  0
    3.7289    0.6872   46.8879 C   0  0  2  0  0  0  0  0  0  0  0  0
    4.3078    1.4360   45.8217 O   0  0  0  0  0  0  0  0  0  0  0  0
    3.9664   -0.8352   46.6203 C   0  0  1  0  0  0  0  0  0  0  0  0
    3.9969   -1.5832   47.8964 N   0  3  0  0  0  0  0  0  0  0  0  0
    2.9390   -1.4117   45.6109 C   0  0  1  0  0  0  0  0  0  0  0  0
    2.9765   -2.8550   45.4898 O   0  0  0  0  0  0  0  0  0  0  0  0
    1.4013    0.4970   45.8929 C   0  0  1  0  0  0  0  0  0  0  0  0
    1.5862   -0.9445   45.9345 O   0  0  0  0  0  0  0  0  0  0  0  0
   -0.0937    0.8628   45.9504 C   0  0  0  0  0  0  0  0  0  0  0  0
   -0.8401    0.0576   46.9368 N   0  3  0  0  0  0  0  0  0  0  0  0
  1  2  1  6  0  0  0
  1  3  1  0  0  0  0
  1 10  1  0  0  0  0
  3  4  1  1  0  0  0
  3  5  1  0  0  0  0
  5  6  1  1  0  0  0
  5  7  1  0  0  0  0
  7  8  1  6  0  0  0
  7  9  1  0  0  0  0
  9 10  1  0  0  0  0
  9 11  1  6  0  0  0
 11 12  1  0  0  0  0
 13 14  1  1  0  0  0
 13 15  1  0  0  0  0
 13 22  1  0  0  0  0
 15 16  1  6  0  0  0
 15 17  1  0  0  0  0
 17 18  1  1  0  0  0
 17 19  1  0  0  0  0
 19  2  1  6  0  0  0
 19 20  1  0  0  0  0
 20 21  1  1  0  0  0
 20 22  1  0  0  0  0
 23 18  1  6  0  0  0
 23 24  1  0  0  0  0
 23 28  1  0  0  0  0
 24 25  1  1  0  0  0
 24 26  1  0  0  0  0
 26 27  1  0  0  0  0
 26 38  1  1  0  0  0
 27 28  1  0  0  0  0
 27 29  1  6  0  0  0
 29 30  1  0  0  0  0
 31 32  1  1  0  0  0
 31 33  1  0  0  0  0
 31 39  1  0  0  0  0
 33 34  1  6  0  0  0
 33 35  1  0  0  0  0
 35 36  1  1  0  0  0
 35 37  1  0  0  0  0
 37 38  1  1  0  0  0
 37 40  1  0  0  0  0
 39 40  1  0  0  0  0
 39 41  1  1  0  0  0
 41 42  1  0  0  0  0
M  CHG  5   4   1  14   1  21   1  36   1  42   1
M  END
>  <CHROM.1>
-136.55266810,143.99280906,171.77353140,-169.83570504,-174.91985936,-61.67428584
179.70996675,165.86797116,-54.68831827,-1.96673667,107.69250915,-177.04158636
-59.40547547,105.75032577,171.71196245,-59.41310709,157.37344283,91.46683400
-34.06589914,-159.52951743,-79.06051424,51.01370004,1.91539467,-1.60547964
42.11434382,1.68108251,1.16496664,-1.63020662

>  <Name>
1pbr

>  <RI>
0

>  <Rbt.Current_Directory>
/home/itssahil/PROJECTS/Mol_Feturizer/New_Systems/rnas/1pbr

>  <Rbt.Executable>
rbdock ($Id: //depot/dev/client3/rdock/2013.1/src/exe/rbdock.cxx#4 $)

>  <Rbt.Library>
libRbt.so (2013.1, Build901 2013/11/27)

>  <Rbt.Parameter_File>
/export/apps/rDock/src/rDock_2013.1_src/data/scripts/dock_solv.prm

>  <Rbt.Receptor>
prm/pocket_docking_4.prm

>  <SCORE>
-49.6213

>  <SCORE.INTER>
-56.5334

>  <SCORE.INTER.CONST>
1

>  <SCORE.INTER.POLAR>
-7.89155

>  <SCORE.INTER.ROT>
9

>  <SCORE.INTER.SOLV>
31.7581

>  <SCORE.INTER.VDW>
-31.5697

>  <SCORE.INTER.norm>
-1.34603

>  <SCORE.INTRA>
6.9121

>  <SCORE.INTRA.DIHEDRAL>
13.6538

>  <SCORE.INTRA.DIHEDRAL.0>
29.7866

>  <SCORE.INTRA.POLAR>
-0.79241

>  <SCORE.INTRA.POLAR.0>
-0.984091

>  <SCORE.INTRA.REPUL>
-0.274115

>  <SCORE.INTRA.REPUL.0>
0.274115

>  <SCORE.INTRA.SOLV>
2.21626

>  <SCORE.INTRA.SOLV.lig_0>
-152.978

>  <SCORE.INTRA.VDW>
3.04184

>  <SCORE.INTRA.VDW.0>
-6.10719

>  <SCORE.INTRA.norm>
0.164574

>  <SCORE.RESTR>
0

>  <SCORE.RESTR.CAVITY>
0

>  <SCORE.RESTR.norm>
0

>  <SCORE.SYSTEM>
0

>  <SCORE.SYSTEM.CONST>
0

>  <SCORE.SYSTEM.DIHEDRAL>
0

>  <SCORE.SYSTEM.SOLV>
0

>  <SCORE.SYSTEM.norm>
0

>  <SCORE.heavy>
42

>  <SCORE.norm>
-1.18146

>  <RMSD>
7.776

$$$$
1pbr
 OpenBabel11021811403D
libRbt.so/2013.1/901 2013/11/27
 42 45  0  0  0  0  0  0  0  0999 V2000
    5.8951   -0.4993   38.5384 C   0  0  2  0  0  0  0  0  0  0  0  0
    5.1584    0.7494   38.5042 O   0  0  0  0  0  0  0  0  0  0  0  0
    6.6607   -0.7342   37.1831 C   0  0  2  0  0  0  0  0  0  0  0  0
    7.3048    0.4811   36.6205 N   0  3  0  0  0  0  0  0  0  0  0  0
    5.7214   -1.2711   36.0866 C   0  0  1  0  0  0  0  0  0  0  0  0
    6.4671   -1.7257   34.9595 O   0  0  0  0  0  0  0  0  0  0  0  0
    4.8506   -2.4188   36.6194 C   0  0  2  0  0  0  0  0  0  0  0  0
    4.0209   -2.9308   35.5813 O   0  0  0  0  0  0  0  0  0  0  0  0
    4.0410   -1.9640   37.8540 C   0  0  2  0  0  0  0  0  0  0  0  0
    4.9978   -1.5950   38.8697 O   0  0  0  0  0  0  0  0  0  0  0  0
    3.1286   -3.0415   38.4376 C   0  0  0  0  0  0  0  0  0  0  0  0
    2.4070   -3.7148   37.4146 O   0  0  0  0  0  0  0  0  0  0  0  0
    3.0853    0.4557   42.2223 C   0  0  1  0  0  0  0  0  0  0  0  0
    2.4705    0.6761   43.5442 N   0  3  0  0  0  0  0  0  0  0  0  0
    2.3924    1.2896   41.1024 C   0  0  2  0  0  0  0  0  0  0  0  0
    1.0098    0.9529   41.0146 O   0  0  0  0  0  0  0  0  0  0  0  0
    3.0503    1.0303   39.7155 C   0  0  1  0  0  0  0  0  0  0  0  0
    2.4770    1.9579   38.7470 O   0  0  0  0  0  0  0  0  0  0  0  0
    4.6024    1.2159   39.7571 C   0  0  1  0  0  0  0  0  0  0  0  0
    5.2779    0.4180   40.9180 C   0  0  1  0  0  0  0  0  0  0  0  0
    6.7301    0.6913   40.9934 N   0  3  0  0  0  0  0  0  0  0  0  0
    4.6113    0.7588   42.2759 C   0  0  0  0  0  0  0  0  0  0  0  0
    1.2937    1.5723   37.9769 C   0  0  1  0  0  0  0  0  0  0  0  0
    0.4697    2.8373   37.6723 C   0  0  2  0  0  0  0  0  0  0  0  0
   -0.9031    2.5167   37.4656 O   0  0  0  0  0  0  0  0  0  0  0  0
    1.1673    3.2727   36.3748 C   0  0  1  0  0  0  0  0  0  0  0  0
    1.3342    1.9544   35.6374 C   0  0  2  0  0  0  0  0  0  0  0  0
    1.6801    1.0645   36.6876 O   0  0  0  0  0  0  0  0  0  0  0  0
    2.4185    1.9455   34.5521 C   0  0  0  0  0  0  0  0  0  0  0  0
    3.6364    2.4543   35.0757 O   0  0  0  0  0  0  0  0  0  0  0  0
    1.7954    7.4048   32.9578 C   0  0  1  0  0  0  0  0  0  0  0  0
    0.4910    7.9029   32.6658 O   0  0  0  0  0  0  0  0  0  0  0  0
    2.0842    7.5748   34.4754 C   0  0  2  0  0  0  0  0  0  0  0  0
    3.4865    7.4316   34.6891 O   0  0  0  0  0  0  0  0  0  0  0  0
    1.3279    6.5811   35.4168 C   0  0  1  0  0  0  0  0  0  0  0  0
   -0.0241    7.0953   35.7279 N   0  3  0  0  0  0  0  0  0  0  0  0
    1.3043    5.1417   34.8385 C   0  0  1  0  0  0  0  0  0  0  0  0
    0.4383    4.2303   35.5586 O   0  0  0  0  0  0  0  0  0  0  0  0
    1.8983    5.9083   32.5698 C   0  0  1  0  0  0  0  0  0  0  0  0
    0.9698    5.1696   33.4100 O   0  0  0  0  0  0  0  0  0  0  0  0
    1.6317    5.6316   31.0783 C   0  0  0  0  0  0  0  0  0  0  0  0
    2.2143    4.3544   30.6224 N   0  3  0  0  0  0  0  0  0  0  0  0
  1  2  1  6  0  0  0
  1  3  1  0  0  0  0
  1 10  1  0  0  0  0
  3  4  1  6  0  0  0
  3  5  1  0  0  0  0
  5  6  1  6  0  0  0
  5  7  1  0  0  0  0
  7  8  1  6  0  0  0
  7  9  1  0  0  0  0
  9 10  1  0  0  0  0
  9 11  1  1  0  0  0
 11 12  1  0  0  0  0
 13 14  1  1  0  0  0
 13 15  1  0  0  0  0
 13 22  1  0  0  0  0
 15 16  1  6  0  0  0
 15 17  1  0  0  0  0
 17 18  1  6  0  0  0
 17 19  1  0  0  0  0
 19  2  1  6  0  0  0
 19 20  1  0  0  0  0
 20 21  1  1  0  0  0
 20 22  1  0  0  0  0
 23 18  1  1  0  0  0
 23 24  1  0  0  0  0
 23 28  1  0  0  0  0
 24 25  1  6  0  0  0
 24 26  1  0  0  0  0
 26 27  1  0  0  0  0
 26 38  1  6  0  0  0
 27 28  1  0  0  0  0
 27 29  1  6  0  0  0
 29 30  1  0  0  0  0
 31 32  1  1  0  0  0
 31 33  1  0  0  0  0
 31 39  1  0  0  0  0
 33 34  1  6  0  0  0
 33 35  1  0  0  0  0
 35 36  1  6  0  0  0
 35 37  1  0  0  0  0
 37 38  1  1  0  0  0
 37 40  1  0  0  0  0
 39 40  1  0  0  0  0
 39 41  1  6  0  0  0
 41 42  1  0  0  0  0
M  CHG  5   4   1  14   1  21   1  36   1  42   1
M  END
>  <CHROM.1>
-169.26106072,-107.77451828,33.45884262,-82.98083661,-50.51998297,-45.34974807
61.12619447,-177.08970000,79.14463913,-90.79328588,149.08955727,70.02642182
-58.29687642,147.53153443,50.39222878,-75.77148174,150.82820911,-62.33938580
48.71079432,-106.16857178,158.17228413,162.94848240,2.97246106,1.97337427
36.92994212,-0.94273912,0.98964021,-1.24991971

>  <Name>
1pbr

>  <RI>
0

>  <Rbt.Current_Directory>
/home/itssahil/PROJECTS/Mol_Feturizer/New_Systems/rnas/1pbr

>  <Rbt.Executable>
rbdock ($Id: //depot/dev/client3/rdock/2013.1/src/exe/rbdock.cxx#4 $)

>  <Rbt.Library>
libRbt.so (2013.1, Build901 2013/11/27)

>  <Rbt.Parameter_File>
/export/apps/rDock/src/rDock_2013.1_src/data/scripts/dock_solv.prm

>  <Rbt.Receptor>
prm/blind_docking_80.prm

>  <SCORE>
-26.3736

>  <SCORE.INTER>
-40.0082

>  <SCORE.INTER.CONST>
1

>  <SCORE.INTER.POLAR>
-5.39998

>  <SCORE.INTER.ROT>
9

>  <SCORE.INTER.SOLV>
33.3941

>  <SCORE.INTER.VDW>
-29.4036

>  <SCORE.INTER.norm>
-0.952577

>  <SCORE.INTRA>
10.66

>  <SCORE.INTRA.DIHEDRAL>
10.2276

>  <SCORE.INTRA.DIHEDRAL.0>
29.7866

>  <SCORE.INTRA.POLAR>
0.635212

>  <SCORE.INTRA.POLAR.0>
-0.984091

>  <SCORE.INTRA.REPUL>
-0.0972595

>  <SCORE.INTRA.REPUL.0>
0.274115

>  <SCORE.INTRA.SOLV>
-2.05402

>  <SCORE.INTRA.SOLV.lig_0>
-152.978

>  <SCORE.INTRA.VDW>
4.89982

>  <SCORE.INTRA.VDW.0>
-6.10719

>  <SCORE.INTRA.norm>
0.25381

>  <SCORE.RESTR>
2.97462

>  <SCORE.RESTR.CAVITY>
2.97462

>  <SCORE.RESTR.norm>
0.0708242

>  <SCORE.SYSTEM>
0

>  <SCORE.SYSTEM.CONST>
0

>  <SCORE.SYSTEM.DIHEDRAL>
0

>  <SCORE.SYSTEM.SOLV>
0

>  <SCORE.SYSTEM.norm>
0

>  <SCORE.heavy>
42

>  <SCORE.norm>
-0.627942

>  <RMSD>
7.779

$$$$
1pbr
 OpenBabel11021811403D
libRbt.so/2013.1/901 2013/11/27
 42 45  0  0  0  0  0  0  0  0999 V2000
    3.5243   -1.0873   38.0112 C   0  0  2  0  0  0  0  0  0  0  0  0
    4.7317   -1.0669   38.8144 O   0  0  0  0  0  0  0  0  0  0  0  0
    3.8085   -0.5461   36.5605 C   0  0  2  0  0  0  0  0  0  0  0  0
    5.0897   -1.0119   35.9690 N   0  3  0  0  0  0  0  0  0  0  0  0
    3.8531    0.9932   36.5279 C   0  0  1  0  0  0  0  0  0  0  0  0
    3.8454    1.4715   35.1846 O   0  0  0  0  0  0  0  0  0  0  0  0
    2.6642    1.5960   37.2914 C   0  0  2  0  0  0  0  0  0  0  0  0
    2.6983    3.0176   37.2135 O   0  0  0  0  0  0  0  0  0  0  0  0
    2.6331    1.0838   38.7485 C   0  0  2  0  0  0  0  0  0  0  0  0
    2.4683   -0.3488   38.6855 O   0  0  0  0  0  0  0  0  0  0  0  0
    1.4903    1.6515   39.5887 C   0  0  0  0  0  0  0  0  0  0  0  0
    1.9782    2.5233   40.5998 O   0  0  0  0  0  0  0  0  0  0  0  0
    4.3878   -5.0849   40.2092 C   0  0  1  0  0  0  0  0  0  0  0  0
    4.4876   -6.3679   40.9287 N   0  3  0  0  0  0  0  0  0  0  0  0
    3.6623   -3.9912   41.0501 C   0  0  2  0  0  0  0  0  0  0  0  0
    2.3449   -4.4171   41.3899 O   0  0  0  0  0  0  0  0  0  0  0  0
    3.5582   -2.6510   40.2648 C   0  0  1  0  0  0  0  0  0  0  0  0
    3.0285   -1.6273   41.1585 O   0  0  0  0  0  0  0  0  0  0  0  0
    4.9433   -2.1874   39.7067 C   0  0  1  0  0  0  0  0  0  0  0  0
    5.6840   -3.3105   38.9125 C   0  0  1  0  0  0  0  0  0  0  0  0
    7.0315   -2.8755   38.4830 N   0  3  0  0  0  0  0  0  0  0  0  0
    5.7992   -4.5993   39.7670 C   0  0  0  0  0  0  0  0  0  0  0  0
    3.9113   -0.5818   41.6776 C   0  0  1  0  0  0  0  0  0  0  0  0
    3.1571    0.2052   42.7656 C   0  0  2  0  0  0  0  0  0  0  0  0
    3.6775    1.5252   42.8963 O   0  0  0  0  0  0  0  0  0  0  0  0
    3.4944   -0.6759   43.9779 C   0  0  1  0  0  0  0  0  0  0  0  0
    4.9690   -0.9738   43.7629 C   0  0  2  0  0  0  0  0  0  0  0  0
    5.0345   -1.1686   42.3585 O   0  0  0  0  0  0  0  0  0  0  0  0
    5.4996   -2.2114   44.4982 C   0  0  0  0  0  0  0  0  0  0  0  0
    6.8965   -2.0851   44.7197 O   0  0  0  0  0  0  0  0  0  0  0  0
   -0.7804   -0.3073   46.7501 C   0  0  1  0  0  0  0  0  0  0  0  0
   -0.5549   -1.4508   47.5724 O   0  0  0  0  0  0  0  0  0  0  0  0
    0.0802    0.8784   47.2690 C   0  0  2  0  0  0  0  0  0  0  0  0
   -0.4188    2.0853   46.6973 O   0  0  0  0  0  0  0  0  0  0  0  0
    1.6118    0.7758   46.9699 C   0  0  1  0  0  0  0  0  0  0  0  0
    2.2869   -0.0279   48.0127 N   0  3  0  0  0  0  0  0  0  0  0  0
    1.8868    0.2513   45.5360 C   0  0  1  0  0  0  0  0  0  0  0  0
    3.2771   -0.0657   45.2799 O   0  0  0  0  0  0  0  0  0  0  0  0
   -0.4069   -0.6210   45.2795 C   0  0  1  0  0  0  0  0  0  0  0  0
    1.0204   -0.8942   45.2352 O   0  0  0  0  0  0  0  0  0  0  0  0
   -1.2099   -1.7840   44.6673 C   0  0  0  0  0  0  0  0  0  0  0  0
   -0.5277   -2.4027   43.5139 N   0  3  0  0  0  0  0  0  0  0  0  0
  1  2  1  1  0  0  0
  1  3  1  0  0  0  0
  1 10  1  0  0  0  0
  3  4  1  1  0  0  0
  3  5  1  0  0  0  0
  5  6  1  6  0  0  0
  5  7  1  0  0  0  0
  7  8  1  1  0  0  0
  7  9  1  0  0  0  0
  9 10  1  0  0  0  0
  9 11  1  1  0  0  0
 11 12  1  0  0  0  0
 13 14  1  1  0  0  0
 13 15  1  0  0  0  0
 13 22  1  0  0  0  0
 15 16  1  6  0  0  0
 15 17  1  0  0  0  0
 17 18  1  1  0  0  0
 17 19  1  0  0  0  0
 19  2  1  6  0  0  0
 19 20  1  0  0  0  0
 20 21  1  1  0  0  0
 20 22  1  0  0  0  0
 23 18  1  1  0  0  0
 23 24  1  0  0  0  0
 23 28  1  0  0  0  0
 24 25  1  1  0  0  0
 24 26  1  0  0  0  0
 26 27  1  0  0  0  0
 26 38  1  1  0  0  0
 27 28  1  0  0  0  0
 27 29  1  1  0  0  0
 29 30  1  0  0  0  0
 31 32  1  1  0  0  0
 31 33  1  0  0  0  0
 31 39  1  0  0  0  0
 33 34  1  6  0  0  0
 33 35  1  0  0  0  0
 35 36  1  1  0  0  0
 35 37  1  0  0  0  0
 37 38  1  1  0  0  0
 37 40  1  0  0  0  0
 39 40  1  0  0  0  0
 39 41  1  1  0  0  0
 41 42  1  0  0  0  0
M  CHG  5   4   1  14   1  21   1  36   1  42   1
M  END
>  <CHROM.1>
-140.88771145,-35.43012571,-66.89512442,-56.19110580,-72.67453958,-111.52830488
-174.97462890,-165.90352418,-62.09426383,106.71285293,-170.51175429,-165.53640545
69.89736613,63.70630423,-154.78864957,178.23236810,-73.83431041,-61.97863746
55.31629004,174.39061637,-157.93348495,129.85019707,3.02562102,-0.90987158
41.77807911,0.88742052,0.94332098,-1.06327219

>  <Name>
1pbr

>  <RI>
0

>  <Rbt.Current_Directory>
/home/itssahil/PROJECTS/Mol_Feturizer/New_Systems/rnas/1pbr

>  <Rbt.Executable>
rbdock ($Id: //depot/dev/client3/rdock/2013.1/src/exe/rbdock.cxx#4 $)

>  <Rbt.Library>
libRbt.so (2013.1, Build901 2013/11/27)

>  <Rbt.Parameter_File>
/export/apps/rDock/src/rDock_2013.1_src/data/scripts/dock_solv.prm

>  <Rbt.Receptor>
prm/pocket_docking_6.prm

>  <SCORE>
-39.4053

>  <SCORE.INTER>
-40.5608

>  <SCORE.INTER.CONST>
1

>  <SCORE.INTER.POLAR>
-6.50851

>  <SCORE.INTER.ROT>
9

>  <SCORE.INTER.SOLV>
25.1027

>  <SCORE.INTER.VDW>
-23.313

>  <SCORE.INTER.norm>
-0.965732

>  <SCORE.INTRA>
1.15541

>  <SCORE.INTRA.DIHEDRAL>
1.20416

>  <SCORE.INTRA.DIHEDRAL.0>
29.7866

>  <SCORE.INTRA.POLAR>
-0.264435

>  <SCORE.INTRA.POLAR.0>
-0.984091

>  <SCORE.INTRA.REPUL>
-0.274115

>  <SCORE.INTRA.REPUL.0>
0.274115

>  <SCORE.INTRA.SOLV>
0.270444

>  <SCORE.INTRA.SOLV.lig_0>
-152.978

>  <SCORE.INTRA.VDW>
2.68776

>  <SCORE.INTRA.VDW.0>
-6.10719

>  <SCORE.INTRA.norm>
0.0275097

>  <SCORE.RESTR>
0

>  <SCORE.RESTR.CAVITY>
0

>  <SCORE.RESTR.norm>
0

>  <SCORE.SYSTEM>
0

>  <SCORE.SYSTEM.CONST>
0

>  <SCORE.SYSTEM.DIHEDRAL>
0

>  <SCORE.SYSTEM.SOLV>
0

>  <SCORE.SYSTEM.norm>
0

>  <SCORE.heavy>
42

>  <SCORE.norm>
-0.938223

>  <RMSD>
7.799

$$$$
1pbr
 OpenBabel11021811403D
libRbt.so/2013.1/901 2013/11/27
 42 45  0  0  0  0  0  0  0  0999 V2000
    4.7039   -1.9288   38.4682 C   0  0  2  0  0  0  0  0  0  0  0  0
    5.6538   -0.8500   38.6603 O   0  0  0  0  0  0  0  0  0  0  0  0
    5.4400   -3.2519   38.0369 C   0  0  2  0  0  0  0  0  0  0  0  0
    6.7102   -3.5147   38.7619 N   0  3  0  0  0  0  0  0  0  0  0  0
    5.7935   -3.2414   36.5377 C   0  0  1  0  0  0  0  0  0  0  0  0
    6.2137   -4.5344   36.1078 O   0  0  0  0  0  0  0  0  0  0  0  0
    4.5952   -2.7862   35.6913 C   0  0  2  0  0  0  0  0  0  0  0  0
    4.9267   -2.8247   34.3068 O   0  0  0  0  0  0  0  0  0  0  0  0
    4.1032   -1.3934   36.1436 C   0  0  2  0  0  0  0  0  0  0  0  0
    3.6804   -1.5242   37.5174 O   0  0  0  0  0  0  0  0  0  0  0  0
    2.9226   -0.8532   35.3383 C   0  0  0  0  0  0  0  0  0  0  0  0
    3.0295    0.5511   35.1463 O   0  0  0  0  0  0  0  0  0  0  0  0
    4.1620    0.5072   42.4208 C   0  0  1  0  0  0  0  0  0  0  0  0
    3.7887    1.2699   43.6261 N   0  3  0  0  0  0  0  0  0  0  0  0
    3.4036    1.0006   41.1515 C   0  0  2  0  0  0  0  0  0  0  0  0
    1.9949    0.8834   41.3365 O   0  0  0  0  0  0  0  0  0  0  0  0
    3.8048    0.1724   39.8957 C   0  0  1  0  0  0  0  0  0  0  0  0
    3.1980    0.7856   38.7198 O   0  0  0  0  0  0  0  0  0  0  0  0
    5.3555    0.1065   39.7057 C   0  0  1  0  0  0  0  0  0  0  0  0
    6.1072   -0.3366   41.0015 C   0  0  1  0  0  0  0  0  0  0  0  0
    7.5752   -0.2936   40.8210 N   0  3  0  0  0  0  0  0  0  0  0  0
    5.7024    0.5582   42.2015 C   0  0  0  0  0  0  0  0  0  0  0  0
    3.1383    2.2432   38.6037 C   0  0  1  0  0  0  0  0  0  0  0  0
    2.9904    2.6139   37.1162 C   0  0  2  0  0  0  0  0  0  0  0  0
    3.4932    3.9227   36.8622 O   0  0  0  0  0  0  0  0  0  0  0  0
    1.4600    2.5462   37.0019 C   0  0  1  0  0  0  0  0  0  0  0  0
    1.0080    3.2324   38.2803 C   0  0  2  0  0  0  0  0  0  0  0  0
    1.9445    2.7461   39.2296 O   0  0  0  0  0  0  0  0  0  0  0  0
   -0.4228    2.9049   38.7269 C   0  0  0  0  0  0  0  0  0  0  0  0
   -1.2860    3.9936   38.4337 O   0  0  0  0  0  0  0  0  0  0  0  0
   -0.1249    7.3318   35.0710 C   0  0  1  0  0  0  0  0  0  0  0  0
   -0.6935    7.0925   33.7848 O   0  0  0  0  0  0  0  0  0  0  0  0
   -0.9661    6.5964   36.1513 C   0  0  2  0  0  0  0  0  0  0  0  0
   -0.6302    7.1314   37.4295 O   0  0  0  0  0  0  0  0  0  0  0  0
   -0.7907    5.0430   36.1943 C   0  0  1  0  0  0  0  0  0  0  0  0
   -1.6885    4.3966   35.2119 N   0  3  0  0  0  0  0  0  0  0  0  0
    0.6926    4.6238   36.0187 C   0  0  1  0  0  0  0  0  0  0  0  0
    0.8860    3.1996   35.8364 O   0  0  0  0  0  0  0  0  0  0  0  0
    1.3391    6.8262   35.1136 C   0  0  1  0  0  0  0  0  0  0  0  0
    1.3137    5.3844   34.9282 O   0  0  0  0  0  0  0  0  0  0  0  0
    2.2608    7.4986   34.0790 C   0  0  0  0  0  0  0  0  0  0  0  0
    1.8180    7.2732   32.6892 N   0  3  0  0  0  0  0  0  0  0  0  0
  1  2  1  6  0  0  0
  1  3  1  0  0  0  0
  1 10  1  0  0  0  0
  3  4  1  1  0  0  0
  3  5  1  0  0  0  0
  5  6  1  6  0  0  0
  5  7  1  0  0  0  0
  7  8  1  6  0  0  0
  7  9  1  0  0  0  0
  9 10  1  0  0  0  0
  9 11  1  6  0  0  0
 11 12  1  0  0  0  0
 13 14  1  1  0  0  0
 13 15  1  0  0  0  0
 13 22  1  0  0  0  0
 15 16  1  1  0  0  0
 15 17  1  0  0  0  0
 17 18  1  6  0  0  0
 17 19  1  0  0  0  0
 19  2  1  6  0  0  0
 19 20  1  0  0  0  0
 20 21  1  6  0  0  0
 20 22  1  0  0  0  0
 23 18  1  6  0  0  0
 23 24  1  0  0  0  0
 23 28  1  0  0  0  0
 24 25  1  1  0  0  0
 24 26  1  0  0  0  0
 26 27  1  0  0  0  0
 26 38  1  6  0  0  0
 27 28  1  0  0  0  0
 27 29  1  1  0  0  0
 29 30  1  0  0  0  0
 31 32  1  6  0  0  0
 31 33  1  0  0  0  0
 31 39  1  0  0  0  0
 33 34  1  1  0  0  0
 33 35  1  0  0  0  0
 35 36  1  6  0  0  0
 35 37  1  0  0  0  0
 37 38  1  6  0  0  0
 37 40  1  0  0  0  0
 39 40  1  0  0  0  0
 39 41  1  6  0  0  0
 41 42  1  0  0  0  0
M  CHG  5   4   1  14   1  21   1  36   1  42   1
M  END
>  <CHROM.1>
-145.68508406,-27.91805488,-135.48133514,-157.23851176,-179.78952415,-142.97523300
173.90065071,-146.07346630,167.45880774,39.20631815,157.82083295,-31.26567608
174.92016991,-83.75553769,-104.10483741,-34.24821764,67.13665348,-42.51037746
-166.48103169,-107.16314970,-60.47060931,148.30137931,2.81177658,1.80585799
37.54535877,-0.22222504,0.99948833,-1.71941732

>  <Name>
1pbr

>  <RI>
0

>  <Rbt.Current_Directory>
/home/itssahil/PROJECTS/Mol_Feturizer/New_Systems/rnas/1pbr

>  <Rbt.Executable>
rbdock ($Id: //depot/dev/client3/rdock/2013.1/src/exe/rbdock.cxx#4 $)

>  <Rbt.Library>
libRbt.so (2013.1, Build901 2013/11/27)

>  <Rbt.Parameter_File>
/export/apps/rDock/src/rDock_2013.1_src/data/scripts/dock_solv.prm

>  <Rbt.Receptor>
prm/blind_docking_60.prm

>  <SCORE>
-16.5821

>  <SCORE.INTER>
-31.0985

>  <SCORE.INTER.CONST>
1

>  <SCORE.INTER.POLAR>
-6.15623

>  <SCORE.INTER.ROT>
9

>  <SCORE.INTER.SOLV>
33.4812

>  <SCORE.INTER.VDW>
-20.972

>  <SCORE.INTER.norm>
-0.740442

>  <SCORE.INTRA>
13.5061

>  <SCORE.INTRA.DIHEDRAL>
16.556

>  <SCORE.INTRA.DIHEDRAL.0>
29.7866

>  <SCORE.INTRA.POLAR>
-0.923243

>  <SCORE.INTRA.POLAR.0>
-0.984091

>  <SCORE.INTRA.REPUL>
-0.274115

>  <SCORE.INTRA.REPUL.0>
0.274115

>  <SCORE.INTRA.SOLV>
4.16454

>  <SCORE.INTRA.SOLV.lig_0>
-152.978

>  <SCORE.INTRA.VDW>
7.65541

>  <SCORE.INTRA.VDW.0>
-6.10719

>  <SCORE.INTRA.norm>
0.321573

>  <SCORE.RESTR>
1.01039

>  <SCORE.RESTR.CAVITY>
1.01039

>  <SCORE.RESTR.norm>
0.024057

>  <SCORE.SYSTEM>
0

>  <SCORE.SYSTEM.CONST>
0

>  <SCORE.SYSTEM.DIHEDRAL>
0

>  <SCORE.SYSTEM.SOLV>
0

>  <SCORE.SYSTEM.norm>
0

>  <SCORE.heavy>
42

>  <SCORE.norm>
-0.394811

>  <RMSD>
7.801

$$$$
1pbr
 OpenBabel11021811403D
libRbt.so/2013.1/901 2013/11/27
 42 45  0  0  0  0  0  0  0  0999 V2000
    2.8516   -1.6862   39.4808 C   0  0  2  0  0  0  0  0  0  0  0  0
    3.5893   -1.9595   38.2624 O   0  0  0  0  0  0  0  0  0  0  0  0
    3.8026   -1.7396   40.7342 C   0  0  2  0  0  0  0  0  0  0  0  0
    5.1324   -1.1097   40.5261 N   0  3  0  0  0  0  0  0  0  0  0  0
    4.0768   -3.1892   41.1768 C   0  0  1  0  0  0  0  0  0  0  0  0
    4.7122   -3.2171   42.4530 O   0  0  0  0  0  0  0  0  0  0  0  0
    2.7755   -4.0035   41.2364 C   0  0  2  0  0  0  0  0  0  0  0  0
    3.0428   -5.3271   41.6890 O   0  0  0  0  0  0  0  0  0  0  0  0
    2.0519   -3.9794   39.8718 C   0  0  2  0  0  0  0  0  0  0  0  0
    1.7266   -2.6008   39.5944 O   0  0  0  0  0  0  0  0  0  0  0  0
    0.7540   -4.7846   39.8358 C   0  0  0  0  0  0  0  0  0  0  0  0
    0.8521   -5.8798   38.9349 O   0  0  0  0  0  0  0  0  0  0  0  0
    3.1657    0.6268   34.8950 C   0  0  1  0  0  0  0  0  0  0  0  0
    2.7871    1.2922   33.6349 N   0  3  0  0  0  0  0  0  0  0  0  0
    2.0183    0.6627   35.9494 C   0  0  2  0  0  0  0  0  0  0  0  0
    1.6567    2.0095   36.2458 O   0  0  0  0  0  0  0  0  0  0  0  0
    2.4462   -0.0341   37.2742 C   0  0  1  0  0  0  0  0  0  0  0  0
    1.2847   -0.1193   38.1521 O   0  0  0  0  0  0  0  0  0  0  0  0
    3.0166   -1.4688   37.0263 C   0  0  1  0  0  0  0  0  0  0  0  0
    4.1274   -1.4986   35.9283 C   0  0  1  0  0  0  0  0  0  0  0  0
    4.5765   -2.8799   35.6455 N   0  3  0  0  0  0  0  0  0  0  0  0
    3.6216   -0.8362   34.6207 C   0  0  0  0  0  0  0  0  0  0  0  0
    0.7587    1.0892   38.7884 C   0  0  1  0  0  0  0  0  0  0  0  0
   -0.4606    0.7039   39.6467 C   0  0  2  0  0  0  0  0  0  0  0  0
   -1.3411    1.8119   39.8120 O   0  0  0  0  0  0  0  0  0  0  0  0
    0.2671    0.3396   40.9496 C   0  0  1  0  0  0  0  0  0  0  0  0
    1.2960    1.4517   41.0690 C   0  0  2  0  0  0  0  0  0  0  0  0
    1.7154    1.6187   39.7233 O   0  0  0  0  0  0  0  0  0  0  0  0
    2.4990    1.1352   41.9670 C   0  0  0  0  0  0  0  0  0  0  0  0
    3.5625    2.0351   41.6920 O   0  0  0  0  0  0  0  0  0  0  0  0
    0.4231   -0.9845   46.1539 C   0  0  1  0  0  0  0  0  0  0  0  0
   -0.8609   -1.5372   46.4383 O   0  0  0  0  0  0  0  0  0  0  0  0
    1.0800   -1.7790   44.9908 C   0  0  2  0  0  0  0  0  0  0  0  0
    2.4730   -1.4769   44.9652 O   0  0  0  0  0  0  0  0  0  0  0  0
    0.4804   -1.5083   43.5720 C   0  0  1  0  0  0  0  0  0  0  0  0
   -0.7042   -2.3645   43.3423 N   0  3  0  0  0  0  0  0  0  0  0  0
    0.1851   -0.0020   43.3472 C   0  0  1  0  0  0  0  0  0  0  0  0
   -0.5655    0.2787   42.1402 O   0  0  0  0  0  0  0  0  0  0  0  0
    0.2900    0.5078   45.7590 C   0  0  1  0  0  0  0  0  0  0  0  0
   -0.4763    0.5712   44.5251 O   0  0  0  0  0  0  0  0  0  0  0  0
   -0.3492    1.3865   46.8505 C   0  0  0  0  0  0  0  0  0  0  0  0
    0.6406    1.9138   47.8100 N   0  3  0  0  0  0  0  0  0  0  0  0
  1  2  1  6  0  0  0
  1  3  1  0  0  0  0
  1 10  1  0  0  0  0
  3  4  1  6  0  0  0
  3  5  1  0  0  0  0
  5  6  1  1  0  0  0
  5  7  1  0  0  0  0
  7  8  1  6  0  0  0
  7  9  1  0  0  0  0
  9 10  1  0  0  0  0
  9 11  1  1  0  0  0
 11 12  1  0  0  0  0
 13 14  1  6  0  0  0
 13 15  1  0  0  0  0
 13 22  1  0  0  0  0
 15 16  1  1  0  0  0
 15 17  1  0  0  0  0
 17 18  1  1  0  0  0
 17 19  1  0  0  0  0
 19  2  1  1  0  0  0
 19 20  1  0  0  0  0
 20 21  1  6  0  0  0
 20 22  1  0  0  0  0
 23 18  1  1  0  0  0
 23 24  1  0  0  0  0
 23 28  1  0  0  0  0
 24 25  1  1  0  0  0
 24 26  1  0  0  0  0
 26 27  1  0  0  0  0
 26 38  1  1  0  0  0
 27 28  1  0  0  0  0
 27 29  1  1  0  0  0
 29 30  1  0  0  0  0
 31 32  1  6  0  0  0
 31 33  1  0  0  0  0
 31 39  1  0  0  0  0
 33 34  1  6  0  0  0
 33 35  1  0  0  0  0
 35 36  1  1  0  0  0
 35 37  1  0  0  0  0
 37 38  1  6  0  0  0
 37 40  1  0  0  0  0
 39 40  1  0  0  0  0
 39 41  1  1  0  0  0
 41 42  1  0  0  0  0
M  CHG  5   4   1  14   1  21   1  36   1  42   1
M  END
>  <CHROM.1>
-157.35165460,41.15998594,64.11539331,-63.93914155,69.93762001,-115.56561427
-77.59444257,131.68988941,-53.86280761,-71.67946683,179.79355310,-51.28269724
158.23227807,-177.05205333,162.25380676,179.00006597,76.48415523,64.48152581
-56.77151904,-82.46837186,87.59065662,-83.53360038,1.79399751,-0.87785528
40.66443360,-0.86195324,-1.14187175,2.18743961

>  <Name>
1pbr

>  <RI>
0

>  <Rbt.Current_Directory>
/home/itssahil/PROJECTS/Mol_Feturizer/New_Systems/rnas/1pbr

>  <Rbt.Executable>
rbdock ($Id: //depot/dev/client3/rdock/2013.1/src/exe/rbdock.cxx#4 $)

>  <Rbt.Library>
libRbt.so (2013.1, Build901 2013/11/27)

>  <Rbt.Parameter_File>
/export/apps/rDock/src/rDock_2013.1_src/data/scripts/dock_solv.prm

>  <Rbt.Receptor>
prm/pocket_docking_3.prm

>  <SCORE>
-47.3344

>  <SCORE.INTER>
-49.6348

>  <SCORE.INTER.CONST>
1

>  <SCORE.INTER.POLAR>
-7.52357

>  <SCORE.INTER.ROT>
9

>  <SCORE.INTER.SOLV>
46.7

>  <SCORE.INTER.VDW>
-33.178

>  <SCORE.INTER.norm>
-1.18178

>  <SCORE.INTRA>
1.10489

>  <SCORE.INTRA.DIHEDRAL>
-3.48173

>  <SCORE.INTRA.DIHEDRAL.0>
29.7866

>  <SCORE.INTRA.POLAR>
0.984091

>  <SCORE.INTRA.POLAR.0>
-0.984091

>  <SCORE.INTRA.REPUL>
-0.250138

>  <SCORE.INTRA.REPUL.0>
0.274115

>  <SCORE.INTRA.SOLV>
-3.32877

>  <SCORE.INTRA.SOLV.lig_0>
-152.978

>  <SCORE.INTRA.VDW>
2.41491

>  <SCORE.INTRA.VDW.0>
-6.10719

>  <SCORE.INTRA.norm>
0.0263069

>  <SCORE.RESTR>
1.19557

>  <SCORE.RESTR.CAVITY>
1.19557

>  <SCORE.RESTR.norm>
0.0284659

>  <SCORE.SYSTEM>
0

>  <SCORE.SYSTEM.CONST>
0

>  <SCORE.SYSTEM.DIHEDRAL>
0

>  <SCORE.SYSTEM.SOLV>
0

>  <SCORE.SYSTEM.norm>
0

>  <SCORE.heavy>
42

>  <SCORE.norm>
-1.12701

>  <RMSD>
7.805

$$$$
1pbr
 OpenBabel11021811403D
libRbt.so/2013.1/901 2013/11/27
 42 45  0  0  0  0  0  0  0  0999 V2000
    5.1516   -0.2929   38.3541 C   0  0  2  0  0  0  0  0  0  0  0  0
    4.3197    0.8880   38.2250 O   0  0  0  0  0  0  0  0  0  0  0  0
    6.1247   -0.4287   37.1241 C   0  0  2  0  0  0  0  0  0  0  0  0
    6.7333    0.8507   36.6757 N   0  3  0  0  0  0  0  0  0  0  0  0
    5.4069   -1.0186   35.8954 C   0  0  1  0  0  0  0  0  0  0  0  0
    6.3466   -1.3803   34.8858 O   0  0  0  0  0  0  0  0  0  0  0  0
    4.5731   -2.2495   36.2817 C   0  0  2  0  0  0  0  0  0  0  0  0
    3.9527   -2.8065   35.1271 O   0  0  0  0  0  0  0  0  0  0  0  0
    3.5548   -1.8956   37.3881 C   0  0  2  0  0  0  0  0  0  0  0  0
    4.3165   -1.4694   38.5377 O   0  0  0  0  0  0  0  0  0  0  0  0
    2.6665   -3.0614   37.8193 C   0  0  0  0  0  0  0  0  0  0  0  0
    3.4229   -4.0698   38.4762 O   0  0  0  0  0  0  0  0  0  0  0  0
    2.1658    0.4447   41.8818 C   0  0  1  0  0  0  0  0  0  0  0  0
    1.4471    0.6300   43.1558 N   0  3  0  0  0  0  0  0  0  0  0  0
    1.3668    1.0049   40.6662 C   0  0  2  0  0  0  0  0  0  0  0  0
    0.0999    0.3592   40.5633 O   0  0  0  0  0  0  0  0  0  0  0  0
    2.1396    0.7862   39.3326 C   0  0  1  0  0  0  0  0  0  0  0  0
    1.4281    1.4769   38.2631 O   0  0  0  0  0  0  0  0  0  0  0  0
    3.6074    1.3197   39.4094 C   0  0  1  0  0  0  0  0  0  0  0  0
    4.3793    0.7939   40.6618 C   0  0  1  0  0  0  0  0  0  0  0  0
    5.7287    1.3928   40.7607 N   0  3  0  0  0  0  0  0  0  0  0  0
    3.5816    1.0873   41.9587 C   0  0  0  0  0  0  0  0  0  0  0  0
    1.3803    2.9395   38.2423 C   0  0  1  0  0  0  0  0  0  0  0  0
    2.3619    3.4498   37.1708 C   0  0  2  0  0  0  0  0  0  0  0  0
    2.8013    4.7724   37.4673 O   0  0  0  0  0  0  0  0  0  0  0  0
    1.4303    3.4061   35.9501 C   0  0  1  0  0  0  0  0  0  0  0  0
    0.1355    3.9726   36.5090 C   0  0  2  0  0  0  0  0  0  0  0  0
    0.0871    3.3912   37.8030 O   0  0  0  0  0  0  0  0  0  0  0  0
   -1.1291    3.6166   35.7168 C   0  0  0  0  0  0  0  0  0  0  0  0
   -2.2838    4.0426   36.4250 O   0  0  0  0  0  0  0  0  0  0  0  0
    0.2674    7.9837   33.5382 C   0  0  1  0  0  0  0  0  0  0  0  0
    1.5372    8.5915   33.3084 O   0  0  0  0  0  0  0  0  0  0  0  0
    0.0816    6.7918   32.5582 C   0  0  2  0  0  0  0  0  0  0  0  0
   -1.2990    6.4369   32.5323 O   0  0  0  0  0  0  0  0  0  0  0  0
    0.9229    5.5155   32.8885 C   0  0  1  0  0  0  0  0  0  0  0  0
    2.2819    5.6328   32.3155 N   0  3  0  0  0  0  0  0  0  0  0  0
    0.9368    5.2102   34.4094 C   0  0  1  0  0  0  0  0  0  0  0  0
    1.8703    4.1711   34.7944 O   0  0  0  0  0  0  0  0  0  0  0  0
    0.1698    7.4796   35.0001 C   0  0  1  0  0  0  0  0  0  0  0  0
    1.1703    6.4395   35.1760 O   0  0  0  0  0  0  0  0  0  0  0  0
    0.3376    8.5897   36.0544 C   0  0  0  0  0  0  0  0  0  0  0  0
   -0.4654    9.7903   35.7508 N   0  3  0  0  0  0  0  0  0  0  0  0
  1  2  1  6  0  0  0
  1  3  1  0  0  0  0
  1 10  1  0  0  0  0
  3  4  1  6  0  0  0
  3  5  1  0  0  0  0
  5  6  1  6  0  0  0
  5  7  1  0  0  0  0
  7  8  1  6  0  0  0
  7  9  1  0  0  0  0
  9 10  1  0  0  0  0
  9 11  1  1  0  0  0
 11 12  1  0  0  0  0
 13 14  1  1  0  0  0
 13 15  1  0  0  0  0
 13 22  1  0  0  0  0
 15 16  1  6  0  0  0
 15 17  1  0  0  0  0
 17 18  1  6  0  0  0
 17 19  1  0  0  0  0
 19  2  1  6  0  0  0
 19 20  1  0  0  0  0
 20 21  1  1  0  0  0
 20 22  1  0  0  0  0
 23 18  1  6  0  0  0
 23 24  1  0  0  0  0
 23 28  1  0  0  0  0
 24 25  1  1  0  0  0
 24 26  1  0  0  0  0
 26 27  1  0  0  0  0
 26 38  1  6  0  0  0
 27 28  1  0  0  0  0
 27 29  1  6  0  0  0
 29 30  1  0  0  0  0
 31 32  1  1  0  0  0
 31 33  1  0  0  0  0
 31 39  1  0  0  0  0
 33 34  1  1  0  0  0
 33 35  1  0  0  0  0
 35 36  1  1  0  0  0
 35 37  1  0  0  0  0
 37 38  1  6  0  0  0
 37 40  1  0  0  0  0
 39 40  1  0  0  0  0
 39 41  1  1  0  0  0
 41 42  1  0  0  0  0
M  CHG  5   4   1  14   1  21   1  36   1  42   1
M  END
>  <CHROM.1>
-165.80112587,-98.18912653,-67.71236327,75.81812148,167.58168967,67.06973098
-55.03369036,-80.65548522,-175.79073720,68.25798569,103.83344154,83.45459143
-172.76871315,-119.73643994,172.15268170,170.43191872,179.16356500,-176.28125224
-74.49506993,-149.00421723,46.49845119,85.12485742,2.26488556,2.50410738
37.00558896,-0.88268751,0.92757657,-1.09303036

>  <Name>
1pbr

>  <RI>
0

>  <Rbt.Current_Directory>
/home/itssahil/PROJECTS/Mol_Feturizer/New_Systems/rnas/1pbr

>  <Rbt.Executable>
rbdock ($Id: //depot/dev/client3/rdock/2013.1/src/exe/rbdock.cxx#4 $)

>  <Rbt.Library>
libRbt.so (2013.1, Build901 2013/11/27)

>  <Rbt.Parameter_File>
/export/apps/rDock/src/rDock_2013.1_src/data/scripts/dock_solv.prm

>  <Rbt.Receptor>
prm/blind_docking_80.prm

>  <SCORE>
-31.8583

>  <SCORE.INTER>
-44.5554

>  <SCORE.INTER.CONST>
1

>  <SCORE.INTER.POLAR>
-6.61024

>  <SCORE.INTER.ROT>
9

>  <SCORE.INTER.SOLV>
33.0398

>  <SCORE.INTER.VDW>
-28.2828

>  <SCORE.INTER.norm>
-1.06084

>  <SCORE.INTRA>
10.7443

>  <SCORE.INTRA.DIHEDRAL>
2.49992

>  <SCORE.INTRA.DIHEDRAL.0>
29.7866

>  <SCORE.INTRA.POLAR>
0.824242

>  <SCORE.INTRA.POLAR.0>
-0.984091

>  <SCORE.INTRA.REPUL>
-0.245142

>  <SCORE.INTRA.REPUL.0>
0.274115

>  <SCORE.INTRA.SOLV>
-1.99583

>  <SCORE.INTRA.SOLV.lig_0>
-152.978

>  <SCORE.INTRA.VDW>
8.91551

>  <SCORE.INTRA.VDW.0>
-6.10719

>  <SCORE.INTRA.norm>
0.255816

>  <SCORE.RESTR>
1.95279

>  <SCORE.RESTR.CAVITY>
1.95279

>  <SCORE.RESTR.norm>
0.0464951

>  <SCORE.SYSTEM>
0

>  <SCORE.SYSTEM.CONST>
0

>  <SCORE.SYSTEM.DIHEDRAL>
0

>  <SCORE.SYSTEM.SOLV>
0

>  <SCORE.SYSTEM.norm>
0

>  <SCORE.heavy>
42

>  <SCORE.norm>
-0.758532

>  <RMSD>
7.810

$$$$
1pbr
 OpenBabel11021811403D
libRbt.so/2013.1/901 2013/11/27
 42 45  0  0  0  0  0  0  0  0999 V2000
    4.5607    0.6487   37.9476 C   0  0  2  0  0  0  0  0  0  0  0  0
    5.2080    0.4198   39.2250 O   0  0  0  0  0  0  0  0  0  0  0  0
    4.0811   -0.7094   37.3122 C   0  0  2  0  0  0  0  0  0  0  0  0
    3.4771   -1.6627   38.2791 N   0  3  0  0  0  0  0  0  0  0  0  0
    5.2431   -1.4604   36.6351 C   0  0  1  0  0  0  0  0  0  0  0  0
    4.7544   -2.5419   35.8446 O   0  0  0  0  0  0  0  0  0  0  0  0
    6.0706   -0.5150   35.7512 C   0  0  2  0  0  0  0  0  0  0  0  0
    7.1125   -1.2351   35.1000 O   0  0  0  0  0  0  0  0  0  0  0  0
    6.6017    0.6793   36.5747 C   0  0  2  0  0  0  0  0  0  0  0  0
    5.4487    1.3933   37.0687 O   0  0  0  0  0  0  0  0  0  0  0  0
    7.4556    1.6620   35.7753 C   0  0  0  0  0  0  0  0  0  0  0  0
    7.8896    1.0884   34.5493 O   0  0  0  0  0  0  0  0  0  0  0  0
    3.0936    0.2087   42.9253 C   0  0  1  0  0  0  0  0  0  0  0  0
    2.4028    0.4730   44.2008 N   0  3  0  0  0  0  0  0  0  0  0  0
    2.3001    0.7550   41.6999 C   0  0  2  0  0  0  0  0  0  0  0  0
    1.0060    0.1600   41.6395 O   0  0  0  0  0  0  0  0  0  0  0  0
    3.0427    0.4529   40.3654 C   0  0  1  0  0  0  0  0  0  0  0  0
    2.3444    1.1314   39.2796 O   0  0  0  0  0  0  0  0  0  0  0  0
    4.5325    0.9264   40.4013 C   0  0  1  0  0  0  0  0  0  0  0  0
    5.3008    0.4169   41.6625 C   0  0  1  0  0  0  0  0  0  0  0  0
    6.6754    0.9616   41.7196 N   0  3  0  0  0  0  0  0  0  0  0  0
    4.5360    0.7934   42.9578 C   0  0  0  0  0  0  0  0  0  0  0  0
    0.8916    1.0070   39.1539 C   0  0  1  0  0  0  0  0  0  0  0  0
    0.2552    2.3880   39.3989 C   0  0  2  0  0  0  0  0  0  0  0  0
   -1.0865    2.2588   39.8607 O   0  0  0  0  0  0  0  0  0  0  0  0
    0.3273    2.9437   37.9686 C   0  0  1  0  0  0  0  0  0  0  0  0
   -0.1030    1.7490   37.1336 C   0  0  2  0  0  0  0  0  0  0  0  0
    0.5338    0.6706   37.8017 O   0  0  0  0  0  0  0  0  0  0  0  0
    0.3262    1.7921   35.6614 C   0  0  0  0  0  0  0  0  0  0  0  0
   -0.5350    2.6502   34.9277 O   0  0  0  0  0  0  0  0  0  0  0  0
    0.7842    7.1956   34.9833 C   0  0  1  0  0  0  0  0  0  0  0  0
    1.1323    8.1274   36.0057 O   0  0  0  0  0  0  0  0  0  0  0  0
    1.6943    5.9409   35.0977 C   0  0  2  0  0  0  0  0  0  0  0  0
    1.6041    5.2027   33.8814 O   0  0  0  0  0  0  0  0  0  0  0  0
    1.3698    4.9846   36.2918 C   0  0  1  0  0  0  0  0  0  0  0  0
    2.0446    5.4516   37.5229 N   0  3  0  0  0  0  0  0  0  0  0  0
   -0.1582    4.7934   36.4803 C   0  0  1  0  0  0  0  0  0  0  0  0
   -0.5200    4.0938   37.6964 O   0  0  0  0  0  0  0  0  0  0  0  0
   -0.7018    6.7786   35.1198 C   0  0  1  0  0  0  0  0  0  0  0  0
   -0.8506    6.0839   36.3883 O   0  0  0  0  0  0  0  0  0  0  0  0
   -1.6909    7.9546   35.0162 C   0  0  0  0  0  0  0  0  0  0  0  0
   -3.0826    7.5118   34.8022 N   0  3  0  0  0  0  0  0  0  0  0  0
  1  2  1  1  0  0  0
  1  3  1  0  0  0  0
  1 10  1  0  0  0  0
  3  4  1  1  0  0  0
  3  5  1  0  0  0  0
  5  6  1  6  0  0  0
  5  7  1  0  0  0  0
  7  8  1  1  0  0  0
  7  9  1  0  0  0  0
  9 10  1  0  0  0  0
  9 11  1  6  0  0  0
 11 12  1  0  0  0  0
 13 14  1  1  0  0  0
 13 15  1  0  0  0  0
 13 22  1  0  0  0  0
 15 16  1  6  0  0  0
 15 17  1  0  0  0  0
 17 18  1  6  0  0  0
 17 19  1  0  0  0  0
 19  2  1  6  0  0  0
 19 20  1  0  0  0  0
 20 21  1  1  0  0  0
 20 22  1  0  0  0  0
 23 18  1  6  0  0  0
 23 24  1  0  0  0  0
 23 28  1  0  0  0  0
 24 25  1  6  0  0  0
 24 26  1  0  0  0  0
 26 27  1  0  0  0  0
 26 38  1  1  0  0  0
 27 28  1  0  0  0  0
 27 29  1  6  0  0  0
 29 30  1  0  0  0  0
 31 32  1  1  0  0  0
 31 33  1  0  0  0  0
 31 39  1  0  0  0  0
 33 34  1  6  0  0  0
 33 35  1  0  0  0  0
 35 36  1  1  0  0  0
 35 37  1  0  0  0  0
 37 38  1  1  0  0  0
 37 40  1  0  0  0  0
 39 40  1  0  0  0  0
 39 41  1  1  0  0  0
 41 42  1  0  0  0  0
M  CHG  5   4   1  14   1  21   1  36   1  42   1
M  END
>  <CHROM.1>
-113.08948143,50.08260458,-163.64601951,-171.32375731,69.12254659,-16.33867594
74.75175264,67.35711267,72.21699055,-48.58658368,114.21678270,159.05891567
82.45554760,164.23496027,-78.75999317,-62.22832446,-67.29594888,158.73792770
150.14421175,-43.00107181,165.30462872,-174.96110301,2.49848960,2.22936056
37.79703968,-0.71341073,0.63338978,-1.11313962

>  <Name>
1pbr

>  <RI>
0

>  <Rbt.Current_Directory>
/home/itssahil/PROJECTS/Mol_Feturizer/New_Systems/rnas/1pbr

>  <Rbt.Executable>
rbdock ($Id: //depot/dev/client3/rdock/2013.1/src/exe/rbdock.cxx#4 $)

>  <Rbt.Library>
libRbt.so (2013.1, Build901 2013/11/27)

>  <Rbt.Parameter_File>
/export/apps/rDock/src/rDock_2013.1_src/data/scripts/dock_solv.prm

>  <Rbt.Receptor>
prm/blind_docking_80.prm

>  <SCORE>
-23.5703

>  <SCORE.INTER>
-38.3653

>  <SCORE.INTER.CONST>
1

>  <SCORE.INTER.POLAR>
-5.99999

>  <SCORE.INTER.ROT>
9

>  <SCORE.INTER.SOLV>
33.3532

>  <SCORE.INTER.VDW>
-26.2946

>  <SCORE.INTER.norm>
-0.91346

>  <SCORE.INTRA>
10.8551

>  <SCORE.INTRA.DIHEDRAL>
5.20601

>  <SCORE.INTRA.DIHEDRAL.0>
29.7866

>  <SCORE.INTRA.POLAR>
0.947158

>  <SCORE.INTRA.POLAR.0>
-0.984091

>  <SCORE.INTRA.REPUL>
-0.274115

>  <SCORE.INTRA.REPUL.0>
0.274115

>  <SCORE.INTRA.SOLV>
1.83677

>  <SCORE.INTRA.SOLV.lig_0>
-152.978

>  <SCORE.INTRA.VDW>
5.48394

>  <SCORE.INTRA.VDW.0>
-6.10719

>  <SCORE.INTRA.norm>
0.258454

>  <SCORE.RESTR>
3.93996

>  <SCORE.RESTR.CAVITY>
3.93996

>  <SCORE.RESTR.norm>
0.0938086

>  <SCORE.SYSTEM>
0

>  <SCORE.SYSTEM.CONST>
0

>  <SCORE.SYSTEM.DIHEDRAL>
0

>  <SCORE.SYSTEM.SOLV>
0

>  <SCORE.SYSTEM.norm>
0

>  <SCORE.heavy>
42

>  <SCORE.norm>
-0.561197

>  <RMSD>
7.817

$$$$
1pbr
 OpenBabel11021811403D
libRbt.so/2013.1/901 2013/11/27
 42 45  0  0  0  0  0  0  0  0999 V2000
    5.7227   -0.6488   38.3450 C   0  0  2  0  0  0  0  0  0  0  0  0
    5.2509    0.7210   38.4096 O   0  0  0  0  0  0  0  0  0  0  0  0
    6.5717   -0.8870   37.0409 C   0  0  2  0  0  0  0  0  0  0  0  0
    7.4971    0.2235   36.6966 N   0  3  0  0  0  0  0  0  0  0  0  0
    5.6716   -1.0959   35.8084 C   0  0  1  0  0  0  0  0  0  0  0  0
    6.4334   -1.5685   34.6996 O   0  0  0  0  0  0  0  0  0  0  0  0
    4.5414   -2.0908   36.1127 C   0  0  2  0  0  0  0  0  0  0  0  0
    3.7467   -2.3043   34.9504 O   0  0  0  0  0  0  0  0  0  0  0  0
    3.7056   -1.6164   37.3222 C   0  0  2  0  0  0  0  0  0  0  0  0
    4.5990   -1.5656   38.4547 O   0  0  0  0  0  0  0  0  0  0  0  0
    2.5431   -2.5401   37.6822 C   0  0  0  0  0  0  0  0  0  0  0  0
    2.9785   -3.8861   37.8209 O   0  0  0  0  0  0  0  0  0  0  0  0
    2.5779   -0.0337   41.6490 C   0  0  1  0  0  0  0  0  0  0  0  0
    1.6599    0.0436   42.8001 N   0  3  0  0  0  0  0  0  0  0  0  0
    1.9503    0.5616   40.3523 C   0  0  2  0  0  0  0  0  0  0  0  0
    0.7513   -0.1325   40.0158 O   0  0  0  0  0  0  0  0  0  0  0  0
    2.9328    0.4569   39.1492 C   0  0  1  0  0  0  0  0  0  0  0  0
    2.3617    1.1776   38.0172 O   0  0  0  0  0  0  0  0  0  0  0  0
    4.3400    1.0496   39.4862 C   0  0  1  0  0  0  0  0  0  0  0  0
    4.9333    0.4852   40.8166 C   0  0  1  0  0  0  0  0  0  0  0  0
    6.2169    1.1365   41.1599 N   0  3  0  0  0  0  0  0  0  0  0  0
    3.9280    0.6655   41.9834 C   0  0  0  0  0  0  0  0  0  0  0  0
    1.8319    2.5291   38.2028 C   0  0  1  0  0  0  0  0  0  0  0  0
    1.4217    3.0911   36.8287 C   0  0  2  0  0  0  0  0  0  0  0  0
    1.4552    4.5156   36.8274 O   0  0  0  0  0  0  0  0  0  0  0  0
   -0.0117    2.5427   36.7621 C   0  0  1  0  0  0  0  0  0  0  0  0
   -0.5234    2.7989   38.1700 C   0  0  2  0  0  0  0  0  0  0  0  0
    0.6116    2.4876   38.9635 O   0  0  0  0  0  0  0  0  0  0  0  0
   -1.7227    1.9420   38.5954 C   0  0  0  0  0  0  0  0  0  0  0  0
   -1.6774    1.7004   39.9939 O   0  0  0  0  0  0  0  0  0  0  0  0
   -1.1389    7.3031   34.5466 C   0  0  1  0  0  0  0  0  0  0  0  0
   -2.5489    7.2886   34.3311 O   0  0  0  0  0  0  0  0  0  0  0  0
   -0.8446    7.0397   36.0498 C   0  0  2  0  0  0  0  0  0  0  0  0
    0.5020    7.4208   36.3218 O   0  0  0  0  0  0  0  0  0  0  0  0
   -1.0558    5.5649   36.5254 C   0  0  1  0  0  0  0  0  0  0  0  0
   -2.4749    5.3357   36.8757 N   0  3  0  0  0  0  0  0  0  0  0  0
   -0.5201    4.5414   35.4899 C   0  0  1  0  0  0  0  0  0  0  0  0
   -0.8800    3.1677   35.7772 O   0  0  0  0  0  0  0  0  0  0  0  0
   -0.4519    6.2174   33.6805 C   0  0  1  0  0  0  0  0  0  0  0  0
   -0.9319    4.9221   34.1339 O   0  0  0  0  0  0  0  0  0  0  0  0
   -0.6802    6.3909   32.1673 C   0  0  0  0  0  0  0  0  0  0  0  0
    0.5799    6.5476   31.4150 N   0  3  0  0  0  0  0  0  0  0  0  0
  1  2  1  6  0  0  0
  1  3  1  0  0  0  0
  1 10  1  0  0  0  0
  3  4  1  6  0  0  0
  3  5  1  0  0  0  0
  5  6  1  6  0  0  0
  5  7  1  0  0  0  0
  7  8  1  6  0  0  0
  7  9  1  0  0  0  0
  9 10  1  0  0  0  0
  9 11  1  1  0  0  0
 11 12  1  0  0  0  0
 13 14  1  1  0  0  0
 13 15  1  0  0  0  0
 13 22  1  0  0  0  0
 15 16  1  6  0  0  0
 15 17  1  0  0  0  0
 17 18  1  6  0  0  0
 17 19  1  0  0  0  0
 19  2  1  6  0  0  0
 19 20  1  0  0  0  0
 20 21  1  1  0  0  0
 20 22  1  0  0  0  0
 23 18  1  6  0  0  0
 23 24  1  0  0  0  0
 23 28  1  0  0  0  0
 24 25  1  1  0  0  0
 24 26  1  0  0  0  0
 26 27  1  0  0  0  0
 26 38  1  6  0  0  0
 27 28  1  0  0  0  0
 27 29  1  1  0  0  0
 29 30  1  0  0  0  0
 31 32  1  1  0  0  0
 31 33  1  0  0  0  0
 31 39  1  0  0  0  0
 33 34  1  6  0  0  0
 33 35  1  0  0  0  0
 35 36  1  6  0  0  0
 35 37  1  0  0  0  0
 37 38  1  1  0  0  0
 37 40  1  0  0  0  0
 39 40  1  0  0  0  0
 39 41  1  6  0  0  0
 41 42  1  0  0  0  0
M  CHG  5   4   1  14   1  21   1  36   1  42   1
M  END
>  <CHROM.1>
173.79315477,-74.95265010,-95.38381900,69.33536294,-53.31913625,51.51367951
70.39065713,-44.67123250,42.69576147,48.09431898,174.68170449,-62.47182065
62.78270220,-27.93849004,148.78780243,-54.72034627,-61.39753785,158.82047613
81.63624874,-81.59773878,120.87181337,-78.60956313,1.94213355,1.94218785
37.38186743,-0.69887537,0.71238794,-1.15121452

>  <Name>
1pbr

>  <RI>
0

>  <Rbt.Current_Directory>
/home/itssahil/PROJECTS/Mol_Feturizer/New_Systems/rnas/1pbr

>  <Rbt.Executable>
rbdock ($Id: //depot/dev/client3/rdock/2013.1/src/exe/rbdock.cxx#4 $)

>  <Rbt.Library>
libRbt.so (2013.1, Build901 2013/11/27)

>  <Rbt.Parameter_File>
/export/apps/rDock/src/rDock_2013.1_src/data/scripts/dock_solv.prm

>  <Rbt.Receptor>
prm/blind_docking_80.prm

>  <SCORE>
-25.0818

>  <SCORE.INTER>
-36.0704

>  <SCORE.INTER.CONST>
1

>  <SCORE.INTER.POLAR>
-5.03471

>  <SCORE.INTER.ROT>
9

>  <SCORE.INTER.SOLV>
31.9368

>  <SCORE.INTER.VDW>
-27.5101

>  <SCORE.INTER.norm>
-0.858818

>  <SCORE.INTRA>
8.05845

>  <SCORE.INTRA.DIHEDRAL>
-3.2629

>  <SCORE.INTRA.DIHEDRAL.0>
29.7866

>  <SCORE.INTRA.POLAR>
0.575345

>  <SCORE.INTRA.POLAR.0>
-0.984091

>  <SCORE.INTRA.REPUL>
-0.274115

>  <SCORE.INTRA.REPUL.0>
0.274115

>  <SCORE.INTRA.SOLV>
0.168644

>  <SCORE.INTRA.SOLV.lig_0>
-152.978

>  <SCORE.INTRA.VDW>
9.01998

>  <SCORE.INTRA.VDW.0>
-6.10719

>  <SCORE.INTRA.norm>
0.191868

>  <SCORE.RESTR>
2.93011

>  <SCORE.RESTR.CAVITY>
2.93011

>  <SCORE.RESTR.norm>
0.0697645

>  <SCORE.SYSTEM>
0

>  <SCORE.SYSTEM.CONST>
0

>  <SCORE.SYSTEM.DIHEDRAL>
0

>  <SCORE.SYSTEM.SOLV>
0

>  <SCORE.SYSTEM.norm>
0

>  <SCORE.heavy>
42

>  <SCORE.norm>
-0.597186

>  <RMSD>
7.823

$$$$
1pbr
 OpenBabel11021811403D
libRbt.so/2013.1/901 2013/11/27
 42 45  0  0  0  0  0  0  0  0999 V2000
    5.1616   -0.5876   38.8294 C   0  0  2  0  0  0  0  0  0  0  0  0
    5.2130    0.8374   39.0940 O   0  0  0  0  0  0  0  0  0  0  0  0
    6.2676   -1.0035   37.7891 C   0  0  2  0  0  0  0  0  0  0  0  0
    7.5833   -0.3429   37.9913 N   0  3  0  0  0  0  0  0  0  0  0  0
    5.8394   -0.6785   36.3456 C   0  0  1  0  0  0  0  0  0  0  0  0
    6.7191   -1.2927   35.4064 O   0  0  0  0  0  0  0  0  0  0  0  0
    4.4005   -1.1454   36.0785 C   0  0  2  0  0  0  0  0  0  0  0  0
    4.0379   -0.8763   34.7278 O   0  0  0  0  0  0  0  0  0  0  0  0
    3.4222   -0.5107   37.0916 C   0  0  2  0  0  0  0  0  0  0  0  0
    3.8234   -0.9641   38.4018 O   0  0  0  0  0  0  0  0  0  0  0  0
    1.9611   -0.9063   36.8849 C   0  0  0  0  0  0  0  0  0  0  0  0
    1.4626   -0.4091   35.6500 O   0  0  0  0  0  0  0  0  0  0  0  0
    2.7400    0.5664   42.5608 C   0  0  1  0  0  0  0  0  0  0  0  0
    1.9928    0.7906   43.8120 N   0  3  0  0  0  0  0  0  0  0  0  0
    2.2001    1.4378   41.3865 C   0  0  2  0  0  0  0  0  0  0  0  0
    0.8251    1.1495   41.1442 O   0  0  0  0  0  0  0  0  0  0  0  0
    2.9960    1.1742   40.0747 C   0  0  1  0  0  0  0  0  0  0  0  0
    2.5616    2.1332   39.0654 O   0  0  0  0  0  0  0  0  0  0  0  0
    4.5396    1.3064   40.2870 C   0  0  1  0  0  0  0  0  0  0  0  0
    5.0588    0.4710   41.5007 C   0  0  1  0  0  0  0  0  0  0  0  0
    6.5024    0.6938   41.7372 N   0  3  0  0  0  0  0  0  0  0  0  0
    4.2602    0.8167   42.7841 C   0  0  0  0  0  0  0  0  0  0  0  0
    1.3972    1.8380   38.2295 C   0  0  1  0  0  0  0  0  0  0  0  0
    0.3264    2.9171   38.4765 C   0  0  2  0  0  0  0  0  0  0  0  0
   -0.9772    2.4207   38.1862 O   0  0  0  0  0  0  0  0  0  0  0  0
    0.7939    3.9600   37.4500 C   0  0  1  0  0  0  0  0  0  0  0  0
    1.1249    3.1005   36.2412 C   0  0  2  0  0  0  0  0  0  0  0  0
    1.7359    1.9664   36.8372 O   0  0  0  0  0  0  0  0  0  0  0  0
    2.0744    3.7438   35.2223 C   0  0  0  0  0  0  0  0  0  0  0  0
    3.3377    3.9911   35.8218 O   0  0  0  0  0  0  0  0  0  0  0  0
    0.3492    8.2097   34.2766 C   0  0  1  0  0  0  0  0  0  0  0  0
   -0.9648    8.1217   33.7284 O   0  0  0  0  0  0  0  0  0  0  0  0
    0.2563    8.6047   35.7769 C   0  0  2  0  0  0  0  0  0  0  0  0
    1.5401    9.0494   36.2091 O   0  0  0  0  0  0  0  0  0  0  0  0
   -0.2340    7.4731   36.7385 C   0  0  1  0  0  0  0  0  0  0  0  0
   -1.7126    7.4304   36.7710 N   0  3  0  0  0  0  0  0  0  0  0  0
    0.3985    6.1010   36.3862 C   0  0  1  0  0  0  0  0  0  0  0  0
   -0.1799    4.9828   37.1032 O   0  0  0  0  0  0  0  0  0  0  0  0
    1.0814    6.8514   34.1372 C   0  0  1  0  0  0  0  0  0  0  0  0
    0.3582    5.8759   34.9367 O   0  0  0  0  0  0  0  0  0  0  0  0
    1.2296    6.3699   32.6817 C   0  0  0  0  0  0  0  0  0  0  0  0
    2.1555    5.2280   32.5505 N   0  3  0  0  0  0  0  0  0  0  0  0
  1  2  1  6  0  0  0
  1  3  1  0  0  0  0
  1 10  1  0  0  0  0
  3  4  1  1  0  0  0
  3  5  1  0  0  0  0
  5  6  1  6  0  0  0
  5  7  1  0  0  0  0
  7  8  1  6  0  0  0
  7  9  1  0  0  0  0
  9 10  1  0  0  0  0
  9 11  1  6  0  0  0
 11 12  1  0  0  0  0
 13 14  1  1  0  0  0
 13 15  1  0  0  0  0
 13 22  1  0  0  0  0
 15 16  1  6  0  0  0
 15 17  1  0  0  0  0
 17 18  1  6  0  0  0
 17 19  1  0  0  0  0
 19  2  1  6  0  0  0
 19 20  1  0  0  0  0
 20 21  1  1  0  0  0
 20 22  1  0  0  0  0
 23 18  1  1  0  0  0
 23 24  1  0  0  0  0
 23 28  1  0  0  0  0
 24 25  1  6  0  0  0
 24 26  1  0  0  0  0
 26 27  1  0  0  0  0
 26 38  1  6  0  0  0
 27 28  1  0  0  0  0
 27 29  1  6  0  0  0
 29 30  1  0  0  0  0
 31 32  1  1  0  0  0
 31 33  1  0  0  0  0
 31 39  1  0  0  0  0
 33 34  1  1  0  0  0
 33 35  1  0  0  0  0
 35 36  1  6  0  0  0
 35 37  1  0  0  0  0
 37 38  1  1  0  0  0
 37 40  1  0  0  0  0
 39 40  1  0  0  0  0
 39 41  1  6  0  0  0
 41 42  1  0  0  0  0
M  CHG  5   4   1  14   1  21   1  36   1  42   1
M  END
>  <CHROM.1>
-162.71131119,-70.11617436,-168.33807256,56.38986262,57.08064278,-65.47375147
49.36568415,48.13104478,-58.70007435,-86.44056282,118.91347076,143.46914652
-57.09739337,166.49735300,62.93165301,-64.00395460,170.18532097,-71.33461613
55.94907013,-144.16093671,168.45133989,-42.71858150,2.46872391,2.63993075
37.50167005,-0.72325859,0.90223161,-1.28410645

>  <Name>
1pbr

>  <RI>
0

>  <Rbt.Current_Directory>
/home/itssahil/PROJECTS/Mol_Feturizer/New_Systems/rnas/1pbr

>  <Rbt.Executable>
rbdock ($Id: //depot/dev/client3/rdock/2013.1/src/exe/rbdock.cxx#4 $)

>  <Rbt.Library>
libRbt.so (2013.1, Build901 2013/11/27)

>  <Rbt.Parameter_File>
/export/apps/rDock/src/rDock_2013.1_src/data/scripts/dock_solv.prm

>  <Rbt.Receptor>
prm/blind_docking_80.prm

>  <SCORE>
-38.6064

>  <SCORE.INTER>
-39.6408

>  <SCORE.INTER.CONST>
1

>  <SCORE.INTER.POLAR>
-5.86064

>  <SCORE.INTER.ROT>
9

>  <SCORE.INTER.SOLV>
32.7525

>  <SCORE.INTER.VDW>
-27.4092

>  <SCORE.INTER.norm>
-0.943828

>  <SCORE.INTRA>
-0.436432

>  <SCORE.INTRA.DIHEDRAL>
-5.01301

>  <SCORE.INTRA.DIHEDRAL.0>
29.7866

>  <SCORE.INTRA.POLAR>
0.138221

>  <SCORE.INTRA.POLAR.0>
-0.984091

>  <SCORE.INTRA.REPUL>
-0.2725

>  <SCORE.INTRA.REPUL.0>
0.274115

>  <SCORE.INTRA.SOLV>
1.23451

>  <SCORE.INTRA.SOLV.lig_0>
-152.978

>  <SCORE.INTRA.VDW>
2.34537

>  <SCORE.INTRA.VDW.0>
-6.10719

>  <SCORE.INTRA.norm>
-0.0103912

>  <SCORE.RESTR>
1.47077

>  <SCORE.RESTR.CAVITY>
1.47077

>  <SCORE.RESTR.norm>
0.0350183

>  <SCORE.SYSTEM>
0

>  <SCORE.SYSTEM.CONST>
0

>  <SCORE.SYSTEM.DIHEDRAL>
0

>  <SCORE.SYSTEM.SOLV>
0

>  <SCORE.SYSTEM.norm>
0

>  <SCORE.heavy>
42

>  <SCORE.norm>
-0.919201

>  <RMSD>
7.829

$$$$
1pbr
 OpenBabel11021811403D
libRbt.so/2013.1/901 2013/11/27
 42 45  0  0  0  0  0  0  0  0999 V2000
    4.7190   -0.7240   40.3736 C   0  0  2  0  0  0  0  0  0  0  0  0
    4.6064   -0.4136   38.9615 O   0  0  0  0  0  0  0  0  0  0  0  0
    5.6944    0.2818   41.0913 C   0  0  2  0  0  0  0  0  0  0  0  0
    5.5459    1.6967   40.6619 N   0  3  0  0  0  0  0  0  0  0  0  0
    7.1698   -0.0893   40.8503 C   0  0  1  0  0  0  0  0  0  0  0  0
    8.0268    0.6588   41.7102 O   0  0  0  0  0  0  0  0  0  0  0  0
    7.4051   -1.5905   41.0751 C   0  0  2  0  0  0  0  0  0  0  0  0
    8.7814   -1.9067   40.8906 O   0  0  0  0  0  0  0  0  0  0  0  0
    6.4782   -2.4314   40.1694 C   0  0  2  0  0  0  0  0  0  0  0  0
    5.1220   -2.1109   40.5454 O   0  0  0  0  0  0  0  0  0  0  0  0
    6.6612   -3.9412   40.3140 C   0  0  0  0  0  0  0  0  0  0  0  0
    6.4737   -4.3563   41.6605 O   0  0  0  0  0  0  0  0  0  0  0  0
    1.7365    1.7745   36.6847 C   0  0  1  0  0  0  0  0  0  0  0  0
    0.5286    2.3000   36.0223 N   0  3  0  0  0  0  0  0  0  0  0  0
    1.6940    1.9690   38.2307 C   0  0  2  0  0  0  0  0  0  0  0  0
    1.5717    3.3519   38.5550 O   0  0  0  0  0  0  0  0  0  0  0  0
    2.9845    1.4184   38.9053 C   0  0  1  0  0  0  0  0  0  0  0  0
    2.8131    1.4727   40.3527 O   0  0  0  0  0  0  0  0  0  0  0  0
    3.2919   -0.0526   38.4732 C   0  0  1  0  0  0  0  0  0  0  0  0
    3.2774   -0.2451   36.9229 C   0  0  1  0  0  0  0  0  0  0  0  0
    3.4724   -1.6634   36.5486 N   0  3  0  0  0  0  0  0  0  0  0  0
    1.9473    0.2759   36.3198 C   0  0  0  0  0  0  0  0  0  0  0  0
    1.4687    1.4606   40.9308 C   0  0  1  0  0  0  0  0  0  0  0  0
    0.7692    0.1497   40.5254 C   0  0  2  0  0  0  0  0  0  0  0  0
   -0.6475    0.3017   40.5331 O   0  0  0  0  0  0  0  0  0  0  0  0
    1.2640   -0.7506   41.6675 C   0  0  1  0  0  0  0  0  0  0  0  0
    1.1235    0.1552   42.8797 C   0  0  2  0  0  0  0  0  0  0  0  0
    1.5424    1.4106   42.3667 O   0  0  0  0  0  0  0  0  0  0  0  0
    1.9783   -0.2376   44.0916 C   0  0  0  0  0  0  0  0  0  0  0  0
    3.3209   -0.4636   43.6883 O   0  0  0  0  0  0  0  0  0  0  0  0
    1.7995   -5.9362   43.0689 C   0  0  1  0  0  0  0  0  0  0  0  0
    0.5133   -6.5378   42.9331 O   0  0  0  0  0  0  0  0  0  0  0  0
    2.2862   -5.4409   41.6784 C   0  0  2  0  0  0  0  0  0  0  0  0
    3.6880   -5.1918   41.7508 O   0  0  0  0  0  0  0  0  0  0  0  0
    1.5745   -4.1576   41.1376 C   0  0  1  0  0  0  0  0  0  0  0  0
    0.3169   -4.5190   40.4471 N   0  3  0  0  0  0  0  0  0  0  0  0
    1.3644   -3.0999   42.2530 C   0  0  1  0  0  0  0  0  0  0  0  0
    0.5236   -1.9872   41.8605 O   0  0  0  0  0  0  0  0  0  0  0  0
    1.7333   -4.7436   44.0557 C   0  0  1  0  0  0  0  0  0  0  0  0
    0.8594   -3.7376   43.4743 O   0  0  0  0  0  0  0  0  0  0  0  0
    1.2633   -5.1308   45.4704 C   0  0  0  0  0  0  0  0  0  0  0  0
    2.1959   -6.0521   46.1486 N   0  3  0  0  0  0  0  0  0  0  0  0
  1  2  1  6  0  0  0
  1  3  1  0  0  0  0
  1 10  1  0  0  0  0
  3  4  1  6  0  0  0
  3  5  1  0  0  0  0
  5  6  1  1  0  0  0
  5  7  1  0  0  0  0
  7  8  1  6  0  0  0
  7  9  1  0  0  0  0
  9 10  1  0  0  0  0
  9 11  1  1  0  0  0
 11 12  1  0  0  0  0
 13 14  1  6  0  0  0
 13 15  1  0  0  0  0
 13 22  1  0  0  0  0
 15 16  1  6  0  0  0
 15 17  1  0  0  0  0
 17 18  1  1  0  0  0
 17 19  1  0  0  0  0
 19  2  1  6  0  0  0
 19 20  1  0  0  0  0
 20 21  1  1  0  0  0
 20 22  1  0  0  0  0
 23 18  1  6  0  0  0
 23 24  1  0  0  0  0
 23 28  1  0  0  0  0
 24 25  1  1  0  0  0
 24 26  1  0  0  0  0
 26 27  1  0  0  0  0
 26 38  1  1  0  0  0
 27 28  1  0  0  0  0
 27 29  1  1  0  0  0
 29 30  1  0  0  0  0
 31 32  1  6  0  0  0
 31 33  1  0  0  0  0
 31 39  1  0  0  0  0
 33 34  1  1  0  0  0
 33 35  1  0  0  0  0
 35 36  1  1  0  0  0
 35 37  1  0  0  0  0
 37 38  1  6  0  0  0
 37 40  1  0  0  0  0
 39 40  1  0  0  0  0
 39 41  1  1  0  0  0
 41 42  1  0  0  0  0
M  CHG  5   4   1  14   1  21   1  36   1  42   1
M  END
>  <CHROM.1>
-118.37979734,76.51342475,-177.91806930,-170.36079169,68.53141781,56.74167310
74.88387795,52.18977015,75.93269405,24.48697662,60.86494991,64.55389770,78.14041705
143.72434450,49.22981554,-176.73573362,178.71872168,172.56434125,-90.40182639
-107.68233384,63.90727846,48.01099654,3.07776765,-1.41879099,40.88025169
-1.48570605,-0.04234122,2.46962783

>  <Name>
1pbr

>  <RI>
0

>  <Rbt.Current_Directory>
/home/itssahil/PROJECTS/Mol_Feturizer/New_Systems/rnas/1pbr

>  <Rbt.Executable>
rbdock ($Id: //depot/dev/client3/rdock/2013.1/src/exe/rbdock.cxx#4 $)

>  <Rbt.Library>
libRbt.so (2013.1, Build901 2013/11/27)

>  <Rbt.Parameter_File>
/export/apps/rDock/src/rDock_2013.1_src/data/scripts/dock_solv.prm

>  <Rbt.Receptor>
prm/pocket_docking_5.prm

>  <SCORE>
-21.9745

>  <SCORE.INTER>
-18.6389

>  <SCORE.INTER.CONST>
1

>  <SCORE.INTER.POLAR>
-3.4966

>  <SCORE.INTER.ROT>
9

>  <SCORE.INTER.SOLV>
26.3928

>  <SCORE.INTER.VDW>
-19.1682

>  <SCORE.INTER.norm>
-0.443784

>  <SCORE.INTRA>
-3.33561

>  <SCORE.INTRA.DIHEDRAL>
2.85015

>  <SCORE.INTRA.DIHEDRAL.0>
29.7866

>  <SCORE.INTRA.POLAR>
-1.07602

>  <SCORE.INTRA.POLAR.0>
-0.984091

>  <SCORE.INTRA.REPUL>
-0.2349

>  <SCORE.INTRA.REPUL.0>
0.274115

>  <SCORE.INTRA.SOLV>
1.21103

>  <SCORE.INTRA.SOLV.lig_0>
-152.978

>  <SCORE.INTRA.VDW>
-0.533237

>  <SCORE.INTRA.VDW.0>
-6.10719

>  <SCORE.INTRA.norm>
-0.0794193

>  <SCORE.RESTR>
0

>  <SCORE.RESTR.CAVITY>
0

>  <SCORE.RESTR.norm>
0

>  <SCORE.SYSTEM>
0

>  <SCORE.SYSTEM.CONST>
0

>  <SCORE.SYSTEM.DIHEDRAL>
0

>  <SCORE.SYSTEM.SOLV>
0

>  <SCORE.SYSTEM.norm>
0

>  <SCORE.heavy>
42

>  <SCORE.norm>
-0.523203

>  <RMSD>
7.830

$$$$
1pbr
 OpenBabel11021811403D
libRbt.so/2013.1/901 2013/11/27
 42 45  0  0  0  0  0  0  0  0999 V2000
    6.3445   -1.4351   39.4670 C   0  0  2  0  0  0  0  0  0  0  0  0
    6.3791   -1.5895   38.0254 O   0  0  0  0  0  0  0  0  0  0  0  0
    7.7636   -1.7050   40.0926 C   0  0  2  0  0  0  0  0  0  0  0  0
    8.8965   -1.1305   39.3214 N   0  3  0  0  0  0  0  0  0  0  0  0
    8.0498   -3.2132   40.2201 C   0  0  1  0  0  0  0  0  0  0  0  0
    9.2072   -3.4428   41.0206 O   0  0  0  0  0  0  0  0  0  0  0  0
    6.8505   -3.9526   40.8323 C   0  0  2  0  0  0  0  0  0  0  0  0
    7.1495   -5.3369   40.9826 O   0  0  0  0  0  0  0  0  0  0  0  0
    5.5737   -3.7102   39.9972 C   0  0  2  0  0  0  0  0  0  0  0  0
    5.3133   -2.2910   40.0323 O   0  0  0  0  0  0  0  0  0  0  0  0
    4.3330   -4.4285   40.5253 C   0  0  0  0  0  0  0  0  0  0  0  0
    3.2056   -4.1881   39.6937 O   0  0  0  0  0  0  0  0  0  0  0  0
    3.5433   -0.2498   35.1321 C   0  0  1  0  0  0  0  0  0  0  0  0
    2.3746   -0.0396   34.2581 N   0  3  0  0  0  0  0  0  0  0  0  0
    3.2380    0.0993   36.6203 C   0  0  2  0  0  0  0  0  0  0  0  0
    2.8298    1.4602   36.7386 O   0  0  0  0  0  0  0  0  0  0  0  0
    4.4896   -0.1183   37.5202 C   0  0  1  0  0  0  0  0  0  0  0  0
    4.0979    0.0586   38.9138 O   0  0  0  0  0  0  0  0  0  0  0  0
    5.1094   -1.5414   37.3311 C   0  0  1  0  0  0  0  0  0  0  0  0
    5.3595   -1.8998   35.8313 C   0  0  1  0  0  0  0  0  0  0  0  0
    5.8519   -3.2867   35.6778 N   0  3  0  0  0  0  0  0  0  0  0  0
    4.0638   -1.7110   35.0006 C   0  0  0  0  0  0  0  0  0  0  0  0
    3.8276    1.4001   39.4328 C   0  0  1  0  0  0  0  0  0  0  0  0
    2.3412    1.4862   39.8269 C   0  0  2  0  0  0  0  0  0  0  0  0
    1.8764    2.8323   39.7804 O   0  0  0  0  0  0  0  0  0  0  0  0
    2.4419    0.9546   41.2647 C   0  0  1  0  0  0  0  0  0  0  0  0
    3.6840    1.6586   41.7852 C   0  0  2  0  0  0  0  0  0  0  0  0
    4.5475    1.6159   40.6595 O   0  0  0  0  0  0  0  0  0  0  0  0
    4.3527    0.9943   42.9956 C   0  0  0  0  0  0  0  0  0  0  0  0
    3.4279    0.8923   44.0683 O   0  0  0  0  0  0  0  0  0  0  0  0
   -0.3296   -1.2771   45.2416 C   0  0  1  0  0  0  0  0  0  0  0  0
   -1.6838   -1.1668   44.8070 O   0  0  0  0  0  0  0  0  0  0  0  0
    0.5082   -1.9877   44.1421 C   0  0  2  0  0  0  0  0  0  0  0  0
    1.7371   -2.4231   44.7190 O   0  0  0  0  0  0  0  0  0  0  0  0
    0.8244   -1.1235   42.8776 C   0  0  1  0  0  0  0  0  0  0  0  0
   -0.2963   -1.1923   41.9142 N   0  3  0  0  0  0  0  0  0  0  0  0
    1.2046    0.3329   43.2533 C   0  0  1  0  0  0  0  0  0  0  0  0
    1.2980    1.2299   42.1193 O   0  0  0  0  0  0  0  0  0  0  0  0
    0.2602    0.1276   45.5234 C   0  0  1  0  0  0  0  0  0  0  0  0
    0.2817    0.8577   44.2663 O   0  0  0  0  0  0  0  0  0  0  0  0
   -0.4996    0.9166   46.6061 C   0  0  0  0  0  0  0  0  0  0  0  0
   -0.3706    0.3135   47.9471 N   0  3  0  0  0  0  0  0  0  0  0  0
  1  2  1  6  0  0  0
  1  3  1  0  0  0  0
  1 10  1  0  0  0  0
  3  4  1  6  0  0  0
  3  5  1  0  0  0  0
  5  6  1  1  0  0  0
  5  7  1  0  0  0  0
  7  8  1  6  0  0  0
  7  9  1  0  0  0  0
  9 10  1  0  0  0  0
  9 11  1  1  0  0  0
 11 12  1  0  0  0  0
 13 14  1  6  0  0  0
 13 15  1  0  0  0  0
 13 22  1  0  0  0  0
 15 16  1  6  0  0  0
 15 17  1  0  0  0  0
 17 18  1  1  0  0  0
 17 19  1  0  0  0  0
 19  2  1  1  0  0  0
 19 20  1  0  0  0  0
 20 21  1  1  0  0  0
 20 22  1  0  0  0  0
 23 18  1  1  0  0  0
 23 24  1  0  0  0  0
 23 28  1  0  0  0  0
 24 25  1  1  0  0  0
 24 26  1  0  0  0  0
 26 27  1  0  0  0  0
 26 38  1  1  0  0  0
 27 28  1  0  0  0  0
 27 29  1  1  0  0  0
 29 30  1  0  0  0  0
 31 32  1  6  0  0  0
 31 33  1  0  0  0  0
 31 39  1  0  0  0  0
 33 34  1  1  0  0  0
 33 35  1  0  0  0  0
 35 36  1  6  0  0  0
 35 37  1  0  0  0  0
 37 38  1  6  0  0  0
 37 40  1  0  0  0  0
 39 40  1  0  0  0  0
 39 41  1  1  0  0  0
 41 42  1  0  0  0  0
M  CHG  5   4   1  14   1  21   1  36   1  42   1
M  END
>  <CHROM.1>
172.25154391,63.94711565,-43.51323456,171.34532207,174.82094095,-178.60187314
51.26022173,-51.94421677,60.96112390,-73.63698948,115.28018604,-43.30941511
57.17096584,158.71587188,-57.78615461,-52.87144465,-177.81902658,49.34605276
149.21795542,-69.96858717,67.10529412,78.67813689,3.54060606,-0.89742952
40.65112286,-0.75372887,-0.62583436,1.87846708

>  <Name>
1pbr

>  <RI>
0

>  <Rbt.Current_Directory>
/home/itssahil/PROJECTS/Mol_Feturizer/New_Systems/rnas/1pbr

>  <Rbt.Executable>
rbdock ($Id: //depot/dev/client3/rdock/2013.1/src/exe/rbdock.cxx#4 $)

>  <Rbt.Library>
libRbt.so (2013.1, Build901 2013/11/27)

>  <Rbt.Parameter_File>
/export/apps/rDock/src/rDock_2013.1_src/data/scripts/dock_solv.prm

>  <Rbt.Receptor>
prm/pocket_docking_5.prm

>  <SCORE>
-41.7569

>  <SCORE.INTER>
-40.5075

>  <SCORE.INTER.CONST>
1

>  <SCORE.INTER.POLAR>
-6.3614

>  <SCORE.INTER.ROT>
9

>  <SCORE.INTER.SOLV>
44.111

>  <SCORE.INTER.VDW>
-30.104

>  <SCORE.INTER.norm>
-0.964465

>  <SCORE.INTRA>
-1.35655

>  <SCORE.INTRA.DIHEDRAL>
-12.1233

>  <SCORE.INTRA.DIHEDRAL.0>
29.7866

>  <SCORE.INTRA.POLAR>
0.754179

>  <SCORE.INTRA.POLAR.0>
-0.984091

>  <SCORE.INTRA.REPUL>
-0.263471

>  <SCORE.INTRA.REPUL.0>
0.274115

>  <SCORE.INTRA.SOLV>
-3.31713

>  <SCORE.INTRA.SOLV.lig_0>
-152.978

>  <SCORE.INTRA.VDW>
5.11681

>  <SCORE.INTRA.VDW.0>
-6.10719

>  <SCORE.INTRA.norm>
-0.0322987

>  <SCORE.RESTR>
0.107199

>  <SCORE.RESTR.CAVITY>
0.107199

>  <SCORE.RESTR.norm>
0.00255237

>  <SCORE.SYSTEM>
0

>  <SCORE.SYSTEM.CONST>
0

>  <SCORE.SYSTEM.DIHEDRAL>
0

>  <SCORE.SYSTEM.SOLV>
0

>  <SCORE.SYSTEM.norm>
0

>  <SCORE.heavy>
42

>  <SCORE.norm>
-0.994211

>  <RMSD>
7.860

$$$$
1pbr
 OpenBabel11021811403D
libRbt.so/2013.1/901 2013/11/27
 42 45  0  0  0  0  0  0  0  0999 V2000
    5.9472   -0.3477   38.5128 C   0  0  2  0  0  0  0  0  0  0  0  0
    4.6382    0.2762   38.5330 O   0  0  0  0  0  0  0  0  0  0  0  0
    6.6308   -0.1679   37.1061 C   0  0  2  0  0  0  0  0  0  0  0  0
    6.4511    1.1775   36.5012 N   0  3  0  0  0  0  0  0  0  0  0  0
    6.0881   -1.1787   36.0783 C   0  0  1  0  0  0  0  0  0  0  0  0
    6.8915   -1.1834   34.9003 O   0  0  0  0  0  0  0  0  0  0  0  0
    6.0406   -2.5956   36.6698 C   0  0  2  0  0  0  0  0  0  0  0  0
    5.5782   -3.5224   35.6924 O   0  0  0  0  0  0  0  0  0  0  0  0
    5.1906   -2.6221   37.9595 C   0  0  2  0  0  0  0  0  0  0  0  0
    5.8367   -1.7438   38.9052 O   0  0  0  0  0  0  0  0  0  0  0  0
    5.0727   -4.0019   38.6047 C   0  0  0  0  0  0  0  0  0  0  0  0
    6.3278   -4.6687   38.6277 O   0  0  0  0  0  0  0  0  0  0  0  0
    2.8611    0.1234   42.4093 C   0  0  1  0  0  0  0  0  0  0  0  0
    2.3489    0.3942   43.7652 N   0  3  0  0  0  0  0  0  0  0  0  0
    2.0779    0.9093   41.3145 C   0  0  2  0  0  0  0  0  0  0  0  0
    0.6950    0.5643   41.3476 O   0  0  0  0  0  0  0  0  0  0  0  0
    2.6282    0.5973   39.8921 C   0  0  1  0  0  0  0  0  0  0  0  0
    1.9754    1.4834   38.9351 O   0  0  0  0  0  0  0  0  0  0  0  0
    4.1776    0.7903   39.8058 C   0  0  1  0  0  0  0  0  0  0  0  0
    4.9463    0.0419   40.9414 C   0  0  1  0  0  0  0  0  0  0  0  0
    6.3982    0.3234   40.8930 N   0  3  0  0  0  0  0  0  0  0  0  0
    4.3845    0.4341   42.3324 C   0  0  0  0  0  0  0  0  0  0  0  0
    0.8121    1.0151   38.1807 C   0  0  1  0  0  0  0  0  0  0  0  0
   -0.0268    2.2361   37.7596 C   0  0  2  0  0  0  0  0  0  0  0  0
   -1.3905    1.8756   37.5582 O   0  0  0  0  0  0  0  0  0  0  0  0
    0.6860    2.5754   36.4418 C   0  0  1  0  0  0  0  0  0  0  0  0
    0.8869    1.2040   35.8185 C   0  0  2  0  0  0  0  0  0  0  0  0
    1.2288    0.4097   36.9440 O   0  0  0  0  0  0  0  0  0  0  0  0
    1.9898    1.1247   34.7551 C   0  0  0  0  0  0  0  0  0  0  0  0
    2.0946   -0.2018   34.2596 O   0  0  0  0  0  0  0  0  0  0  0  0
   -0.0338    7.7624   35.2490 C   0  0  1  0  0  0  0  0  0  0  0  0
   -0.4929    7.8053   33.8992 O   0  0  0  0  0  0  0  0  0  0  0  0
   -1.1315    7.1259   36.1467 C   0  0  2  0  0  0  0  0  0  0  0  0
   -0.8323    7.4234   37.5085 O   0  0  0  0  0  0  0  0  0  0  0  0
   -1.3061    5.5791   35.9963 C   0  0  1  0  0  0  0  0  0  0  0  0
   -2.2075    5.2709   34.8642 N   0  3  0  0  0  0  0  0  0  0  0  0
    0.0596    4.8507   35.8919 C   0  0  1  0  0  0  0  0  0  0  0  0
   -0.0441    3.4497   35.5378 O   0  0  0  0  0  0  0  0  0  0  0  0
    1.2698    6.9307   35.3468 C   0  0  1  0  0  0  0  0  0  0  0  0
    0.9505    5.5635   34.9690 O   0  0  0  0  0  0  0  0  0  0  0  0
    2.4265    7.4826   34.4928 C   0  0  0  0  0  0  0  0  0  0  0  0
    2.3801    7.0089   33.0957 N   0  3  0  0  0  0  0  0  0  0  0  0
  1  2  1  6  0  0  0
  1  3  1  0  0  0  0
  1 10  1  0  0  0  0
  3  4  1  6  0  0  0
  3  5  1  0  0  0  0
  5  6  1  6  0  0  0
  5  7  1  0  0  0  0
  7  8  1  6  0  0  0
  7  9  1  0  0  0  0
  9 10  1  0  0  0  0
  9 11  1  1  0  0  0
 11 12  1  0  0  0  0
 13 14  1  1  0  0  0
 13 15  1  0  0  0  0
 13 22  1  0  0  0  0
 15 16  1  6  0  0  0
 15 17  1  0  0  0  0
 17 18  1  6  0  0  0
 17 19  1  0  0  0  0
 19  2  1  6  0  0  0
 19 20  1  0  0  0  0
 20 21  1  1  0  0  0
 20 22  1  0  0  0  0
 23 18  1  1  0  0  0
 23 24  1  0  0  0  0
 23 28  1  0  0  0  0
 24 25  1  6  0  0  0
 24 26  1  0  0  0  0
 26 27  1  0  0  0  0
 26 38  1  6  0  0  0
 27 28  1  0  0  0  0
 27 29  1  6  0  0  0
 29 30  1  0  0  0  0
 31 32  1  6  0  0  0
 31 33  1  0  0  0  0
 31 39  1  0  0  0  0
 33 34  1  1  0  0  0
 33 35  1  0  0  0  0
 35 36  1  6  0  0  0
 35 37  1  0  0  0  0
 37 38  1  6  0  0  0
 37 40  1  0  0  0  0
 39 40  1  0  0  0  0
 39 41  1  6  0  0  0
 41 42  1  0  0  0  0
M  CHG  5   4   1  14   1  21   1  36   1  42   1
M  END
>  <CHROM.1>
-150.04574294,-145.61274698,57.44959007,168.50590160,77.55450547,43.82966294
56.04036865,-56.84901531,174.68141618,-96.60735132,155.19150552,-109.42259839
-174.40994597,80.74677826,179.29652791,173.85616622,174.06950243,-35.46033832
157.80390465,-128.45554587,-85.22814262,-119.84264726,2.63466332,1.70233115
37.44684106,-0.66253191,0.82303921,-1.18343754

>  <Name>
1pbr

>  <RI>
0

>  <Rbt.Current_Directory>
/home/itssahil/PROJECTS/Mol_Feturizer/New_Systems/rnas/1pbr

>  <Rbt.Executable>
rbdock ($Id: //depot/dev/client3/rdock/2013.1/src/exe/rbdock.cxx#4 $)

>  <Rbt.Library>
libRbt.so (2013.1, Build901 2013/11/27)

>  <Rbt.Parameter_File>
/export/apps/rDock/src/rDock_2013.1_src/data/scripts/dock_solv.prm

>  <Rbt.Receptor>
prm/blind_docking_60.prm

>  <SCORE>
-30.7272

>  <SCORE.INTER>
-45.8618

>  <SCORE.INTER.CONST>
1

>  <SCORE.INTER.POLAR>
-6.72136

>  <SCORE.INTER.ROT>
9

>  <SCORE.INTER.SOLV>
34.1387

>  <SCORE.INTER.VDW>
-29.1496

>  <SCORE.INTER.norm>
-1.09195

>  <SCORE.INTRA>
14.8672

>  <SCORE.INTRA.DIHEDRAL>
11.4489

>  <SCORE.INTRA.DIHEDRAL.0>
29.7866

>  <SCORE.INTRA.POLAR>
0.553867

>  <SCORE.INTRA.POLAR.0>
-0.984091

>  <SCORE.INTRA.REPUL>
-0.274115

>  <SCORE.INTRA.REPUL.0>
0.274115

>  <SCORE.INTRA.SOLV>
-0.0946112

>  <SCORE.INTRA.SOLV.lig_0>
-152.978

>  <SCORE.INTRA.VDW>
8.67752

>  <SCORE.INTRA.VDW.0>
-6.10719

>  <SCORE.INTRA.norm>
0.353982

>  <SCORE.RESTR>
0.267376

>  <SCORE.RESTR.CAVITY>
0.267376

>  <SCORE.RESTR.norm>
0.0063661

>  <SCORE.SYSTEM>
0

>  <SCORE.SYSTEM.CONST>
0

>  <SCORE.SYSTEM.DIHEDRAL>
0

>  <SCORE.SYSTEM.SOLV>
0

>  <SCORE.SYSTEM.norm>
0

>  <SCORE.heavy>
42

>  <SCORE.norm>
-0.7316

>  <RMSD>
7.862

$$$$
1pbr
 OpenBabel11021811403D
libRbt.so/2013.1/901 2013/11/27
 42 45  0  0  0  0  0  0  0  0999 V2000
    5.7605   -0.6095   38.5270 C   0  0  2  0  0  0  0  0  0  0  0  0
    5.1877    0.7228   38.5251 O   0  0  0  0  0  0  0  0  0  0  0  0
    6.7244   -0.8055   37.2979 C   0  0  2  0  0  0  0  0  0  0  0  0
    7.5918    0.3643   37.0022 N   0  3  0  0  0  0  0  0  0  0  0  0
    5.9415   -1.0996   36.0043 C   0  0  1  0  0  0  0  0  0  0  0  0
    6.8203   -1.5327   34.9683 O   0  0  0  0  0  0  0  0  0  0  0  0
    4.8654   -2.1698   36.2418 C   0  0  2  0  0  0  0  0  0  0  0  0
    4.1821   -2.4598   35.0264 O   0  0  0  0  0  0  0  0  0  0  0  0
    3.9050   -1.7389   37.3724 C   0  0  2  0  0  0  0  0  0  0  0  0
    4.7005   -1.6044   38.5692 O   0  0  0  0  0  0  0  0  0  0  0  0
    2.7873   -2.7395   37.6614 C   0  0  0  0  0  0  0  0  0  0  0  0
    3.0961   -4.0230   37.1344 O   0  0  0  0  0  0  0  0  0  0  0  0
    3.0353    0.4127   42.1965 C   0  0  1  0  0  0  0  0  0  0  0  0
    2.3900    0.6282   43.5046 N   0  3  0  0  0  0  0  0  0  0  0  0
    2.3612    1.2420   41.0618 C   0  0  2  0  0  0  0  0  0  0  0  0
    0.9834    0.8955   40.9434 O   0  0  0  0  0  0  0  0  0  0  0  0
    3.0514    0.9881   39.6897 C   0  0  1  0  0  0  0  0  0  0  0  0
    2.4929    1.9119   38.7091 O   0  0  0  0  0  0  0  0  0  0  0  0
    4.6008    1.1849   39.7656 C   0  0  1  0  0  0  0  0  0  0  0  0
    5.2563    0.3913   40.9408 C   0  0  1  0  0  0  0  0  0  0  0  0
    6.7046    0.6750   41.0483 N   0  3  0  0  0  0  0  0  0  0  0  0
    4.5575    0.7267   42.2838 C   0  0  0  0  0  0  0  0  0  0  0  0
    1.4611    1.4540   37.7776 C   0  0  1  0  0  0  0  0  0  0  0  0
    0.4751    2.6101   37.5266 C   0  0  2  0  0  0  0  0  0  0  0  0
   -0.8041    2.1169   37.1384 O   0  0  0  0  0  0  0  0  0  0  0  0
    1.2072    3.3040   36.3680 C   0  0  1  0  0  0  0  0  0  0  0  0
    1.6495    2.1284   35.5125 C   0  0  2  0  0  0  0  0  0  0  0  0
    2.0383    1.1752   36.4898 O   0  0  0  0  0  0  0  0  0  0  0  0
    2.8142    2.4174   34.5566 C   0  0  0  0  0  0  0  0  0  0  0  0
    2.8644    1.4302   33.5372 O   0  0  0  0  0  0  0  0  0  0  0  0
    1.5829    7.6722   33.2414 C   0  0  1  0  0  0  0  0  0  0  0  0
    0.3337    8.3497   33.3657 O   0  0  0  0  0  0  0  0  0  0  0  0
    2.2345    7.5310   34.6454 C   0  0  2  0  0  0  0  0  0  0  0  0
    3.6118    7.2044   34.4754 O   0  0  0  0  0  0  0  0  0  0  0  0
    1.5775    6.4672   35.5849 C   0  0  1  0  0  0  0  0  0  0  0  0
    0.4236    7.0553   36.3001 N   0  3  0  0  0  0  0  0  0  0  0  0
    1.2111    5.1683   34.8199 C   0  0  1  0  0  0  0  0  0  0  0  0
    0.4099    4.2370   35.5879 O   0  0  0  0  0  0  0  0  0  0  0  0
    1.3735    6.2694   32.6179 C   0  0  1  0  0  0  0  0  0  0  0  0
    0.5650    5.4915   33.5426 O   0  0  0  0  0  0  0  0  0  0  0  0
    0.7336    6.2993   31.2173 C   0  0  0  0  0  0  0  0  0  0  0  0
   -0.6281    6.8686   31.2246 N   0  3  0  0  0  0  0  0  0  0  0  0
  1  2  1  6  0  0  0
  1  3  1  0  0  0  0
  1 10  1  0  0  0  0
  3  4  1  6  0  0  0
  3  5  1  0  0  0  0
  5  6  1  6  0  0  0
  5  7  1  0  0  0  0
  7  8  1  6  0  0  0
  7  9  1  0  0  0  0
  9 10  1  0  0  0  0
  9 11  1  1  0  0  0
 11 12  1  0  0  0  0
 13 14  1  1  0  0  0
 13 15  1  0  0  0  0
 13 22  1  0  0  0  0
 15 16  1  6  0  0  0
 15 17  1  0  0  0  0
 17 18  1  6  0  0  0
 17 19  1  0  0  0  0
 19  2  1  6  0  0  0
 19 20  1  0  0  0  0
 20 21  1  1  0  0  0
 20 22  1  0  0  0  0
 23 18  1  1  0  0  0
 23 24  1  0  0  0  0
 23 28  1  0  0  0  0
 24 25  1  6  0  0  0
 24 26  1  0  0  0  0
 26 27  1  0  0  0  0
 26 38  1  6  0  0  0
 27 28  1  0  0  0  0
 27 29  1  6  0  0  0
 29 30  1  0  0  0  0
 31 32  1  1  0  0  0
 31 33  1  0  0  0  0
 31 39  1  0  0  0  0
 33 34  1  6  0  0  0
 33 35  1  0  0  0  0
 35 36  1  6  0  0  0
 35 37  1  0  0  0  0
 37 38  1  1  0  0  0
 37 40  1  0  0  0  0
 39 40  1  0  0  0  0
 39 41  1  6  0  0  0
 41 42  1  0  0  0  0
M  CHG  5   4   1  14   1  21   1  36   1  42   1
M  END
>  <CHROM.1>
-162.72333128,-98.93136735,-10.87608771,-143.40222890,175.25028949,18.25845945
64.65024981,-55.47222177,82.17284842,-99.80500356,144.76961320,-174.48741904
-70.53941449,160.95537037,-161.53377386,-53.51216451,74.75800305,-65.89389826
-67.80239920,-88.82878435,-63.01338219,170.40171332,2.89395263,2.06374922
36.87738061,-0.79216155,1.01046158,-1.35162345

>  <Name>
1pbr

>  <RI>
0

>  <Rbt.Current_Directory>
/home/itssahil/PROJECTS/Mol_Feturizer/New_Systems/rnas/1pbr

>  <Rbt.Executable>
rbdock ($Id: //depot/dev/client3/rdock/2013.1/src/exe/rbdock.cxx#4 $)

>  <Rbt.Library>
libRbt.so (2013.1, Build901 2013/11/27)

>  <Rbt.Parameter_File>
/export/apps/rDock/src/rDock_2013.1_src/data/scripts/dock_solv.prm

>  <Rbt.Receptor>
prm/blind_docking_60.prm

>  <SCORE>
-37.9206

>  <SCORE.INTER>
-45.7535

>  <SCORE.INTER.CONST>
1

>  <SCORE.INTER.POLAR>
-5.93845

>  <SCORE.INTER.ROT>
9

>  <SCORE.INTER.SOLV>
33.6257

>  <SCORE.INTER.VDW>
-31.516

>  <SCORE.INTER.norm>
-1.08937

>  <SCORE.INTRA>
6.82118

>  <SCORE.INTRA.DIHEDRAL>
10.551

>  <SCORE.INTRA.DIHEDRAL.0>
29.7866

>  <SCORE.INTRA.POLAR>
-0.222045

>  <SCORE.INTRA.POLAR.0>
-0.984091

>  <SCORE.INTRA.REPUL>
-0.274115

>  <SCORE.INTRA.REPUL.0>
0.274115

>  <SCORE.INTRA.SOLV>
0.387082

>  <SCORE.INTRA.SOLV.lig_0>
-152.978

>  <SCORE.INTRA.VDW>
3.47766

>  <SCORE.INTRA.VDW.0>
-6.10719

>  <SCORE.INTRA.norm>
0.162409

>  <SCORE.RESTR>
1.0117

>  <SCORE.RESTR.CAVITY>
1.0117

>  <SCORE.RESTR.norm>
0.0240881

>  <SCORE.SYSTEM>
0

>  <SCORE.SYSTEM.CONST>
0

>  <SCORE.SYSTEM.DIHEDRAL>
0

>  <SCORE.SYSTEM.SOLV>
0

>  <SCORE.SYSTEM.norm>
0

>  <SCORE.heavy>
42

>  <SCORE.norm>
-0.902871

>  <RMSD>
7.870

$$$$
1pbr
 OpenBabel11021811403D
libRbt.so/2013.1/901 2013/11/27
 42 45  0  0  0  0  0  0  0  0999 V2000
    4.7675    1.6982   38.7113 C   0  0  2  0  0  0  0  0  0  0  0  0
    3.3204    1.6054   38.7305 O   0  0  0  0  0  0  0  0  0  0  0  0
    5.2632    2.4397   37.4141 C   0  0  2  0  0  0  0  0  0  0  0  0
    4.4483    3.6216   37.0304 N   0  3  0  0  0  0  0  0  0  0  0  0
    5.2662    1.5028   36.1914 C   0  0  1  0  0  0  0  0  0  0  0  0
    5.9587    2.1006   35.0976 O   0  0  0  0  0  0  0  0  0  0  0  0
    5.9169    0.1536   36.5316 C   0  0  2  0  0  0  0  0  0  0  0  0
    5.9500   -0.6821   35.3789 O   0  0  0  0  0  0  0  0  0  0  0  0
    5.2001   -0.5140   37.7262 C   0  0  2  0  0  0  0  0  0  0  0  0
    5.3508    0.3736   38.8544 O   0  0  0  0  0  0  0  0  0  0  0  0
    5.7717   -1.8750   38.1198 C   0  0  0  0  0  0  0  0  0  0  0  0
    7.1915   -1.8766   38.0517 O   0  0  0  0  0  0  0  0  0  0  0  0
    1.3288    0.0411   42.1648 C   0  0  1  0  0  0  0  0  0  0  0  0
    0.6775   -0.1828   43.4685 N   0  3  0  0  0  0  0  0  0  0  0  0
    0.4915    0.9747   41.2391 C   0  0  2  0  0  0  0  0  0  0  0  0
   -0.7988    0.4157   41.0044 O   0  0  0  0  0  0  0  0  0  0  0  0
    1.1930    1.1854   39.8653 C   0  0  1  0  0  0  0  0  0  0  0  0
    0.4542    2.1942   39.1147 O   0  0  0  0  0  0  0  0  0  0  0  0
    2.6791    1.6436   40.0282 C   0  0  1  0  0  0  0  0  0  0  0  0
    3.4922    0.7310   41.0013 C   0  0  1  0  0  0  0  0  0  0  0  0
    4.8632    1.2459   41.2125 N   0  3  0  0  0  0  0  0  0  0  0  0
    2.7665    0.6034   42.3657 C   0  0  0  0  0  0  0  0  0  0  0  0
   -0.4353    1.7894   38.0252 C   0  0  1  0  0  0  0  0  0  0  0  0
   -1.1785    3.0347   37.5068 C   0  0  2  0  0  0  0  0  0  0  0  0
   -2.4171    2.6763   36.9005 O   0  0  0  0  0  0  0  0  0  0  0  0
   -0.1463    3.5206   36.4781 C   0  0  1  0  0  0  0  0  0  0  0  0
    0.2780    2.2250   35.8065 C   0  0  2  0  0  0  0  0  0  0  0  0
    0.3315    1.3228   36.9010 O   0  0  0  0  0  0  0  0  0  0  0  0
    1.6332    2.2741   35.0892 C   0  0  0  0  0  0  0  0  0  0  0  0
    2.3709    3.4089   35.5183 O   0  0  0  0  0  0  0  0  0  0  0  0
    1.5092    7.6507   33.5001 C   0  0  1  0  0  0  0  0  0  0  0  0
    0.4589    8.6094   33.6113 O   0  0  0  0  0  0  0  0  0  0  0  0
    2.0031    7.2602   34.9211 C   0  0  2  0  0  0  0  0  0  0  0  0
    3.2668    6.6113   34.7997 O   0  0  0  0  0  0  0  0  0  0  0  0
    1.0392    6.3359   35.7350 C   0  0  1  0  0  0  0  0  0  0  0  0
    0.0163    7.1462   36.4322 N   0  3  0  0  0  0  0  0  0  0  0  0
    0.4214    5.2223   34.8490 C   0  0  1  0  0  0  0  0  0  0  0  0
   -0.6371    4.4731   35.4950 O   0  0  0  0  0  0  0  0  0  0  0  0
    1.0075    6.3882   32.7550 C   0  0  1  0  0  0  0  0  0  0  0  0
   -0.0317    5.7790   33.5691 O   0  0  0  0  0  0  0  0  0  0  0  0
    0.4974    6.6680   31.3290 C   0  0  0  0  0  0  0  0  0  0  0  0
   -0.7626    7.4366   31.3148 N   0  3  0  0  0  0  0  0  0  0  0  0
  1  2  1  6  0  0  0
  1  3  1  0  0  0  0
  1 10  1  0  0  0  0
  3  4  1  6  0  0  0
  3  5  1  0  0  0  0
  5  6  1  6  0  0  0
  5  7  1  0  0  0  0
  7  8  1  6  0  0  0
  7  9  1  0  0  0  0
  9 10  1  0  0  0  0
  9 11  1  1  0  0  0
 11 12  1  0  0  0  0
 13 14  1  1  0  0  0
 13 15  1  0  0  0  0
 13 22  1  0  0  0  0
 15 16  1  6  0  0  0
 15 17  1  0  0  0  0
 17 18  1  6  0  0  0
 17 19  1  0  0  0  0
 19  2  1  6  0  0  0
 19 20  1  0  0  0  0
 20 21  1  1  0  0  0
 20 22  1  0  0  0  0
 23 18  1  1  0  0  0
 23 24  1  0  0  0  0
 23 28  1  0  0  0  0
 24 25  1  6  0  0  0
 24 26  1  0  0  0  0
 26 27  1  0  0  0  0
 26 38  1  6  0  0  0
 27 28  1  0  0  0  0
 27 29  1  1  0  0  0
 29 30  1  0  0  0  0
 31 32  1  1  0  0  0
 31 33  1  0  0  0  0
 31 39  1  0  0  0  0
 33 34  1  6  0  0  0
 33 35  1  0  0  0  0
 35 36  1  6  0  0  0
 35 37  1  0  0  0  0
 37 38  1  1  0  0  0
 37 40  1  0  0  0  0
 39 40  1  0  0  0  0
 39 41  1  6  0  0  0
 41 42  1  0  0  0  0
M  CHG  5   4   1  14   1  21   1  36   1  42   1
M  END
>  <CHROM.1>
-147.71947010,-166.32176812,54.00951510,63.99134374,-59.66338975,40.23032462
-150.85511565,64.33182683,-60.50379984,-103.09666273,174.65013967,-91.86126179
168.66180371,160.82659296,16.19927977,-156.86153620,71.93562902,73.21965258
-175.61114779,-75.47131243,-69.20481098,37.34090665,2.16455473,2.81308996
37.11629555,-1.19138234,0.41667513,-0.92166061

>  <Name>
1pbr

>  <RI>
0

>  <Rbt.Current_Directory>
/home/itssahil/PROJECTS/Mol_Feturizer/New_Systems/rnas/1pbr

>  <Rbt.Executable>
rbdock ($Id: //depot/dev/client3/rdock/2013.1/src/exe/rbdock.cxx#4 $)

>  <Rbt.Library>
libRbt.so (2013.1, Build901 2013/11/27)

>  <Rbt.Parameter_File>
/export/apps/rDock/src/rDock_2013.1_src/data/scripts/dock_solv.prm

>  <Rbt.Receptor>
prm/blind_docking_80.prm

>  <SCORE>
-28.5692

>  <SCORE.INTER>
-35.2446

>  <SCORE.INTER.CONST>
1

>  <SCORE.INTER.POLAR>
-5.48713

>  <SCORE.INTER.ROT>
9

>  <SCORE.INTER.SOLV>
28.6371

>  <SCORE.INTER.VDW>
-24.3516

>  <SCORE.INTER.norm>
-0.839156

>  <SCORE.INTRA>
3.80905

>  <SCORE.INTRA.DIHEDRAL>
1.97371

>  <SCORE.INTRA.DIHEDRAL.0>
29.7866

>  <SCORE.INTRA.POLAR>
-1.75311

>  <SCORE.INTRA.POLAR.0>
-0.984091

>  <SCORE.INTRA.REPUL>
-0.274115

>  <SCORE.INTRA.REPUL.0>
0.274115

>  <SCORE.INTRA.SOLV>
8.08669

>  <SCORE.INTRA.SOLV.lig_0>
-152.978

>  <SCORE.INTRA.VDW>
6.10999

>  <SCORE.INTRA.VDW.0>
-6.10719

>  <SCORE.INTRA.norm>
0.0906917

>  <SCORE.RESTR>
2.86628

>  <SCORE.RESTR.CAVITY>
2.86628

>  <SCORE.RESTR.norm>
0.0682448

>  <SCORE.SYSTEM>
0

>  <SCORE.SYSTEM.CONST>
0

>  <SCORE.SYSTEM.DIHEDRAL>
0

>  <SCORE.SYSTEM.SOLV>
0

>  <SCORE.SYSTEM.norm>
0

>  <SCORE.heavy>
42

>  <SCORE.norm>
-0.68022

>  <RMSD>
7.886

$$$$
1pbr
 OpenBabel11021811403D
libRbt.so/2013.1/901 2013/11/27
 42 45  0  0  0  0  0  0  0  0999 V2000
    5.5617   -0.6338   38.5534 C   0  0  2  0  0  0  0  0  0  0  0  0
    5.3750    0.7969   38.6999 O   0  0  0  0  0  0  0  0  0  0  0  0
    6.4785   -0.9541   37.3144 C   0  0  2  0  0  0  0  0  0  0  0  0
    7.6423   -0.0436   37.1570 N   0  3  0  0  0  0  0  0  0  0  0  0
    5.6914   -0.8802   35.9923 C   0  0  1  0  0  0  0  0  0  0  0  0
    6.4548   -1.4244   34.9179 O   0  0  0  0  0  0  0  0  0  0  0  0
    4.3563   -1.6319   36.1022 C   0  0  2  0  0  0  0  0  0  0  0  0
    3.6633   -1.5898   34.8587 O   0  0  0  0  0  0  0  0  0  0  0  0
    3.5105   -1.0774   37.2700 C   0  0  2  0  0  0  0  0  0  0  0  0
    4.2695   -1.2969   38.4779 O   0  0  0  0  0  0  0  0  0  0  0  0
    2.1525   -1.7566   37.4387 C   0  0  0  0  0  0  0  0  0  0  0  0
    2.3015   -3.1247   37.7946 O   0  0  0  0  0  0  0  0  0  0  0  0
    3.3043    0.5036   42.4193 C   0  0  1  0  0  0  0  0  0  0  0  0
    2.6969    0.7217   43.7450 N   0  3  0  0  0  0  0  0  0  0  0  0
    2.6259    1.3637   41.3104 C   0  0  2  0  0  0  0  0  0  0  0  0
    1.2367    1.0560   41.2221 O   0  0  0  0  0  0  0  0  0  0  0  0
    3.2755    1.1067   39.9191 C   0  0  1  0  0  0  0  0  0  0  0  0
    2.7190    2.0564   38.9624 O   0  0  0  0  0  0  0  0  0  0  0  0
    4.8311    1.2606   39.9592 C   0  0  1  0  0  0  0  0  0  0  0  0
    5.4929    0.4363   41.1095 C   0  0  1  0  0  0  0  0  0  0  0  0
    6.9505    0.6795   41.1846 N   0  3  0  0  0  0  0  0  0  0  0  0
    4.8362    0.7754   42.4727 C   0  0  0  0  0  0  0  0  0  0  0  0
    1.6065    1.6577   38.0990 C   0  0  1  0  0  0  0  0  0  0  0  0
    0.5018    2.7267   38.1928 C   0  0  2  0  0  0  0  0  0  0  0  0
   -0.7741    2.1729   37.8834 O   0  0  0  0  0  0  0  0  0  0  0  0
    1.0005    3.6850   37.1007 C   0  0  1  0  0  0  0  0  0  0  0  0
    1.4125    2.7295   35.9932 C   0  0  2  0  0  0  0  0  0  0  0  0
    2.0151    1.6694   36.7197 O   0  0  0  0  0  0  0  0  0  0  0  0
    2.4005    3.3031   34.9692 C   0  0  0  0  0  0  0  0  0  0  0  0
    2.8408    2.2787   34.0900 O   0  0  0  0  0  0  0  0  0  0  0  0
    0.7975    8.0443   34.0552 C   0  0  1  0  0  0  0  0  0  0  0  0
   -0.3767    7.8817   33.2619 O   0  0  0  0  0  0  0  0  0  0  0  0
    0.3893    8.3546   35.5224 C   0  0  2  0  0  0  0  0  0  0  0  0
    1.5251    8.8758   36.2086 O   0  0  0  0  0  0  0  0  0  0  0  0
   -0.1742    7.1409   36.3320 C   0  0  1  0  0  0  0  0  0  0  0  0
   -1.6230    6.9813   36.0779 N   0  3  0  0  0  0  0  0  0  0  0  0
    0.6295    5.8420   36.0606 C   0  0  1  0  0  0  0  0  0  0  0  0
    0.0249    4.6472   36.6138 O   0  0  0  0  0  0  0  0  0  0  0  0
    1.6574    6.7561   34.0123 C   0  0  1  0  0  0  0  0  0  0  0  0
    0.8832    5.6880   34.6235 O   0  0  0  0  0  0  0  0  0  0  0  0
    2.1187    6.3618   32.5968 C   0  0  0  0  0  0  0  0  0  0  0  0
    1.0023    6.2834   31.6345 N   0  3  0  0  0  0  0  0  0  0  0  0
  1  2  1  6  0  0  0
  1  3  1  0  0  0  0
  1 10  1  0  0  0  0
  3  4  1  6  0  0  0
  3  5  1  0  0  0  0
  5  6  1  6  0  0  0
  5  7  1  0  0  0  0
  7  8  1  6  0  0  0
  7  9  1  0  0  0  0
  9 10  1  0  0  0  0
  9 11  1  1  0  0  0
 11 12  1  0  0  0  0
 13 14  1  1  0  0  0
 13 15  1  0  0  0  0
 13 22  1  0  0  0  0
 15 16  1  6  0  0  0
 15 17  1  0  0  0  0
 17 18  1  6  0  0  0
 17 19  1  0  0  0  0
 19  2  1  6  0  0  0
 19 20  1  0  0  0  0
 20 21  1  1  0  0  0
 20 22  1  0  0  0  0
 23 18  1  1  0  0  0
 23 24  1  0  0  0  0
 23 28  1  0  0  0  0
 24 25  1  6  0  0  0
 24 26  1  0  0  0  0
 26 27  1  0  0  0  0
 26 38  1  6  0  0  0
 27 28  1  0  0  0  0
 27 29  1  6  0  0  0
 29 30  1  0  0  0  0
 31 32  1  6  0  0  0
 31 33  1  0  0  0  0
 31 39  1  0  0  0  0
 33 34  1  1  0  0  0
 33 35  1  0  0  0  0
 35 36  1  6  0  0  0
 35 37  1  0  0  0  0
 37 38  1  6  0  0  0
 37 40  1  0  0  0  0
 39 40  1  0  0  0  0
 39 41  1  6  0  0  0
 41 42  1  0  0  0  0
M  CHG  5   4   1  14   1  21   1  36   1  42   1
M  END
>  <CHROM.1>
-165.65977595,-82.09615422,-151.08334637,-74.12249408,56.18206449,64.76316470
-169.49793692,69.98394797,71.59448329,-96.66894539,129.84372636,62.14002389
178.84730636,154.99455702,172.61927051,-55.90541981,-55.74104017,-72.01450125
-121.27261574,-144.40349654,-52.47875261,158.08307589,2.68350047,2.36231708
37.27630885,-0.70266117,0.96488258,-1.34543466

>  <Name>
1pbr

>  <RI>
0

>  <Rbt.Current_Directory>
/home/itssahil/PROJECTS/Mol_Feturizer/New_Systems/rnas/1pbr

>  <Rbt.Executable>
rbdock ($Id: //depot/dev/client3/rdock/2013.1/src/exe/rbdock.cxx#4 $)

>  <Rbt.Library>
libRbt.so (2013.1, Build901 2013/11/27)

>  <Rbt.Parameter_File>
/export/apps/rDock/src/rDock_2013.1_src/data/scripts/dock_solv.prm

>  <Rbt.Receptor>
prm/blind_docking_80.prm

>  <SCORE>
-30.8263

>  <SCORE.INTER>
-35.0678

>  <SCORE.INTER.CONST>
1

>  <SCORE.INTER.POLAR>
-4.5822

>  <SCORE.INTER.ROT>
9

>  <SCORE.INTER.SOLV>
31.2682

>  <SCORE.INTER.VDW>
-28.1273

>  <SCORE.INTER.norm>
-0.834948

>  <SCORE.INTRA>
2.76066

>  <SCORE.INTRA.DIHEDRAL>
2.58319

>  <SCORE.INTRA.DIHEDRAL.0>
29.7866

>  <SCORE.INTRA.POLAR>
0.186269

>  <SCORE.INTRA.POLAR.0>
-0.984091

>  <SCORE.INTRA.REPUL>
-0.274115

>  <SCORE.INTRA.REPUL.0>
0.274115

>  <SCORE.INTRA.SOLV>
1.30265

>  <SCORE.INTRA.SOLV.lig_0>
-152.978

>  <SCORE.INTRA.VDW>
1.555

>  <SCORE.INTRA.VDW.0>
-6.10719

>  <SCORE.INTRA.norm>
0.06573

>  <SCORE.RESTR>
1.48084

>  <SCORE.RESTR.CAVITY>
1.48084

>  <SCORE.RESTR.norm>
0.0352582

>  <SCORE.SYSTEM>
0

>  <SCORE.SYSTEM.CONST>
0

>  <SCORE.SYSTEM.DIHEDRAL>
0

>  <SCORE.SYSTEM.SOLV>
0

>  <SCORE.SYSTEM.norm>
0

>  <SCORE.heavy>
42

>  <SCORE.norm>
-0.733959

>  <RMSD>
7.888

$$$$
1pbr
 OpenBabel11021811403D
libRbt.so/2013.1/901 2013/11/27
 42 45  0  0  0  0  0  0  0  0999 V2000
    5.7054   -2.2042   39.7457 C   0  0  2  0  0  0  0  0  0  0  0  0
    4.4081   -2.8172   39.5343 O   0  0  0  0  0  0  0  0  0  0  0  0
    6.2785   -2.5823   41.1623 C   0  0  2  0  0  0  0  0  0  0  0  0
    6.0652   -3.9996   41.5551 N   0  3  0  0  0  0  0  0  0  0  0  0
    5.6470   -1.7265   42.2765 C   0  0  1  0  0  0  0  0  0  0  0  0
    6.3556   -1.8897   43.5031 O   0  0  0  0  0  0  0  0  0  0  0  0
    5.6321   -0.2401   41.8892 C   0  0  2  0  0  0  0  0  0  0  0  0
    5.0854    0.5396   42.9482 O   0  0  0  0  0  0  0  0  0  0  0  0
    4.8854   -0.0301   40.5533 C   0  0  2  0  0  0  0  0  0  0  0  0
    5.6122   -0.7665   39.5469 O   0  0  0  0  0  0  0  0  0  0  0  0
    4.8048    1.4274   40.1021 C   0  0  0  0  0  0  0  0  0  0  0  0
    3.6014    1.6800   39.3889 O   0  0  0  0  0  0  0  0  0  0  0  0
    3.4560   -0.4978   36.0816 C   0  0  1  0  0  0  0  0  0  0  0  0
    2.9296    0.0379   34.8128 N   0  3  0  0  0  0  0  0  0  0  0  0
    2.3590   -0.5862   37.1854 C   0  0  2  0  0  0  0  0  0  0  0  0
    1.8040    0.7021   37.4398 O   0  0  0  0  0  0  0  0  0  0  0  0
    2.9415   -1.1420   38.5179 C   0  0  1  0  0  0  0  0  0  0  0  0
    1.8426   -1.3609   39.4514 O   0  0  0  0  0  0  0  0  0  0  0  0
    3.7183   -2.4825   38.3060 C   0  0  1  0  0  0  0  0  0  0  0  0
    4.7765   -2.3959   37.1601 C   0  0  1  0  0  0  0  0  0  0  0  0
    5.4238   -3.7041   36.9168 N   0  3  0  0  0  0  0  0  0  0  0  0
    4.1230   -1.8851   35.8499 C   0  0  0  0  0  0  0  0  0  0  0  0
    1.3846   -0.2684   40.3108 C   0  0  1  0  0  0  0  0  0  0  0  0
    0.0598   -0.6864   40.9760 C   0  0  2  0  0  0  0  0  0  0  0  0
   -0.7167    0.4541   41.3315 O   0  0  0  0  0  0  0  0  0  0  0  0
    0.6261   -1.4114   42.2063 C   0  0  1  0  0  0  0  0  0  0  0  0
    1.7459   -0.4820   42.6443 C   0  0  2  0  0  0  0  0  0  0  0  0
    2.3004   -0.0740   41.4031 O   0  0  0  0  0  0  0  0  0  0  0  0
    2.8246   -1.1277   43.5236 C   0  0  0  0  0  0  0  0  0  0  0  0
    2.3470   -1.2730   44.8530 O   0  0  0  0  0  0  0  0  0  0  0  0
    0.0421   -5.5374   45.1155 C   0  0  1  0  0  0  0  0  0  0  0  0
    0.9347   -5.1207   46.1472 O   0  0  0  0  0  0  0  0  0  0  0  0
   -1.3200   -4.8088   45.2872 C   0  0  2  0  0  0  0  0  0  0  0  0
   -2.3002   -5.4903   44.5079 O   0  0  0  0  0  0  0  0  0  0  0  0
   -1.3252   -3.2960   44.8909 C   0  0  1  0  0  0  0  0  0  0  0  0
   -0.8624   -2.4656   46.0246 N   0  3  0  0  0  0  0  0  0  0  0  0
   -0.5215   -3.0367   43.5895 C   0  0  1  0  0  0  0  0  0  0  0  0
   -0.3133   -1.6337   43.2939 O   0  0  0  0  0  0  0  0  0  0  0  0
    0.6393   -5.2097   43.7239 C   0  0  1  0  0  0  0  0  0  0  0  0
    0.7527   -3.7639   43.6214 O   0  0  0  0  0  0  0  0  0  0  0  0
    1.9943   -5.8894   43.4516 C   0  0  0  0  0  0  0  0  0  0  0  0
    1.8712   -7.3466   43.2518 N   0  3  0  0  0  0  0  0  0  0  0  0
  1  2  1  1  0  0  0
  1  3  1  0  0  0  0
  1 10  1  0  0  0  0
  3  4  1  1  0  0  0
  3  5  1  0  0  0  0
  5  6  1  1  0  0  0
  5  7  1  0  0  0  0
  7  8  1  1  0  0  0
  7  9  1  0  0  0  0
  9 10  1  0  0  0  0
  9 11  1  6  0  0  0
 11 12  1  0  0  0  0
 13 14  1  6  0  0  0
 13 15  1  0  0  0  0
 13 22  1  0  0  0  0
 15 16  1  1  0  0  0
 15 17  1  0  0  0  0
 17 18  1  1  0  0  0
 17 19  1  0  0  0  0
 19  2  1  1  0  0  0
 19 20  1  0  0  0  0
 20 21  1  6  0  0  0
 20 22  1  0  0  0  0
 23 18  1  6  0  0  0
 23 24  1  0  0  0  0
 23 28  1  0  0  0  0
 24 25  1  1  0  0  0
 24 26  1  0  0  0  0
 26 27  1  0  0  0  0
 26 38  1  1  0  0  0
 27 28  1  0  0  0  0
 27 29  1  1  0  0  0
 29 30  1  0  0  0  0
 31 32  1  1  0  0  0
 31 33  1  0  0  0  0
 31 39  1  0  0  0  0
 33 34  1  6  0  0  0
 33 35  1  0  0  0  0
 35 36  1  1  0  0  0
 35 37  1  0  0  0  0
 37 38  1  1  0  0  0
 37 40  1  0  0  0  0
 39 40  1  0  0  0  0
 39 41  1  1  0  0  0
 41 42  1  0  0  0  0
M  CHG  5   4   1  14   1  21   1  36   1  42   1
M  END
>  <CHROM.1>
175.94998790,-84.40562281,-62.47208292,-170.70447509,75.29194599,-147.71431836
61.72093058,-61.94598162,-67.43506205,-87.16070844,168.90524597,-158.58578775
-48.34233108,118.62782722,-77.30469207,-177.54826658,-62.73168474,-44.13428580
-153.16856694,170.17824227,70.93220175,169.24418636,2.56297386,-2.01244480
41.32157597,-1.04369733,-0.25449863,2.18399194

>  <Name>
1pbr

>  <RI>
0

>  <Rbt.Current_Directory>
/home/itssahil/PROJECTS/Mol_Feturizer/New_Systems/rnas/1pbr

>  <Rbt.Executable>
rbdock ($Id: //depot/dev/client3/rdock/2013.1/src/exe/rbdock.cxx#4 $)

>  <Rbt.Library>
libRbt.so (2013.1, Build901 2013/11/27)

>  <Rbt.Parameter_File>
/export/apps/rDock/src/rDock_2013.1_src/data/scripts/dock_solv.prm

>  <Rbt.Receptor>
prm/pocket_docking_4.prm

>  <SCORE>
-42.8655

>  <SCORE.INTER>
-37.7151

>  <SCORE.INTER.CONST>
1

>  <SCORE.INTER.POLAR>
-6.22399

>  <SCORE.INTER.ROT>
9

>  <SCORE.INTER.SOLV>
25.477

>  <SCORE.INTER.VDW>
-22.4891

>  <SCORE.INTER.norm>
-0.897978

>  <SCORE.INTRA>
-5.22863

>  <SCORE.INTRA.DIHEDRAL>
-4.40344

>  <SCORE.INTRA.DIHEDRAL.0>
29.7866

>  <SCORE.INTRA.POLAR>
-0.693334

>  <SCORE.INTRA.POLAR.0>
-0.984091

>  <SCORE.INTRA.REPUL>
-0.274115

>  <SCORE.INTRA.REPUL.0>
0.274115

>  <SCORE.INTRA.SOLV>
0.863068

>  <SCORE.INTRA.SOLV.lig_0>
-152.978

>  <SCORE.INTRA.VDW>
0.269467

>  <SCORE.INTRA.VDW.0>
-6.10719

>  <SCORE.INTRA.norm>
-0.124491

>  <SCORE.RESTR>
0.0781702

>  <SCORE.RESTR.CAVITY>
0.0781702

>  <SCORE.RESTR.norm>
0.0018612

>  <SCORE.SYSTEM>
0

>  <SCORE.SYSTEM.CONST>
0

>  <SCORE.SYSTEM.DIHEDRAL>
0

>  <SCORE.SYSTEM.SOLV>
0

>  <SCORE.SYSTEM.norm>
0

>  <SCORE.heavy>
42

>  <SCORE.norm>
-1.02061

>  <RMSD>
7.911

$$$$
1pbr
 OpenBabel11021811403D
libRbt.so/2013.1/901 2013/11/27
 42 45  0  0  0  0  0  0  0  0999 V2000
    4.1661   -2.5400   38.4120 C   0  0  2  0  0  0  0  0  0  0  0  0
    4.0222   -3.8831   37.8842 O   0  0  0  0  0  0  0  0  0  0  0  0
    4.5457   -1.5273   37.2681 C   0  0  2  0  0  0  0  0  0  0  0  0
    3.8157   -1.7382   35.9911 N   0  3  0  0  0  0  0  0  0  0  0  0
    6.0455   -1.5967   36.9238 C   0  0  1  0  0  0  0  0  0  0  0  0
    6.4237   -0.5055   36.0874 O   0  0  0  0  0  0  0  0  0  0  0  0
    6.9050   -1.5860   38.1969 C   0  0  2  0  0  0  0  0  0  0  0  0
    8.2881   -1.6065   37.8579 O   0  0  0  0  0  0  0  0  0  0  0  0
    6.5083   -2.7476   39.1348 C   0  0  2  0  0  0  0  0  0  0  0  0
    5.1286   -2.5367   39.5024 O   0  0  0  0  0  0  0  0  0  0  0  0
    7.3303   -2.8246   40.4203 C   0  0  0  0  0  0  0  0  0  0  0  0
    7.0363   -4.0088   41.1496 O   0  0  0  0  0  0  0  0  0  0  0  0
    2.3004   -7.4356   39.5037 C   0  0  1  0  0  0  0  0  0  0  0  0
    1.9457   -8.6246   40.3002 N   0  3  0  0  0  0  0  0  0  0  0  0
    1.9942   -6.1066   40.2583 C   0  0  2  0  0  0  0  0  0  0  0  0
    0.6089   -6.0284   40.5864 O   0  0  0  0  0  0  0  0  0  0  0  0
    2.3649   -4.8668   39.3928 C   0  0  1  0  0  0  0  0  0  0  0  0
    2.2178   -3.6675   40.2096 O   0  0  0  0  0  0  0  0  0  0  0  0
    3.8279   -4.9474   38.8466 C   0  0  1  0  0  0  0  0  0  0  0  0
    4.1379   -6.3061   38.1407 C   0  0  1  0  0  0  0  0  0  0  0  0
    5.5550   -6.3920   37.7235 N   0  3  0  0  0  0  0  0  0  0  0  0
    3.7950   -7.4971   39.0726 C   0  0  0  0  0  0  0  0  0  0  0  0
    0.8873   -3.2310   40.6348 C   0  0  1  0  0  0  0  0  0  0  0  0
    0.6732   -3.6566   42.0994 C   0  0  2  0  0  0  0  0  0  0  0  0
   -0.7135   -3.8008   42.3933 O   0  0  0  0  0  0  0  0  0  0  0  0
    1.2922   -2.4365   42.7979 C   0  0  1  0  0  0  0  0  0  0  0  0
    0.7482   -1.2803   41.9752 C   0  0  2  0  0  0  0  0  0  0  0  0
    0.8148   -1.7943   40.6539 O   0  0  0  0  0  0  0  0  0  0  0  0
    1.5439    0.0272   42.0794 C   0  0  0  0  0  0  0  0  0  0  0  0
    0.9452    0.8870   43.0380 O   0  0  0  0  0  0  0  0  0  0  0  0
    2.5451    0.5247   47.0844 C   0  0  1  0  0  0  0  0  0  0  0  0
    2.5913   -0.4081   48.1626 O   0  0  0  0  0  0  0  0  0  0  0  0
    3.5091    0.0584   45.9579 C   0  0  2  0  0  0  0  0  0  0  0  0
    3.7395    1.1544   45.0757 O   0  0  0  0  0  0  0  0  0  0  0  0
    3.0171   -1.1670   45.1199 C   0  0  1  0  0  0  0  0  0  0  0  0
    3.3748   -2.4317   45.7993 N   0  3  0  0  0  0  0  0  0  0  0  0
    1.5047   -1.0706   44.7882 C   0  0  1  0  0  0  0  0  0  0  0  0
    0.9510   -2.2744   44.2022 O   0  0  0  0  0  0  0  0  0  0  0  0
    1.1029    0.6319   46.5282 C   0  0  1  0  0  0  0  0  0  0  0  0
    0.7451   -0.6647   45.9763 O   0  0  0  0  0  0  0  0  0  0  0  0
    0.0662    1.0926   47.5698 C   0  0  0  0  0  0  0  0  0  0  0  0
   -1.1930    1.5556   46.9546 N   0  3  0  0  0  0  0  0  0  0  0  0
  1  2  1  6  0  0  0
  1  3  1  0  0  0  0
  1 10  1  0  0  0  0
  3  4  1  6  0  0  0
  3  5  1  0  0  0  0
  5  6  1  6  0  0  0
  5  7  1  0  0  0  0
  7  8  1  6  0  0  0
  7  9  1  0  0  0  0
  9 10  1  0  0  0  0
  9 11  1  1  0  0  0
 11 12  1  0  0  0  0
 13 14  1  1  0  0  0
 13 15  1  0  0  0  0
 13 22  1  0  0  0  0
 15 16  1  6  0  0  0
 15 17  1  0  0  0  0
 17 18  1  1  0  0  0
 17 19  1  0  0  0  0
 19  2  1  6  0  0  0
 19 20  1  0  0  0  0
 20 21  1  1  0  0  0
 20 22  1  0  0  0  0
 23 18  1  1  0  0  0
 23 24  1  0  0  0  0
 23 28  1  0  0  0  0
 24 25  1  1  0  0  0
 24 26  1  0  0  0  0
 26 27  1  0  0  0  0
 26 38  1  1  0  0  0
 27 28  1  0  0  0  0
 27 29  1  6  0  0  0
 29 30  1  0  0  0  0
 31 32  1  1  0  0  0
 31 33  1  0  0  0  0
 31 39  1  0  0  0  0
 33 34  1  6  0  0  0
 33 35  1  0  0  0  0
 35 36  1  1  0  0  0
 35 37  1  0  0  0  0
 37 38  1  1  0  0  0
 37 40  1  0  0  0  0
 39 40  1  0  0  0  0
 39 41  1  1  0  0  0
 41 42  1  0  0  0  0
M  CHG  5   4   1  14   1  21   1  36   1  42   1
M  END
>  <CHROM.1>
172.98964395,74.44263349,73.70485889,-175.11837119,-63.20612581,-172.32937019
-64.70638180,-63.85467161,67.20988676,-68.54985341,101.19381841,-109.39388171
57.87999637,-176.91290938,-96.75461886,-56.90489660,154.64103740,157.91007928
-52.21762254,-76.94597208,163.58588749,-20.39293499,3.02468722,-2.54733145
41.48523379,-1.02332829,0.73950240,0.71048936

>  <Name>
1pbr

>  <RI>
0

>  <Rbt.Current_Directory>
/home/itssahil/PROJECTS/Mol_Feturizer/New_Systems/rnas/1pbr

>  <Rbt.Executable>
rbdock ($Id: //depot/dev/client3/rdock/2013.1/src/exe/rbdock.cxx#4 $)

>  <Rbt.Library>
libRbt.so (2013.1, Build901 2013/11/27)

>  <Rbt.Parameter_File>
/export/apps/rDock/src/rDock_2013.1_src/data/scripts/dock_solv.prm

>  <Rbt.Receptor>
prm/pocket_docking_6.prm

>  <SCORE>
-41.004

>  <SCORE.INTER>
-42.5442

>  <SCORE.INTER.CONST>
1

>  <SCORE.INTER.POLAR>
-5.18832

>  <SCORE.INTER.ROT>
9

>  <SCORE.INTER.SOLV>
30.7225

>  <SCORE.INTER.VDW>
-30.9093

>  <SCORE.INTER.norm>
-1.01296

>  <SCORE.INTRA>
1.52629

>  <SCORE.INTRA.DIHEDRAL>
-3.60203

>  <SCORE.INTRA.DIHEDRAL.0>
29.7866

>  <SCORE.INTRA.POLAR>
0.961174

>  <SCORE.INTRA.POLAR.0>
-0.984091

>  <SCORE.INTRA.REPUL>
-0.274115

>  <SCORE.INTRA.REPUL.0>
0.274115

>  <SCORE.INTRA.SOLV>
-2.7304

>  <SCORE.INTRA.SOLV.lig_0>
-152.978

>  <SCORE.INTRA.VDW>
2.79509

>  <SCORE.INTRA.VDW.0>
-6.10719

>  <SCORE.INTRA.norm>
0.0363401

>  <SCORE.RESTR>
0.0139217

>  <SCORE.RESTR.CAVITY>
0.0139217

>  <SCORE.RESTR.norm>
0.000331468

>  <SCORE.SYSTEM>
0

>  <SCORE.SYSTEM.CONST>
0

>  <SCORE.SYSTEM.DIHEDRAL>
0

>  <SCORE.SYSTEM.SOLV>
0

>  <SCORE.SYSTEM.norm>
0

>  <SCORE.heavy>
42

>  <SCORE.norm>
-0.976286

>  <RMSD>
7.916

$$$$
1pbr
 OpenBabel11021811403D
libRbt.so/2013.1/901 2013/11/27
 42 45  0  0  0  0  0  0  0  0999 V2000
    4.2084    0.2901   38.2159 C   0  0  2  0  0  0  0  0  0  0  0  0
    4.4319    1.2764   39.2553 O   0  0  0  0  0  0  0  0  0  0  0  0
    5.5582   -0.4122   37.8118 C   0  0  2  0  0  0  0  0  0  0  0  0
    6.4478   -0.7420   38.9555 N   0  3  0  0  0  0  0  0  0  0  0  0
    6.3903    0.4649   36.8573 C   0  0  1  0  0  0  0  0  0  0  0  0
    7.4682   -0.2806   36.2953 O   0  0  0  0  0  0  0  0  0  0  0  0
    5.5179    1.0321   35.7274 C   0  0  2  0  0  0  0  0  0  0  0  0
    6.3120    1.8036   34.8316 O   0  0  0  0  0  0  0  0  0  0  0  0
    4.3287    1.8325   36.3033 C   0  0  2  0  0  0  0  0  0  0  0  0
    3.5396    0.9082   37.0819 O   0  0  0  0  0  0  0  0  0  0  0  0
    3.4178    2.4516   35.2445 C   0  0  0  0  0  0  0  0  0  0  0  0
    2.7002    1.4513   34.5337 O   0  0  0  0  0  0  0  0  0  0  0  0
    1.5655    0.0416   42.1651 C   0  0  1  0  0  0  0  0  0  0  0  0
    0.5346   -0.0508   43.2151 N   0  3  0  0  0  0  0  0  0  0  0  0
    1.0005    0.6190   40.8320 C   0  0  2  0  0  0  0  0  0  0  0  0
   -0.0612   -0.1990   40.3459 O   0  0  0  0  0  0  0  0  0  0  0  0
    2.1037    0.6948   39.7362 C   0  0  1  0  0  0  0  0  0  0  0  0
    1.5621    1.3952   38.5773 O   0  0  0  0  0  0  0  0  0  0  0  0
    3.3837    1.4377   40.2411 C   0  0  1  0  0  0  0  0  0  0  0  0
    3.9076    0.8850   41.6052 C   0  0  1  0  0  0  0  0  0  0  0  0
    5.0574    1.6706   42.1054 N   0  3  0  0  0  0  0  0  0  0  0  0
    2.7759    0.8833   42.6652 C   0  0  0  0  0  0  0  0  0  0  0  0
    0.8694    2.6724   38.7528 C   0  0  1  0  0  0  0  0  0  0  0  0
    0.9492    3.4621   37.4329 C   0  0  2  0  0  0  0  0  0  0  0  0
    0.8386    4.8632   37.6670 O   0  0  0  0  0  0  0  0  0  0  0  0
   -0.2929    2.8892   36.7338 C   0  0  1  0  0  0  0  0  0  0  0  0
   -1.3169    2.8677   37.8566 C   0  0  2  0  0  0  0  0  0  0  0  0
   -0.5361    2.4535   38.9672 O   0  0  0  0  0  0  0  0  0  0  0  0
   -2.4964    1.9093   37.6469 C   0  0  0  0  0  0  0  0  0  0  0  0
   -3.2452    2.3004   36.5056 O   0  0  0  0  0  0  0  0  0  0  0  0
    0.4140    7.4797   33.9847 C   0  0  1  0  0  0  0  0  0  0  0  0
   -0.5428    7.4823   32.9267 O   0  0  0  0  0  0  0  0  0  0  0  0
   -0.3277    7.5013   35.3504 C   0  0  2  0  0  0  0  0  0  0  0  0
    0.6022    7.8716   36.3656 O   0  0  0  0  0  0  0  0  0  0  0  0
   -1.0130    6.1572   35.7619 C   0  0  1  0  0  0  0  0  0  0  0  0
   -2.3593    6.0596   35.1562 N   0  3  0  0  0  0  0  0  0  0  0  0
   -0.1194    4.9306   35.4398 C   0  0  1  0  0  0  0  0  0  0  0  0
   -0.7874    3.6551   35.6008 O   0  0  0  0  0  0  0  0  0  0  0  0
    1.3100    6.2188   33.8955 C   0  0  1  0  0  0  0  0  0  0  0  0
    0.4590    5.0573   34.0971 O   0  0  0  0  0  0  0  0  0  0  0  0
    2.0949    6.1043   32.5753 C   0  0  0  0  0  0  0  0  0  0  0  0
    1.2358    6.2634   31.3857 N   0  3  0  0  0  0  0  0  0  0  0  0
  1  2  1  1  0  0  0
  1  3  1  0  0  0  0
  1 10  1  0  0  0  0
  3  4  1  1  0  0  0
  3  5  1  0  0  0  0
  5  6  1  6  0  0  0
  5  7  1  0  0  0  0
  7  8  1  6  0  0  0
  7  9  1  0  0  0  0
  9 10  1  0  0  0  0
  9 11  1  6  0  0  0
 11 12  1  0  0  0  0
 13 14  1  1  0  0  0
 13 15  1  0  0  0  0
 13 22  1  0  0  0  0
 15 16  1  6  0  0  0
 15 17  1  0  0  0  0
 17 18  1  6  0  0  0
 17 19  1  0  0  0  0
 19  2  1  6  0  0  0
 19 20  1  0  0  0  0
 20 21  1  1  0  0  0
 20 22  1  0  0  0  0
 23 18  1  6  0  0  0
 23 24  1  0  0  0  0
 23 28  1  0  0  0  0
 24 25  1  1  0  0  0
 24 26  1  0  0  0  0
 26 27  1  0  0  0  0
 26 38  1  6  0  0  0
 27 28  1  0  0  0  0
 27 29  1  6  0  0  0
 29 30  1  0  0  0  0
 31 32  1  6  0  0  0
 31 33  1  0  0  0  0
 31 39  1  0  0  0  0
 33 34  1  1  0  0  0
 33 35  1  0  0  0  0
 35 36  1  6  0  0  0
 35 37  1  0  0  0  0
 37 38  1  6  0  0  0
 37 40  1  0  0  0  0
 39 40  1  0  0  0  0
 39 41  1  6  0  0  0
 41 42  1  0  0  0  0
M  CHG  5   4   1  14   1  21   1  36   1  42   1
M  END
>  <CHROM.1>
-145.18446303,-12.42668793,-75.21077432,-60.13711137,85.32329072,68.52333430
-178.65122993,69.72059803,62.08329022,49.14273935,155.71621201,-55.27233871
49.30588282,-7.79964975,-62.78718331,48.09123115,65.35573608,59.56503255
-169.28298994,-110.21915500,-50.71140562,-168.53499911,1.84557867,2.76631959
37.27107086,-1.05649128,0.40295943,-0.99721046

>  <Name>
1pbr

>  <RI>
0

>  <Rbt.Current_Directory>
/home/itssahil/PROJECTS/Mol_Feturizer/New_Systems/rnas/1pbr

>  <Rbt.Executable>
rbdock ($Id: //depot/dev/client3/rdock/2013.1/src/exe/rbdock.cxx#4 $)

>  <Rbt.Library>
libRbt.so (2013.1, Build901 2013/11/27)

>  <Rbt.Parameter_File>
/export/apps/rDock/src/rDock_2013.1_src/data/scripts/dock_solv.prm

>  <Rbt.Receptor>
prm/blind_docking_80.prm

>  <SCORE>
-24.753

>  <SCORE.INTER>
-41.0223

>  <SCORE.INTER.CONST>
1

>  <SCORE.INTER.POLAR>
-5.07387

>  <SCORE.INTER.ROT>
9

>  <SCORE.INTER.SOLV>
31.0474

>  <SCORE.INTER.VDW>
-30.3844

>  <SCORE.INTER.norm>
-0.976721

>  <SCORE.INTRA>
13.5331

>  <SCORE.INTRA.DIHEDRAL>
4.61604

>  <SCORE.INTRA.DIHEDRAL.0>
29.7866

>  <SCORE.INTRA.POLAR>
0.317285

>  <SCORE.INTRA.POLAR.0>
-0.984091

>  <SCORE.INTRA.REPUL>
0.209808

>  <SCORE.INTRA.REPUL.0>
0.274115

>  <SCORE.INTRA.SOLV>
2.94929

>  <SCORE.INTRA.SOLV.lig_0>
-152.978

>  <SCORE.INTRA.VDW>
7.62264

>  <SCORE.INTRA.VDW.0>
-6.10719

>  <SCORE.INTRA.norm>
0.322217

>  <SCORE.RESTR>
2.73612

>  <SCORE.RESTR.CAVITY>
2.73612

>  <SCORE.RESTR.norm>
0.0651457

>  <SCORE.SYSTEM>
0

>  <SCORE.SYSTEM.CONST>
0

>  <SCORE.SYSTEM.DIHEDRAL>
0

>  <SCORE.SYSTEM.SOLV>
0

>  <SCORE.SYSTEM.norm>
0

>  <SCORE.heavy>
42

>  <SCORE.norm>
-0.589358

>  <RMSD>
7.923

$$$$
1pbr
 OpenBabel11021811403D
libRbt.so/2013.1/901 2013/11/27
 42 45  0  0  0  0  0  0  0  0999 V2000
    2.1703    2.3081   38.3253 C   0  0  2  0  0  0  0  0  0  0  0  0
    2.4413    1.3236   37.2955 O   0  0  0  0  0  0  0  0  0  0  0  0
    1.2238    1.7123   39.4332 C   0  0  2  0  0  0  0  0  0  0  0  0
    1.5351    0.3123   39.8220 N   0  3  0  0  0  0  0  0  0  0  0  0
   -0.2494    1.7174   38.9833 C   0  0  1  0  0  0  0  0  0  0  0  0
   -1.1143    1.4281   40.0795 O   0  0  0  0  0  0  0  0  0  0  0  0
   -0.6352    3.0730   38.3724 C   0  0  2  0  0  0  0  0  0  0  0  0
   -2.0105    3.0734   38.0028 O   0  0  0  0  0  0  0  0  0  0  0  0
    0.2953    3.4254   37.1907 C   0  0  2  0  0  0  0  0  0  0  0  0
    1.6332    3.5187   37.7243 O   0  0  0  0  0  0  0  0  0  0  0  0
   -0.0320    4.7529   36.5089 C   0  0  0  0  0  0  0  0  0  0  0  0
    0.6794    4.8931   35.2863 O   0  0  0  0  0  0  0  0  0  0  0  0
    5.9240   -0.5674   35.7133 C   0  0  1  0  0  0  0  0  0  0  0  0
    7.2337   -1.2063   35.4888 N   0  3  0  0  0  0  0  0  0  0  0  0
    4.9664   -1.4638   36.5555 C   0  0  2  0  0  0  0  0  0  0  0  0
    4.7492   -2.7118   35.9013 O   0  0  0  0  0  0  0  0  0  0  0  0
    3.5872   -0.7738   36.7679 C   0  0  1  0  0  0  0  0  0  0  0  0
    2.8022   -1.5777   37.6978 O   0  0  0  0  0  0  0  0  0  0  0  0
    3.7362    0.6767   37.3327 C   0  0  1  0  0  0  0  0  0  0  0  0
    4.7404    1.5473   36.5114 C   0  0  1  0  0  0  0  0  0  0  0  0
    4.9358    2.8789   37.1263 N   0  3  0  0  0  0  0  0  0  0  0  0
    6.1074    0.8274   36.3797 C   0  0  0  0  0  0  0  0  0  0  0  0
    3.4266   -2.6972   38.4039 C   0  0  1  0  0  0  0  0  0  0  0  0
    3.7746   -2.2455   39.8346 C   0  0  2  0  0  0  0  0  0  0  0  0
    4.8504   -3.0136   40.3665 O   0  0  0  0  0  0  0  0  0  0  0  0
    2.4373   -2.5643   40.5200 C   0  0  1  0  0  0  0  0  0  0  0  0
    2.0840   -3.9191   39.9289 C   0  0  2  0  0  0  0  0  0  0  0  0
    2.4826   -3.7693   38.5749 O   0  0  0  0  0  0  0  0  0  0  0  0
    0.6000   -4.2999   40.0089 C   0  0  0  0  0  0  0  0  0  0  0  0
    0.4661   -5.6995   40.2077 O   0  0  0  0  0  0  0  0  0  0  0  0
    2.5358    0.4750   44.9785 C   0  0  1  0  0  0  0  0  0  0  0  0
    2.5407   -0.4182   46.0907 O   0  0  0  0  0  0  0  0  0  0  0  0
    3.8377    0.2772   44.1529 C   0  0  2  0  0  0  0  0  0  0  0  0
    4.0011    1.3987   43.2881 O   0  0  0  0  0  0  0  0  0  0  0  0
    3.8963   -1.0306   43.2973 C   0  0  1  0  0  0  0  0  0  0  0  0
    4.3761   -2.1626   44.1203 N   0  3  0  0  0  0  0  0  0  0  0  0
    2.5422   -1.3264   42.6005 C   0  0  1  0  0  0  0  0  0  0  0  0
    2.4740   -2.6302   41.9723 O   0  0  0  0  0  0  0  0  0  0  0  0
    1.3012    0.2085   44.0810 C   0  0  1  0  0  0  0  0  0  0  0  0
    1.4308   -1.1345   43.5394 O   0  0  0  0  0  0  0  0  0  0  0  0
   -0.0459    0.3824   44.8069 C   0  0  0  0  0  0  0  0  0  0  0  0
    0.1148    0.6750   46.2446 N   0  3  0  0  0  0  0  0  0  0  0  0
  1  2  1  6  0  0  0
  1  3  1  0  0  0  0
  1 10  1  0  0  0  0
  3  4  1  6  0  0  0
  3  5  1  0  0  0  0
  5  6  1  1  0  0  0
  5  7  1  0  0  0  0
  7  8  1  6  0  0  0
  7  9  1  0  0  0  0
  9 10  1  0  0  0  0
  9 11  1  1  0  0  0
 11 12  1  0  0  0  0
 13 14  1  1  0  0  0
 13 15  1  0  0  0  0
 13 22  1  0  0  0  0
 15 16  1  6  0  0  0
 15 17  1  0  0  0  0
 17 18  1  1  0  0  0
 17 19  1  0  0  0  0
 19  2  1  6  0  0  0
 19 20  1  0  0  0  0
 20 21  1  1  0  0  0
 20 22  1  0  0  0  0
 23 18  1  6  0  0  0
 23 24  1  0  0  0  0
 23 28  1  0  0  0  0
 24 25  1  1  0  0  0
 24 26  1  0  0  0  0
 26 27  1  0  0  0  0
 26 38  1  1  0  0  0
 27 28  1  0  0  0  0
 27 29  1  6  0  0  0
 29 30  1  0  0  0  0
 31 32  1  1  0  0  0
 31 33  1  0  0  0  0
 31 39  1  0  0  0  0
 33 34  1  6  0  0  0
 33 35  1  0  0  0  0
 35 36  1  1  0  0  0
 35 37  1  0  0  0  0
 37 38  1  1  0  0  0
 37 40  1  0  0  0  0
 39 40  1  0  0  0  0
 39 41  1  1  0  0  0
 41 42  1  0  0  0  0
M  CHG  5   4   1  14   1  21   1  36   1  42   1
M  END
>  <CHROM.1>
-103.16565881,148.91284477,84.49782473,-172.72213774,-54.47155782,-168.61100568
61.55375625,73.35226634,78.36065513,8.93059477,100.45868540,-43.58349525
73.11303044,75.70268245,-145.45103853,-168.88220413,-70.82808069,-171.96088229
47.89175511,-111.05280178,-4.14521198,74.15792983,2.46415495,-0.11902755
39.77298639,1.36327135,0.91637346,-1.06981785

>  <Name>
1pbr

>  <RI>
0

>  <Rbt.Current_Directory>
/home/itssahil/PROJECTS/Mol_Feturizer/New_Systems/rnas/1pbr

>  <Rbt.Executable>
rbdock ($Id: //depot/dev/client3/rdock/2013.1/src/exe/rbdock.cxx#4 $)

>  <Rbt.Library>
libRbt.so (2013.1, Build901 2013/11/27)

>  <Rbt.Parameter_File>
/export/apps/rDock/src/rDock_2013.1_src/data/scripts/dock_solv.prm

>  <Rbt.Receptor>
prm/pocket_docking_6.prm

>  <SCORE>
-34.5669

>  <SCORE.INTER>
-45.4267

>  <SCORE.INTER.CONST>
1

>  <SCORE.INTER.POLAR>
-6.2515

>  <SCORE.INTER.ROT>
9

>  <SCORE.INTER.SOLV>
27.5202

>  <SCORE.INTER.VDW>
-28.2195

>  <SCORE.INTER.norm>
-1.08159

>  <SCORE.INTRA>
10.8597

>  <SCORE.INTRA.DIHEDRAL>
16.7217

>  <SCORE.INTRA.DIHEDRAL.0>
29.7866

>  <SCORE.INTRA.POLAR>
-0.862266

>  <SCORE.INTRA.POLAR.0>
-0.984091

>  <SCORE.INTRA.REPUL>
-0.274115

>  <SCORE.INTRA.REPUL.0>
0.274115

>  <SCORE.INTRA.SOLV>
6.93035

>  <SCORE.INTRA.SOLV.lig_0>
-152.978

>  <SCORE.INTRA.VDW>
3.336

>  <SCORE.INTRA.VDW.0>
-6.10719

>  <SCORE.INTRA.norm>
0.258565

>  <SCORE.RESTR>
0

>  <SCORE.RESTR.CAVITY>
0

>  <SCORE.RESTR.norm>
0

>  <SCORE.SYSTEM>
0

>  <SCORE.SYSTEM.CONST>
0

>  <SCORE.SYSTEM.DIHEDRAL>
0

>  <SCORE.SYSTEM.SOLV>
0

>  <SCORE.SYSTEM.norm>
0

>  <SCORE.heavy>
42

>  <SCORE.norm>
-0.823022

>  <RMSD>
7.926

$$$$
1pbr
 OpenBabel11021811403D
libRbt.so/2013.1/901 2013/11/27
 42 45  0  0  0  0  0  0  0  0999 V2000
    1.8728    0.3866   36.9087 C   0  0  2  0  0  0  0  0  0  0  0  0
    3.1257    0.7866   37.5198 O   0  0  0  0  0  0  0  0  0  0  0  0
    1.3627    1.4881   35.9063 C   0  0  2  0  0  0  0  0  0  0  0  0
    2.4264    2.0964   35.0656 N   0  3  0  0  0  0  0  0  0  0  0  0
    0.6776    2.6534   36.6447 C   0  0  1  0  0  0  0  0  0  0  0  0
   -0.0062    3.5026   35.7257 O   0  0  0  0  0  0  0  0  0  0  0  0
   -0.3153    2.1334   37.6953 C   0  0  2  0  0  0  0  0  0  0  0  0
   -0.9702    3.2235   38.3365 O   0  0  0  0  0  0  0  0  0  0  0  0
    0.3910    1.1945   38.6983 C   0  0  2  0  0  0  0  0  0  0  0  0
    0.8959    0.0749   37.9400 O   0  0  0  0  0  0  0  0  0  0  0  0
   -0.5218    0.6463   39.7939 C   0  0  0  0  0  0  0  0  0  0  0  0
   -1.1765    1.6970   40.4925 O   0  0  0  0  0  0  0  0  0  0  0  0
    4.8140   -3.1289   37.3571 C   0  0  1  0  0  0  0  0  0  0  0  0
    5.6480   -4.3385   37.4797 N   0  3  0  0  0  0  0  0  0  0  0  0
    4.2100   -2.6870   38.7244 C   0  0  2  0  0  0  0  0  0  0  0  0
    3.4080   -3.7296   39.2744 O   0  0  0  0  0  0  0  0  0  0  0  0
    3.3241   -1.4166   38.5670 C   0  0  1  0  0  0  0  0  0  0  0  0
    2.9299   -0.9560   39.8934 O   0  0  0  0  0  0  0  0  0  0  0  0
    4.0738   -0.2661   37.8189 C   0  0  1  0  0  0  0  0  0  0  0  0
    4.7208   -0.7359   36.4768 C   0  0  1  0  0  0  0  0  0  0  0  0
    5.5054    0.3465   35.8425 N   0  3  0  0  0  0  0  0  0  0  0  0
    5.6290   -1.9708   36.7104 C   0  0  0  0  0  0  0  0  0  0  0  0
    3.5880    0.2076   40.4890 C   0  0  1  0  0  0  0  0  0  0  0  0
    2.6346    0.8391   41.5206 C   0  0  2  0  0  0  0  0  0  0  0  0
    2.9210    2.2230   41.7026 O   0  0  0  0  0  0  0  0  0  0  0  0
    3.0176   -0.0008   42.7485 C   0  0  1  0  0  0  0  0  0  0  0  0
    4.5332   -0.0511   42.6478 C   0  0  2  0  0  0  0  0  0  0  0  0
    4.7366   -0.2033   41.2514 O   0  0  0  0  0  0  0  0  0  0  0  0
    5.2010   -1.2014   43.4124 C   0  0  0  0  0  0  0  0  0  0  0  0
    4.7893   -2.4488   42.8733 O   0  0  0  0  0  0  0  0  0  0  0  0
   -1.0726   -0.8876   45.8020 C   0  0  1  0  0  0  0  0  0  0  0  0
   -0.4398   -1.6215   46.8487 O   0  0  0  0  0  0  0  0  0  0  0  0
   -0.7584    0.6252   45.9705 C   0  0  2  0  0  0  0  0  0  0  0  0
   -1.6742    1.3704   45.1714 O   0  0  0  0  0  0  0  0  0  0  0  0
    0.6987    1.0526   45.5964 C   0  0  1  0  0  0  0  0  0  0  0  0
    1.6063    0.8478   46.7468 N   0  3  0  0  0  0  0  0  0  0  0  0
    1.1950    0.3466   44.3071 C   0  0  1  0  0  0  0  0  0  0  0  0
    2.6049    0.5388   44.0342 O   0  0  0  0  0  0  0  0  0  0  0  0
   -0.5670   -1.3767   44.4214 C   0  0  1  0  0  0  0  0  0  0  0  0
    0.8541   -1.0802   44.3414 O   0  0  0  0  0  0  0  0  0  0  0  0
   -0.8346   -2.8695   44.1531 C   0  0  0  0  0  0  0  0  0  0  0  0
   -0.4357   -3.2848   42.7940 N   0  3  0  0  0  0  0  0  0  0  0  0
  1  2  1  1  0  0  0
  1  3  1  0  0  0  0
  1 10  1  0  0  0  0
  3  4  1  1  0  0  0
  3  5  1  0  0  0  0
  5  6  1  6  0  0  0
  5  7  1  0  0  0  0
  7  8  1  1  0  0  0
  7  9  1  0  0  0  0
  9 10  1  0  0  0  0
  9 11  1  1  0  0  0
 11 12  1  0  0  0  0
 13 14  1  1  0  0  0
 13 15  1  0  0  0  0
 13 22  1  0  0  0  0
 15 16  1  6  0  0  0
 15 17  1  0  0  0  0
 17 18  1  1  0  0  0
 17 19  1  0  0  0  0
 19  2  1  6  0  0  0
 19 20  1  0  0  0  0
 20 21  1  1  0  0  0
 20 22  1  0  0  0  0
 23 18  1  1  0  0  0
 23 24  1  0  0  0  0
 23 28  1  0  0  0  0
 24 25  1  1  0  0  0
 24 26  1  0  0  0  0
 26 27  1  0  0  0  0
 26 38  1  1  0  0  0
 27 28  1  0  0  0  0
 27 29  1  1  0  0  0
 29 30  1  0  0  0  0
 31 32  1  1  0  0  0
 31 33  1  0  0  0  0
 31 39  1  0  0  0  0
 33 34  1  6  0  0  0
 33 35  1  0  0  0  0
 35 36  1  1  0  0  0
 35 37  1  0  0  0  0
 37 38  1  1  0  0  0
 37 40  1  0  0  0  0
 39 40  1  0  0  0  0
 39 41  1  1  0  0  0
 41 42  1  0  0  0  0
M  CHG  5   4   1  14   1  21   1  36   1  42   1
M  END
>  <CHROM.1>
-146.07353864,-48.48320673,-72.83491788,-42.17540153,-49.66394329,-54.83391179
59.10496689,15.24839688,-55.31386193,103.54077791,155.38351876,80.53723961
-157.92745350,76.74502907,63.35635017,68.25237264,68.74438831,71.02689279
-179.90441298,-173.45623700,175.67546024,57.44272067,2.00501201,-0.13710845
40.62030652,1.15092510,0.67586094,-1.24109895

>  <Name>
1pbr

>  <RI>
0

>  <Rbt.Current_Directory>
/home/itssahil/PROJECTS/Mol_Feturizer/New_Systems/rnas/1pbr

>  <Rbt.Executable>
rbdock ($Id: //depot/dev/client3/rdock/2013.1/src/exe/rbdock.cxx#4 $)

>  <Rbt.Library>
libRbt.so (2013.1, Build901 2013/11/27)

>  <Rbt.Parameter_File>
/export/apps/rDock/src/rDock_2013.1_src/data/scripts/dock_solv.prm

>  <Rbt.Receptor>
prm/pocket_docking_6.prm

>  <SCORE>
-62.5297

>  <SCORE.INTER>
-63.4852

>  <SCORE.INTER.CONST>
1

>  <SCORE.INTER.POLAR>
-9.87526

>  <SCORE.INTER.ROT>
9

>  <SCORE.INTER.SOLV>
29.3652

>  <SCORE.INTER.VDW>
-28.7943

>  <SCORE.INTER.norm>
-1.51155

>  <SCORE.INTRA>
0.955547

>  <SCORE.INTRA.DIHEDRAL>
-3.97537

>  <SCORE.INTRA.DIHEDRAL.0>
29.7866

>  <SCORE.INTRA.POLAR>
0.56367

>  <SCORE.INTRA.POLAR.0>
-0.984091

>  <SCORE.INTRA.REPUL>
-0.274115

>  <SCORE.INTRA.REPUL.0>
0.274115

>  <SCORE.INTRA.SOLV>
-0.561375

>  <SCORE.INTRA.SOLV.lig_0>
-152.978

>  <SCORE.INTRA.VDW>
2.67802

>  <SCORE.INTRA.VDW.0>
-6.10719

>  <SCORE.INTRA.norm>
0.0227511

>  <SCORE.RESTR>
0

>  <SCORE.RESTR.CAVITY>
0

>  <SCORE.RESTR.norm>
0

>  <SCORE.SYSTEM>
0

>  <SCORE.SYSTEM.CONST>
0

>  <SCORE.SYSTEM.DIHEDRAL>
0

>  <SCORE.SYSTEM.SOLV>
0

>  <SCORE.SYSTEM.norm>
0

>  <SCORE.heavy>
42

>  <SCORE.norm>
-1.4888

>  <RMSD>
7.932

$$$$
1pbr
 OpenBabel11021811403D
libRbt.so/2013.1/901 2013/11/27
 42 45  0  0  0  0  0  0  0  0999 V2000
    4.2037    0.2659   36.3834 C   0  0  2  0  0  0  0  0  0  0  0  0
    2.8995    0.5730   36.9384 O   0  0  0  0  0  0  0  0  0  0  0  0
    4.0635   -0.5406   35.0387 C   0  0  2  0  0  0  0  0  0  0  0  0
    2.9804   -0.0600   34.1419 N   0  3  0  0  0  0  0  0  0  0  0  0
    3.7778   -2.0317   35.2989 C   0  0  1  0  0  0  0  0  0  0  0  0
    3.9157   -2.7902   34.0993 O   0  0  0  0  0  0  0  0  0  0  0  0
    4.7224   -2.5957   36.3710 C   0  0  2  0  0  0  0  0  0  0  0  0
    4.4730   -3.9841   36.5664 O   0  0  0  0  0  0  0  0  0  0  0  0
    4.6103   -1.7842   37.6807 C   0  0  2  0  0  0  0  0  0  0  0  0
    5.0107   -0.4324   37.3715 O   0  0  0  0  0  0  0  0  0  0  0  0
    5.5037   -2.2916   38.8114 C   0  0  0  0  0  0  0  0  0  0  0  0
    6.8718   -2.2931   38.4256 O   0  0  0  0  0  0  0  0  0  0  0  0
    3.7765    0.7285   41.1115 C   0  0  1  0  0  0  0  0  0  0  0  0
    3.9227    1.0829   42.5352 N   0  3  0  0  0  0  0  0  0  0  0  0
    2.2931    0.4514   40.7214 C   0  0  2  0  0  0  0  0  0  0  0  0
    1.7635   -0.6156   41.5047 O   0  0  0  0  0  0  0  0  0  0  0  0
    2.1663    0.0672   39.2181 C   0  0  1  0  0  0  0  0  0  0  0  0
    0.7509   -0.0120   38.8751 O   0  0  0  0  0  0  0  0  0  0  0  0
    2.8698    1.1057   38.2845 C   0  0  1  0  0  0  0  0  0  0  0  0
    4.3381    1.4153   38.7192 C   0  0  1  0  0  0  0  0  0  0  0  0
    4.9432    2.4725   37.8792 N   0  3  0  0  0  0  0  0  0  0  0  0
    4.3890    1.8399   40.2097 C   0  0  0  0  0  0  0  0  0  0  0  0
   -0.2394    0.6935   39.6895 C   0  0  1  0  0  0  0  0  0  0  0  0
    0.2442    2.1387   39.9120 C   0  0  2  0  0  0  0  0  0  0  0  0
   -0.3106    2.6864   41.1046 O   0  0  0  0  0  0  0  0  0  0  0  0
   -0.3406    2.7859   38.6475 C   0  0  1  0  0  0  0  0  0  0  0  0
   -1.7268    2.1669   38.5770 C   0  0  2  0  0  0  0  0  0  0  0  0
   -1.4771    0.8256   38.9683 O   0  0  0  0  0  0  0  0  0  0  0  0
   -2.3896    2.2043   37.1939 C   0  0  0  0  0  0  0  0  0  0  0  0
   -2.8926    3.5056   36.9295 O   0  0  0  0  0  0  0  0  0  0  0  0
    0.0378    6.9689   35.3468 C   0  0  1  0  0  0  0  0  0  0  0  0
    0.9065    7.8667   36.0353 O   0  0  0  0  0  0  0  0  0  0  0  0
    0.7300    5.5838   35.2120 C   0  0  2  0  0  0  0  0  0  0  0  0
    0.0385    4.8256   34.2223 O   0  0  0  0  0  0  0  0  0  0  0  0
    0.8064    4.7422   36.5279 C   0  0  1  0  0  0  0  0  0  0  0  0
    1.9916    5.1350   37.3217 N   0  3  0  0  0  0  0  0  0  0  0  0
   -0.5129    4.8191   37.3406 C   0  0  1  0  0  0  0  0  0  0  0  0
   -0.4254    4.2375   38.6646 O   0  0  0  0  0  0  0  0  0  0  0  0
   -1.2966    6.8144   36.1189 C   0  0  1  0  0  0  0  0  0  0  0  0
   -0.9952    6.2036   37.4034 O   0  0  0  0  0  0  0  0  0  0  0  0
   -2.0659    8.1357   36.3039 C   0  0  0  0  0  0  0  0  0  0  0  0
   -3.1759    8.0187   37.2697 N   0  3  0  0  0  0  0  0  0  0  0  0
  1  2  1  1  0  0  0
  1  3  1  0  0  0  0
  1 10  1  0  0  0  0
  3  4  1  6  0  0  0
  3  5  1  0  0  0  0
  5  6  1  6  0  0  0
  5  7  1  0  0  0  0
  7  8  1  1  0  0  0
  7  9  1  0  0  0  0
  9 10  1  0  0  0  0
  9 11  1  1  0  0  0
 11 12  1  0  0  0  0
 13 14  1  1  0  0  0
 13 15  1  0  0  0  0
 13 22  1  0  0  0  0
 15 16  1  1  0  0  0
 15 17  1  0  0  0  0
 17 18  1  6  0  0  0
 17 19  1  0  0  0  0
 19  2  1  6  0  0  0
 19 20  1  0  0  0  0
 20 21  1  6  0  0  0
 20 22  1  0  0  0  0
 23 18  1  6  0  0  0
 23 24  1  0  0  0  0
 23 28  1  0  0  0  0
 24 25  1  1  0  0  0
 24 26  1  0  0  0  0
 26 27  1  0  0  0  0
 26 38  1  1  0  0  0
 27 28  1  0  0  0  0
 27 29  1  6  0  0  0
 29 30  1  0  0  0  0
 31 32  1  1  0  0  0
 31 33  1  0  0  0  0
 31 39  1  0  0  0  0
 33 34  1  6  0  0  0
 33 35  1  0  0  0  0
 35 36  1  1  0  0  0
 35 37  1  0  0  0  0
 37 38  1  1  0  0  0
 37 40  1  0  0  0  0
 39 40  1  0  0  0  0
 39 41  1  1  0  0  0
 41 42  1  0  0  0  0
M  CHG  5   4   1  14   1  21   1  36   1  42   1
M  END
>  <CHROM.1>
169.61059752,-114.30904702,169.87300120,81.96182912,-55.13363181,58.08952443
-61.92863069,64.09848556,-47.83445691,22.03467383,47.94399278,-32.84451641
167.57366304,159.07052177,-77.24090509,-169.65914291,-83.52561445,-63.58626644
18.26195145,-71.55880508,-168.09308381,79.35877058,1.69182756,1.93573219
37.73413591,-0.35154315,0.87839852,-1.23824353

>  <Name>
1pbr

>  <RI>
0

>  <Rbt.Current_Directory>
/home/itssahil/PROJECTS/Mol_Feturizer/New_Systems/rnas/1pbr

>  <Rbt.Executable>
rbdock ($Id: //depot/dev/client3/rdock/2013.1/src/exe/rbdock.cxx#4 $)

>  <Rbt.Library>
libRbt.so (2013.1, Build901 2013/11/27)

>  <Rbt.Parameter_File>
/export/apps/rDock/src/rDock_2013.1_src/data/scripts/dock_solv.prm

>  <Rbt.Receptor>
prm/blind_docking_60.prm

>  <SCORE>
-4.85014

>  <SCORE.INTER>
-22.4246

>  <SCORE.INTER.CONST>
1

>  <SCORE.INTER.POLAR>
-7.38107

>  <SCORE.INTER.ROT>
9

>  <SCORE.INTER.SOLV>
38.9647

>  <SCORE.INTER.VDW>
-12.9344

>  <SCORE.INTER.norm>
-0.533919

>  <SCORE.INTRA>
16.0328

>  <SCORE.INTRA.DIHEDRAL>
0.748753

>  <SCORE.INTRA.DIHEDRAL.0>
29.7866

>  <SCORE.INTRA.POLAR>
0.920448

>  <SCORE.INTRA.POLAR.0>
-0.984091

>  <SCORE.INTRA.REPUL>
-0.274115

>  <SCORE.INTRA.REPUL.0>
0.274115

>  <SCORE.INTRA.SOLV>
1.43538

>  <SCORE.INTRA.SOLV.lig_0>
-152.978

>  <SCORE.INTRA.VDW>
13.1818

>  <SCORE.INTRA.VDW.0>
-6.10719

>  <SCORE.INTRA.norm>
0.381734

>  <SCORE.RESTR>
1.54161

>  <SCORE.RESTR.CAVITY>
1.54161

>  <SCORE.RESTR.norm>
0.0367049

>  <SCORE.SYSTEM>
0

>  <SCORE.SYSTEM.CONST>
0

>  <SCORE.SYSTEM.DIHEDRAL>
0

>  <SCORE.SYSTEM.SOLV>
0

>  <SCORE.SYSTEM.norm>
0

>  <SCORE.heavy>
42

>  <SCORE.norm>
-0.11548

>  <RMSD>
7.938

$$$$
1pbr
 OpenBabel11021811403D
libRbt.so/2013.1/901 2013/11/27
 42 45  0  0  0  0  0  0  0  0999 V2000
    5.4815   -2.3280   37.6122 C   0  0  2  0  0  0  0  0  0  0  0  0
    6.3050   -2.6369   38.7652 O   0  0  0  0  0  0  0  0  0  0  0  0
    6.0508   -1.0823   36.8359 C   0  0  2  0  0  0  0  0  0  0  0  0
    7.5309   -1.0611   36.7057 N   0  3  0  0  0  0  0  0  0  0  0  0
    5.6593    0.2405   37.5211 C   0  0  1  0  0  0  0  0  0  0  0  0
    5.9487    1.3527   36.6770 O   0  0  0  0  0  0  0  0  0  0  0  0
    4.1675    0.2519   37.8872 C   0  0  2  0  0  0  0  0  0  0  0  0
    3.8149    1.4982   38.4794 O   0  0  0  0  0  0  0  0  0  0  0  0
    3.8160   -0.9522   38.7890 C   0  0  2  0  0  0  0  0  0  0  0  0
    4.0993   -2.1440   38.0256 O   0  0  0  0  0  0  0  0  0  0  0  0
    2.3511   -1.0072   39.2191 C   0  0  0  0  0  0  0  0  0  0  0  0
    1.9695    0.1805   39.9006 O   0  0  0  0  0  0  0  0  0  0  0  0
    3.7253   -5.6358   40.3649 C   0  0  1  0  0  0  0  0  0  0  0  0
    3.1247   -6.8066   41.0301 N   0  3  0  0  0  0  0  0  0  0  0  0
    4.3362   -4.6267   41.3839 C   0  0  2  0  0  0  0  0  0  0  0  0
    3.3348   -4.1635   42.2868 O   0  0  0  0  0  0  0  0  0  0  0  0
    4.9521   -3.3944   40.6589 C   0  0  1  0  0  0  0  0  0  0  0  0
    5.6527   -2.5770   41.6428 O   0  0  0  0  0  0  0  0  0  0  0  0
    5.9476   -3.8143   39.5285 C   0  0  1  0  0  0  0  0  0  0  0  0
    5.3413   -4.8670   38.5463 C   0  0  1  0  0  0  0  0  0  0  0  0
    6.3372   -5.3183   37.5493 N   0  3  0  0  0  0  0  0  0  0  0  0
    4.7922   -6.0896   39.3260 C   0  0  0  0  0  0  0  0  0  0  0  0
    5.0894   -1.2926   42.0608 C   0  0  1  0  0  0  0  0  0  0  0  0
    3.6013   -1.4946   42.4029 C   0  0  2  0  0  0  0  0  0  0  0  0
    2.8716   -0.2802   42.2508 O   0  0  0  0  0  0  0  0  0  0  0  0
    3.7462   -1.9058   43.8759 C   0  0  1  0  0  0  0  0  0  0  0  0
    4.7927   -0.9282   44.3847 C   0  0  2  0  0  0  0  0  0  0  0  0
    5.6949   -0.8578   43.2912 O   0  0  0  0  0  0  0  0  0  0  0  0
    5.5303   -1.3643   45.6573 C   0  0  0  0  0  0  0  0  0  0  0  0
    6.1879   -2.6037   45.4389 O   0  0  0  0  0  0  0  0  0  0  0  0
   -0.5935   -4.8000   44.8869 C   0  0  1  0  0  0  0  0  0  0  0  0
   -0.7592   -4.7168   46.3012 O   0  0  0  0  0  0  0  0  0  0  0  0
   -0.9704   -3.4367   44.2428 C   0  0  2  0  0  0  0  0  0  0  0  0
   -1.1631   -3.6338   42.8440 O   0  0  0  0  0  0  0  0  0  0  0  0
    0.0697   -2.2874   44.4502 C   0  0  1  0  0  0  0  0  0  0  0  0
   -0.1598   -1.6138   45.7474 N   0  3  0  0  0  0  0  0  0  0  0  0
    1.5278   -2.7908   44.2848 C   0  0  1  0  0  0  0  0  0  0  0  0
    2.5339   -1.8239   44.6747 O   0  0  0  0  0  0  0  0  0  0  0  0
    0.8734   -5.1562   44.5379 C   0  0  1  0  0  0  0  0  0  0  0  0
    1.7141   -4.0615   44.9946 O   0  0  0  0  0  0  0  0  0  0  0  0
    1.3463   -6.4977   45.1285 C   0  0  0  0  0  0  0  0  0  0  0  0
    0.5982   -7.6517   44.5928 N   0  3  0  0  0  0  0  0  0  0  0  0
  1  2  1  1  0  0  0
  1  3  1  0  0  0  0
  1 10  1  0  0  0  0
  3  4  1  1  0  0  0
  3  5  1  0  0  0  0
  5  6  1  6  0  0  0
  5  7  1  0  0  0  0
  7  8  1  1  0  0  0
  7  9  1  0  0  0  0
  9 10  1  0  0  0  0
  9 11  1  6  0  0  0
 11 12  1  0  0  0  0
 13 14  1  1  0  0  0
 13 15  1  0  0  0  0
 13 22  1  0  0  0  0
 15 16  1  1  0  0  0
 15 17  1  0  0  0  0
 17 18  1  1  0  0  0
 17 19  1  0  0  0  0
 19  2  1  6  0  0  0
 19 20  1  0  0  0  0
 20 21  1  6  0  0  0
 20 22  1  0  0  0  0
 23 18  1  1  0  0  0
 23 24  1  0  0  0  0
 23 28  1  0  0  0  0
 24 25  1  1  0  0  0
 24 26  1  0  0  0  0
 26 27  1  0  0  0  0
 26 38  1  1  0  0  0
 27 28  1  0  0  0  0
 27 29  1  1  0  0  0
 29 30  1  0  0  0  0
 31 32  1  1  0  0  0
 31 33  1  0  0  0  0
 31 39  1  0  0  0  0
 33 34  1  6  0  0  0
 33 35  1  0  0  0  0
 35 36  1  1  0  0  0
 35 37  1  0  0  0  0
 37 38  1  1  0  0  0
 37 40  1  0  0  0  0
 39 40  1  0  0  0  0
 39 41  1  1  0  0  0
 41 42  1  0  0  0  0
M  CHG  5   4   1  14   1  21   1  36   1  42   1
M  END
>  <CHROM.1>
-176.23940234,-90.77350368,149.63014518,-63.53231393,-61.40026154,-57.30619838
-176.30253870,-59.60283375,67.92726087,-107.71705240,48.12112677,77.08325958
-58.05618486,67.62686060,58.80233998,175.51141745,175.89415616,76.75390894
-157.11431396,-146.49640053,63.63533844,56.56101617,3.49367194,-2.71661427
41.56177210,-0.23128115,-0.98737873,-3.02120114

>  <Name>
1pbr

>  <RI>
0

>  <Rbt.Current_Directory>
/home/itssahil/PROJECTS/Mol_Feturizer/New_Systems/rnas/1pbr

>  <Rbt.Executable>
rbdock ($Id: //depot/dev/client3/rdock/2013.1/src/exe/rbdock.cxx#4 $)

>  <Rbt.Library>
libRbt.so (2013.1, Build901 2013/11/27)

>  <Rbt.Parameter_File>
/export/apps/rDock/src/rDock_2013.1_src/data/scripts/dock_solv.prm

>  <Rbt.Receptor>
prm/pocket_docking_4.prm

>  <SCORE>
-19.0775

>  <SCORE.INTER>
-20.1063

>  <SCORE.INTER.CONST>
1

>  <SCORE.INTER.POLAR>
-4.0649

>  <SCORE.INTER.ROT>
9

>  <SCORE.INTER.SOLV>
16.9379

>  <SCORE.INTER.VDW>
-15.1005

>  <SCORE.INTER.norm>
-0.478721

>  <SCORE.INTRA>
0.572847

>  <SCORE.INTRA.DIHEDRAL>
-7.83122

>  <SCORE.INTRA.DIHEDRAL.0>
29.7866

>  <SCORE.INTRA.POLAR>
0.984091

>  <SCORE.INTRA.POLAR.0>
-0.984091

>  <SCORE.INTRA.REPUL>
-0.27052

>  <SCORE.INTRA.REPUL.0>
0.274115

>  <SCORE.INTRA.SOLV>
2.40606

>  <SCORE.INTRA.SOLV.lig_0>
-152.978

>  <SCORE.INTRA.VDW>
1.29212

>  <SCORE.INTRA.VDW.0>
-6.10719

>  <SCORE.INTRA.norm>
0.0136392

>  <SCORE.RESTR>
0.455976

>  <SCORE.RESTR.CAVITY>
0.455976

>  <SCORE.RESTR.norm>
0.0108566

>  <SCORE.SYSTEM>
0

>  <SCORE.SYSTEM.CONST>
0

>  <SCORE.SYSTEM.DIHEDRAL>
0

>  <SCORE.SYSTEM.SOLV>
0

>  <SCORE.SYSTEM.norm>
0

>  <SCORE.heavy>
42

>  <SCORE.norm>
-0.454226

>  <RMSD>
7.947

$$$$
1pbr
 OpenBabel11021811403D
libRbt.so/2013.1/901 2013/11/27
 42 45  0  0  0  0  0  0  0  0999 V2000
    3.7291   -0.3449   37.6508 C   0  0  2  0  0  0  0  0  0  0  0  0
    4.7826   -0.1313   38.6242 O   0  0  0  0  0  0  0  0  0  0  0  0
    3.9035    0.6178   36.4175 C   0  0  2  0  0  0  0  0  0  0  0  0
    5.3065    0.7788   35.9550 N   0  3  0  0  0  0  0  0  0  0  0  0
    3.3863    2.0353   36.7269 C   0  0  1  0  0  0  0  0  0  0  0  0
    3.3047    2.8154   35.5360 O   0  0  0  0  0  0  0  0  0  0  0  0
    2.0062    1.9846   37.3997 C   0  0  2  0  0  0  0  0  0  0  0  0
    1.5254    3.3037   37.6381 O   0  0  0  0  0  0  0  0  0  0  0  0
    2.0556    1.1311   38.6864 C   0  0  2  0  0  0  0  0  0  0  0  0
    2.4295   -0.2051   38.2886 O   0  0  0  0  0  0  0  0  0  0  0  0
    0.7255    1.0440   39.4328 C   0  0  0  0  0  0  0  0  0  0  0  0
    0.9285    0.9090   40.8332 O   0  0  0  0  0  0  0  0  0  0  0  0
    4.8697   -4.2206   39.8398 C   0  0  1  0  0  0  0  0  0  0  0  0
    5.1425   -5.5249   40.4710 N   0  3  0  0  0  0  0  0  0  0  0  0
    4.2047   -3.2144   40.8273 C   0  0  2  0  0  0  0  0  0  0  0  0
    2.9740   -3.7396   41.3192 O   0  0  0  0  0  0  0  0  0  0  0  0
    3.9151   -1.8506   40.1348 C   0  0  1  0  0  0  0  0  0  0  0  0
    3.4551   -0.9038   41.1443 O   0  0  0  0  0  0  0  0  0  0  0  0
    5.1805   -1.2739   39.4197 C   0  0  1  0  0  0  0  0  0  0  0  0
    5.8686   -2.3104   38.4749 C   0  0  1  0  0  0  0  0  0  0  0  0
    7.1162   -1.7702   37.8907 N   0  3  0  0  0  0  0  0  0  0  0  0
    6.1757   -3.6254   39.2371 C   0  0  0  0  0  0  0  0  0  0  0  0
    4.4273   -0.1379   41.9254 C   0  0  1  0  0  0  0  0  0  0  0  0
    3.6742    0.6523   43.0119 C   0  0  2  0  0  0  0  0  0  0  0  0
    4.4087    1.8077   43.4065 O   0  0  0  0  0  0  0  0  0  0  0  0
    3.6419   -0.4202   44.1112 C   0  0  1  0  0  0  0  0  0  0  0  0
    5.0481   -0.9930   44.0478 C   0  0  2  0  0  0  0  0  0  0  0  0
    5.2965   -1.0256   42.6507 O   0  0  0  0  0  0  0  0  0  0  0  0
    5.2107   -2.3942   44.6511 C   0  0  0  0  0  0  0  0  0  0  0  0
    4.8748   -2.3728   46.0306 O   0  0  0  0  0  0  0  0  0  0  0  0
   -0.8123   -0.2853   46.5950 C   0  0  1  0  0  0  0  0  0  0  0  0
   -0.6555   -1.5214   47.2895 O   0  0  0  0  0  0  0  0  0  0  0  0
    0.0190    0.8164   47.3097 C   0  0  2  0  0  0  0  0  0  0  0  0
   -0.4279    2.0904   46.8518 O   0  0  0  0  0  0  0  0  0  0  0  0
    1.5671    0.7241   47.1083 C   0  0  1  0  0  0  0  0  0  0  0  0
    2.1594   -0.2080   48.0929 N   0  3  0  0  0  0  0  0  0  0  0  0
    1.9392    0.3677   45.6449 C   0  0  1  0  0  0  0  0  0  0  0  0
    3.3416    0.0598   45.4507 O   0  0  0  0  0  0  0  0  0  0  0  0
   -0.3375   -0.4299   45.1272 C   0  0  1  0  0  0  0  0  0  0  0  0
    1.0870   -0.7199   45.1506 O   0  0  0  0  0  0  0  0  0  0  0  0
   -1.1044   -1.4991   44.3268 C   0  0  0  0  0  0  0  0  0  0  0  0
   -1.2534   -2.7674   45.0667 N   0  3  0  0  0  0  0  0  0  0  0  0
  1  2  1  1  0  0  0
  1  3  1  0  0  0  0
  1 10  1  0  0  0  0
  3  4  1  1  0  0  0
  3  5  1  0  0  0  0
  5  6  1  6  0  0  0
  5  7  1  0  0  0  0
  7  8  1  1  0  0  0
  7  9  1  0  0  0  0
  9 10  1  0  0  0  0
  9 11  1  6  0  0  0
 11 12  1  0  0  0  0
 13 14  1  1  0  0  0
 13 15  1  0  0  0  0
 13 22  1  0  0  0  0
 15 16  1  6  0  0  0
 15 17  1  0  0  0  0
 17 18  1  1  0  0  0
 17 19  1  0  0  0  0
 19  2  1  6  0  0  0
 19 20  1  0  0  0  0
 20 21  1  1  0  0  0
 20 22  1  0  0  0  0
 23 18  1  1  0  0  0
 23 24  1  0  0  0  0
 23 28  1  0  0  0  0
 24 25  1  1  0  0  0
 24 26  1  0  0  0  0
 26 27  1  0  0  0  0
 26 38  1  1  0  0  0
 27 28  1  0  0  0  0
 27 29  1  6  0  0  0
 29 30  1  0  0  0  0
 31 32  1  1  0  0  0
 31 33  1  0  0  0  0
 31 39  1  0  0  0  0
 33 34  1  6  0  0  0
 33 35  1  0  0  0  0
 35 36  1  1  0  0  0
 35 37  1  0  0  0  0
 37 38  1  1  0  0  0
 37 40  1  0  0  0  0
 39 40  1  0  0  0  0
 39 41  1  1  0  0  0
 41 42  1  0  0  0  0
M  CHG  5   4   1  14   1  21   1  36   1  42   1
M  END
>  <CHROM.1>
-149.97661896,-55.39880651,44.65880463,-64.63951937,178.86069369,-149.04823471
81.61026946,56.61910653,-177.45727172,85.65457110,-173.65584282,-166.76266816
-61.21607402,75.85786155,-61.05377502,-57.96271548,63.43537704,69.34503495
-69.71378035,173.30891079,-46.38294210,154.01491413,2.97170907,-0.54164375
41.83269675,1.05124841,0.77229322,-1.14758248

>  <Name>
1pbr

>  <RI>
0

>  <Rbt.Current_Directory>
/home/itssahil/PROJECTS/Mol_Feturizer/New_Systems/rnas/1pbr

>  <Rbt.Executable>
rbdock ($Id: //depot/dev/client3/rdock/2013.1/src/exe/rbdock.cxx#4 $)

>  <Rbt.Library>
libRbt.so (2013.1, Build901 2013/11/27)

>  <Rbt.Parameter_File>
/export/apps/rDock/src/rDock_2013.1_src/data/scripts/dock_solv.prm

>  <Rbt.Receptor>
prm/pocket_docking_4.prm

>  <SCORE>
-43.2834

>  <SCORE.INTER>
-38.7671

>  <SCORE.INTER.CONST>
1

>  <SCORE.INTER.POLAR>
-5.4762

>  <SCORE.INTER.ROT>
9

>  <SCORE.INTER.SOLV>
27.6107

>  <SCORE.INTER.VDW>
-26.3943

>  <SCORE.INTER.norm>
-0.923025

>  <SCORE.INTRA>
-4.51638

>  <SCORE.INTRA.DIHEDRAL>
-11.9488

>  <SCORE.INTRA.DIHEDRAL.0>
29.7866

>  <SCORE.INTRA.POLAR>
0.0125737

>  <SCORE.INTRA.POLAR.0>
-0.984091

>  <SCORE.INTRA.REPUL>
-0.264593

>  <SCORE.INTRA.REPUL.0>
0.274115

>  <SCORE.INTRA.SOLV>
2.47171

>  <SCORE.INTRA.SOLV.lig_0>
-152.978

>  <SCORE.INTRA.VDW>
1.50238

>  <SCORE.INTRA.VDW.0>
-6.10719

>  <SCORE.INTRA.norm>
-0.107533

>  <SCORE.RESTR>
0

>  <SCORE.RESTR.CAVITY>
0

>  <SCORE.RESTR.norm>
0

>  <SCORE.SYSTEM>
0

>  <SCORE.SYSTEM.CONST>
0

>  <SCORE.SYSTEM.DIHEDRAL>
0

>  <SCORE.SYSTEM.SOLV>
0

>  <SCORE.SYSTEM.norm>
0

>  <SCORE.heavy>
42

>  <SCORE.norm>
-1.03056

>  <RMSD>
7.949

$$$$
1pbr
 OpenBabel11021811403D
libRbt.so/2013.1/901 2013/11/27
 42 45  0  0  0  0  0  0  0  0999 V2000
    4.0914   -0.5775   36.6641 C   0  0  2  0  0  0  0  0  0  0  0  0
    4.2134   -1.0722   38.0219 O   0  0  0  0  0  0  0  0  0  0  0  0
    5.3641   -0.9511   35.8163 C   0  0  2  0  0  0  0  0  0  0  0  0
    5.8802   -2.3246   36.0518 N   0  3  0  0  0  0  0  0  0  0  0  0
    6.5372    0.0052   36.1027 C   0  0  1  0  0  0  0  0  0  0  0  0
    7.5816   -0.1751   35.1488 O   0  0  0  0  0  0  0  0  0  0  0  0
    6.0734    1.4695   36.0814 C   0  0  2  0  0  0  0  0  0  0  0  0
    7.1784    2.3398   36.3047 O   0  0  0  0  0  0  0  0  0  0  0  0
    4.9281    1.6956   37.0933 C   0  0  2  0  0  0  0  0  0  0  0  0
    3.8314    0.8534   36.6797 O   0  0  0  0  0  0  0  0  0  0  0  0
    4.4187    3.1347   37.1527 C   0  0  0  0  0  0  0  0  0  0  0  0
    5.4450    4.0279   37.5643 O   0  0  0  0  0  0  0  0  0  0  0  0
    4.4142    0.5876   41.9478 C   0  0  1  0  0  0  0  0  0  0  0  0
    4.6831    1.3913   43.1543 N   0  3  0  0  0  0  0  0  0  0  0  0
    3.5364    1.3532   40.9119 C   0  0  2  0  0  0  0  0  0  0  0  0
    2.2872    1.7200   41.4928 O   0  0  0  0  0  0  0  0  0  0  0  0
    3.2558    0.4801   39.6538 C   0  0  1  0  0  0  0  0  0  0  0  0
    2.5811    1.3031   38.6566 O   0  0  0  0  0  0  0  0  0  0  0  0
    4.5691   -0.1070   39.0409 C   0  0  1  0  0  0  0  0  0  0  0  0
    5.4655   -0.8240   40.1006 C   0  0  1  0  0  0  0  0  0  0  0  0
    6.7442   -1.2808   39.5124 N   0  3  0  0  0  0  0  0  0  0  0  0
    5.7493    0.1147   41.3017 C   0  0  0  0  0  0  0  0  0  0  0  0
    1.2217    0.9681   38.2304 C   0  0  1  0  0  0  0  0  0  0  0  0
    0.4002    2.2674   38.1358 C   0  0  2  0  0  0  0  0  0  0  0  0
   -0.9907    2.0069   38.3021 O   0  0  0  0  0  0  0  0  0  0  0  0
    0.7488    2.6686   36.6945 C   0  0  1  0  0  0  0  0  0  0  0  0
    0.6602    1.3425   35.9576 C   0  0  2  0  0  0  0  0  0  0  0  0
    1.2331    0.4406   36.8920 O   0  0  0  0  0  0  0  0  0  0  0  0
    1.4189    1.2833   34.6254 C   0  0  0  0  0  0  0  0  0  0  0  0
    1.5218   -0.0619   34.1826 O   0  0  0  0  0  0  0  0  0  0  0  0
    0.8438    7.3395   34.0451 C   0  0  1  0  0  0  0  0  0  0  0  0
   -0.3037    8.0515   34.5042 O   0  0  0  0  0  0  0  0  0  0  0  0
    1.7346    6.9590   35.2606 C   0  0  2  0  0  0  0  0  0  0  0  0
    3.0262    6.5940   34.7797 O   0  0  0  0  0  0  0  0  0  0  0  0
    1.1858    5.8010   36.1570 C   0  0  1  0  0  0  0  0  0  0  0  0
    0.2356    6.3323   37.1589 N   0  3  0  0  0  0  0  0  0  0  0  0
    0.5832    4.6499   35.3093 C   0  0  1  0  0  0  0  0  0  0  0  0
   -0.1289    3.6553   36.0857 O   0  0  0  0  0  0  0  0  0  0  0  0
    0.4135    6.0570   33.2896 C   0  0  1  0  0  0  0  0  0  0  0  0
   -0.2644    5.1910   34.2406 O   0  0  0  0  0  0  0  0  0  0  0  0
   -0.4737    6.3264   32.0599 C   0  0  0  0  0  0  0  0  0  0  0  0
    0.2919    6.8346   30.9049 N   0  3  0  0  0  0  0  0  0  0  0  0
  1  2  1  1  0  0  0
  1  3  1  0  0  0  0
  1 10  1  0  0  0  0
  3  4  1  1  0  0  0
  3  5  1  0  0  0  0
  5  6  1  6  0  0  0
  5  7  1  0  0  0  0
  7  8  1  1  0  0  0
  7  9  1  0  0  0  0
  9 10  1  0  0  0  0
  9 11  1  6  0  0  0
 11 12  1  0  0  0  0
 13 14  1  1  0  0  0
 13 15  1  0  0  0  0
 13 22  1  0  0  0  0
 15 16  1  1  0  0  0
 15 17  1  0  0  0  0
 17 18  1  6  0  0  0
 17 19  1  0  0  0  0
 19  2  1  6  0  0  0
 19 20  1  0  0  0  0
 20 21  1  6  0  0  0
 20 22  1  0  0  0  0
 23 18  1  6  0  0  0
 23 24  1  0  0  0  0
 23 28  1  0  0  0  0
 24 25  1  6  0  0  0
 24 26  1  0  0  0  0
 26 27  1  0  0  0  0
 26 38  1  6  0  0  0
 27 28  1  0  0  0  0
 27 29  1  6  0  0  0
 29 30  1  0  0  0  0
 31 32  1  1  0  0  0
 31 33  1  0  0  0  0
 31 39  1  0  0  0  0
 33 34  1  6  0  0  0
 33 35  1  0  0  0  0
 35 36  1  1  0  0  0
 35 37  1  0  0  0  0
 37 38  1  1  0  0  0
 37 40  1  0  0  0  0
 39 40  1  0  0  0  0
 39 41  1  6  0  0  0
 41 42  1  0  0  0  0
M  CHG  5   4   1  14   1  21   1  36   1  42   1
M  END
>  <CHROM.1>
102.32528514,91.60269986,171.40315509,-165.15066940,63.71100137,-61.73919321
71.27754754,171.41564591,-55.25151746,-116.90809092,137.47644755,-93.74634272
-55.57210455,138.77129509,166.84657071,59.67672040,175.33993239,63.98030627
77.99761842,-81.77971851,76.02043468,59.58246619,2.91954866,2.34823478,36.91535642
-0.80006630,0.72482539,-1.24678191

>  <Name>
1pbr

>  <RI>
0

>  <Rbt.Current_Directory>
/home/itssahil/PROJECTS/Mol_Feturizer/New_Systems/rnas/1pbr

>  <Rbt.Executable>
rbdock ($Id: //depot/dev/client3/rdock/2013.1/src/exe/rbdock.cxx#4 $)

>  <Rbt.Library>
libRbt.so (2013.1, Build901 2013/11/27)

>  <Rbt.Parameter_File>
/export/apps/rDock/src/rDock_2013.1_src/data/scripts/dock_solv.prm

>  <Rbt.Receptor>
prm/blind_docking_60.prm

>  <SCORE>
-25.7293

>  <SCORE.INTER>
-34.1816

>  <SCORE.INTER.CONST>
1

>  <SCORE.INTER.POLAR>
-4.96982

>  <SCORE.INTER.ROT>
9

>  <SCORE.INTER.SOLV>
37.6264

>  <SCORE.INTER.VDW>
-28.3638

>  <SCORE.INTER.norm>
-0.813848

>  <SCORE.INTRA>
7.2798

>  <SCORE.INTRA.DIHEDRAL>
8.09108

>  <SCORE.INTRA.DIHEDRAL.0>
29.7866

>  <SCORE.INTRA.POLAR>
0.617954

>  <SCORE.INTRA.POLAR.0>
-0.984091

>  <SCORE.INTRA.REPUL>
-0.274115

>  <SCORE.INTRA.REPUL.0>
0.274115

>  <SCORE.INTRA.SOLV>
0.707281

>  <SCORE.INTRA.SOLV.lig_0>
-152.978

>  <SCORE.INTRA.VDW>
2.15015

>  <SCORE.INTRA.VDW.0>
-6.10719

>  <SCORE.INTRA.norm>
0.173329

>  <SCORE.RESTR>
1.17253

>  <SCORE.RESTR.CAVITY>
1.17253

>  <SCORE.RESTR.norm>
0.0279175

>  <SCORE.SYSTEM>
0

>  <SCORE.SYSTEM.CONST>
0

>  <SCORE.SYSTEM.DIHEDRAL>
0

>  <SCORE.SYSTEM.SOLV>
0

>  <SCORE.SYSTEM.norm>
0

>  <SCORE.heavy>
42

>  <SCORE.norm>
-0.612602

>  <RMSD>
7.956

$$$$
1pbr
 OpenBabel11021811403D
libRbt.so/2013.1/901 2013/11/27
 42 45  0  0  0  0  0  0  0  0999 V2000
    3.4794    0.6780   38.1888 C   0  0  2  0  0  0  0  0  0  0  0  0
    3.4987    1.8724   39.0111 O   0  0  0  0  0  0  0  0  0  0  0  0
    4.8607   -0.0737   38.2619 C   0  0  2  0  0  0  0  0  0  0  0  0
    5.4609   -0.1291   39.6201 N   0  3  0  0  0  0  0  0  0  0  0  0
    5.9141    0.5855   37.3516 C   0  0  1  0  0  0  0  0  0  0  0  0
    7.0642   -0.2476   37.2230 O   0  0  0  0  0  0  0  0  0  0  0  0
    5.3355    0.8758   35.9585 C   0  0  2  0  0  0  0  0  0  0  0  0
    6.3352    1.4443   35.1185 O   0  0  0  0  0  0  0  0  0  0  0  0
    4.0756    1.7636   36.0633 C   0  0  2  0  0  0  0  0  0  0  0  0
    3.1018    1.0204   36.8266 O   0  0  0  0  0  0  0  0  0  0  0  0
    3.4454    2.1196   34.7179 C   0  0  0  0  0  0  0  0  0  0  0  0
    2.4403    1.1820   34.3557 O   0  0  0  0  0  0  0  0  0  0  0  0
    0.9410    0.3366   42.0619 C   0  0  1  0  0  0  0  0  0  0  0  0
    0.0204    0.1341   43.1957 N   0  3  0  0  0  0  0  0  0  0  0  0
    0.2439    1.0287   40.8517 C   0  0  2  0  0  0  0  0  0  0  0  0
   -0.8586    0.2466   40.3985 O   0  0  0  0  0  0  0  0  0  0  0  0
    1.2319    1.2198   39.6639 C   0  0  1  0  0  0  0  0  0  0  0  0
    0.5752    2.0185   38.6353 O   0  0  0  0  0  0  0  0  0  0  0  0
    2.5538    1.9282   40.1068 C   0  0  1  0  0  0  0  0  0  0  0  0
    3.2129    1.2573   41.3542 C   0  0  1  0  0  0  0  0  0  0  0  0
    4.4047    2.0070   41.8095 N   0  3  0  0  0  0  0  0  0  0  0  0
    2.1928    1.1428   42.5164 C   0  0  0  0  0  0  0  0  0  0  0  0
   -0.5582    2.8750   38.9872 C   0  0  1  0  0  0  0  0  0  0  0  0
   -0.3175    4.2779   38.3988 C   0  0  2  0  0  0  0  0  0  0  0  0
   -1.0190    5.2715   39.1409 O   0  0  0  0  0  0  0  0  0  0  0  0
   -0.9205    4.0604   37.0028 C   0  0  1  0  0  0  0  0  0  0  0  0
   -2.1879    3.2816   37.3139 C   0  0  2  0  0  0  0  0  0  0  0  0
   -1.7572    2.4064   38.3451 O   0  0  0  0  0  0  0  0  0  0  0  0
   -2.7666    2.4796   36.1411 C   0  0  0  0  0  0  0  0  0  0  0  0
   -2.6318    3.2154   34.9341 O   0  0  0  0  0  0  0  0  0  0  0  0
    1.8045    7.1137   33.7905 C   0  0  1  0  0  0  0  0  0  0  0  0
    2.1356    8.1342   34.7305 O   0  0  0  0  0  0  0  0  0  0  0  0
    2.1477    5.7241   34.3961 C   0  0  2  0  0  0  0  0  0  0  0  0
    2.1705    4.7634   33.3429 O   0  0  0  0  0  0  0  0  0  0  0  0
    1.1760    5.2220   35.5139 C   0  0  1  0  0  0  0  0  0  0  0  0
    1.5758    5.7718   36.8281 N   0  3  0  0  0  0  0  0  0  0  0  0
   -0.3068    5.5167   35.1658 C   0  0  1  0  0  0  0  0  0  0  0  0
   -1.2295    5.2687   36.2551 O   0  0  0  0  0  0  0  0  0  0  0  0
    0.2963    7.1743   33.4407 C   0  0  1  0  0  0  0  0  0  0  0  0
   -0.4503    6.8846   34.6541 O   0  0  0  0  0  0  0  0  0  0  0  0
   -0.1476    8.5156   32.8275 C   0  0  0  0  0  0  0  0  0  0  0  0
   -0.2081    9.6047   33.8219 N   0  3  0  0  0  0  0  0  0  0  0  0
  1  2  1  1  0  0  0
  1  3  1  0  0  0  0
  1 10  1  0  0  0  0
  3  4  1  1  0  0  0
  3  5  1  0  0  0  0
  5  6  1  6  0  0  0
  5  7  1  0  0  0  0
  7  8  1  6  0  0  0
  7  9  1  0  0  0  0
  9 10  1  0  0  0  0
  9 11  1  6  0  0  0
 11 12  1  0  0  0  0
 13 14  1  1  0  0  0
 13 15  1  0  0  0  0
 13 22  1  0  0  0  0
 15 16  1  6  0  0  0
 15 17  1  0  0  0  0
 17 18  1  6  0  0  0
 17 19  1  0  0  0  0
 19  2  1  6  0  0  0
 19 20  1  0  0  0  0
 20 21  1  1  0  0  0
 20 22  1  0  0  0  0
 23 18  1  6  0  0  0
 23 24  1  0  0  0  0
 23 28  1  0  0  0  0
 24 25  1  1  0  0  0
 24 26  1  0  0  0  0
 26 27  1  0  0  0  0
 26 38  1  1  0  0  0
 27 28  1  0  0  0  0
 27 29  1  6  0  0  0
 29 30  1  0  0  0  0
 31 32  1  1  0  0  0
 31 33  1  0  0  0  0
 31 39  1  0  0  0  0
 33 34  1  6  0  0  0
 33 35  1  0  0  0  0
 35 36  1  1  0  0  0
 35 37  1  0  0  0  0
 37 38  1  1  0  0  0
 37 40  1  0  0  0  0
 39 40  1  0  0  0  0
 39 41  1  1  0  0  0
 41 42  1  0  0  0  0
M  CHG  5   4   1  14   1  21   1  36   1  42   1
M  END
>  <CHROM.1>
-118.29670246,-35.31743954,52.87028044,-77.93057000,176.23080537,92.12825567
-61.49441112,73.36351325,-47.56998427,21.68748287,130.95208105,-144.23256781
-157.64410242,106.73473513,-38.51948595,135.37787259,178.54666970,-66.08252894
142.90274476,-40.68511196,-73.50387608,98.97488355,1.58853686,3.11094986
37.33133304,-1.17813103,0.42041497,-0.90911377

>  <Name>
1pbr

>  <RI>
0

>  <Rbt.Current_Directory>
/home/itssahil/PROJECTS/Mol_Feturizer/New_Systems/rnas/1pbr

>  <Rbt.Executable>
rbdock ($Id: //depot/dev/client3/rdock/2013.1/src/exe/rbdock.cxx#4 $)

>  <Rbt.Library>
libRbt.so (2013.1, Build901 2013/11/27)

>  <Rbt.Parameter_File>
/export/apps/rDock/src/rDock_2013.1_src/data/scripts/dock_solv.prm

>  <Rbt.Receptor>
prm/blind_docking_80.prm

>  <SCORE>
-6.59616

>  <SCORE.INTER>
-33.669

>  <SCORE.INTER.CONST>
1

>  <SCORE.INTER.POLAR>
-7.07093

>  <SCORE.INTER.ROT>
9

>  <SCORE.INTER.SOLV>
37.4005

>  <SCORE.INTER.VDW>
-20.943

>  <SCORE.INTER.norm>
-0.801642

>  <SCORE.INTRA>
23.8522

>  <SCORE.INTRA.DIHEDRAL>
23.873

>  <SCORE.INTRA.DIHEDRAL.0>
29.7866

>  <SCORE.INTRA.POLAR>
0.837141

>  <SCORE.INTRA.POLAR.0>
-0.984091

>  <SCORE.INTRA.REPUL>
-0.272062

>  <SCORE.INTRA.REPUL.0>
0.274115

>  <SCORE.INTRA.SOLV>
8.26839

>  <SCORE.INTRA.SOLV.lig_0>
-152.978

>  <SCORE.INTRA.VDW>
6.29551

>  <SCORE.INTRA.VDW.0>
-6.10719

>  <SCORE.INTRA.norm>
0.567909

>  <SCORE.RESTR>
3.2206

>  <SCORE.RESTR.CAVITY>
3.2206

>  <SCORE.RESTR.norm>
0.0766811

>  <SCORE.SYSTEM>
0

>  <SCORE.SYSTEM.CONST>
0

>  <SCORE.SYSTEM.DIHEDRAL>
0

>  <SCORE.SYSTEM.SOLV>
0

>  <SCORE.SYSTEM.norm>
0

>  <SCORE.heavy>
42

>  <SCORE.norm>
-0.157052

>  <RMSD>
7.961

$$$$
1pbr
 OpenBabel11021811403D
libRbt.so/2013.1/901 2013/11/27
 42 45  0  0  0  0  0  0  0  0999 V2000
    2.7684   -1.5084   37.1912 C   0  0  2  0  0  0  0  0  0  0  0  0
    2.9575   -1.4958   38.6290 O   0  0  0  0  0  0  0  0  0  0  0  0
    3.5687   -2.6931   36.5323 C   0  0  2  0  0  0  0  0  0  0  0  0
    3.5133   -3.9705   37.2896 N   0  3  0  0  0  0  0  0  0  0  0  0
    5.0620   -2.3502   36.3741 C   0  0  1  0  0  0  0  0  0  0  0  0
    5.7165   -3.3091   35.5463 O   0  0  0  0  0  0  0  0  0  0  0  0
    5.2456   -0.9479   35.7743 C   0  0  2  0  0  0  0  0  0  0  0  0
    6.6300   -0.6660   35.5950 O   0  0  0  0  0  0  0  0  0  0  0  0
    4.5324    0.1150   36.6393 C   0  0  2  0  0  0  0  0  0  0  0  0
    3.1271   -0.2141   36.6331 O   0  0  0  0  0  0  0  0  0  0  0  0
    4.6821    1.5457   36.1249 C   0  0  0  0  0  0  0  0  0  0  0  0
    4.2024    1.6667   34.7923 O   0  0  0  0  0  0  0  0  0  0  0  0
    4.1189    1.3383   41.6000 C   0  0  1  0  0  0  0  0  0  0  0  0
    4.7486    2.4100   42.3930 N   0  3  0  0  0  0  0  0  0  0  0  0
    3.3281    1.8951   40.3776 C   0  0  2  0  0  0  0  0  0  0  0  0
    2.3065    2.7900   40.8114 O   0  0  0  0  0  0  0  0  0  0  0  0
    2.6625    0.7467   39.5643 C   0  0  1  0  0  0  0  0  0  0  0  0
    2.0861    1.3099   38.3487 O   0  0  0  0  0  0  0  0  0  0  0  0
    3.6850   -0.3735   39.1839 C   0  0  1  0  0  0  0  0  0  0  0  0
    4.5092   -0.8840   40.4090 C   0  0  1  0  0  0  0  0  0  0  0  0
    5.5351   -1.8698   40.0023 N   0  3  0  0  0  0  0  0  0  0  0  0
    5.1866    0.3012   41.1443 C   0  0  0  0  0  0  0  0  0  0  0  0
    1.5301    2.6636   38.3622 C   0  0  1  0  0  0  0  0  0  0  0  0
    2.4174    3.5699   37.4885 C   0  0  2  0  0  0  0  0  0  0  0  0
    2.3136    4.9320   37.8934 O   0  0  0  0  0  0  0  0  0  0  0  0
    1.7543    3.3155   36.1264 C   0  0  1  0  0  0  0  0  0  0  0  0
    0.2751    3.3538   36.4728 C   0  0  2  0  0  0  0  0  0  0  0  0
    0.2418    2.6814   37.7224 O   0  0  0  0  0  0  0  0  0  0  0  0
   -0.6499    2.6562   35.4671 C   0  0  0  0  0  0  0  0  0  0  0  0
   -2.0012    3.0114   35.7201 O   0  0  0  0  0  0  0  0  0  0  0  0
   -0.1395    7.9950   35.2862 C   0  0  1  0  0  0  0  0  0  0  0  0
    0.9020    8.7320   35.9240 O   0  0  0  0  0  0  0  0  0  0  0  0
    0.3376    7.5423   33.8779 C   0  0  2  0  0  0  0  0  0  0  0  0
   -0.8024    7.1474   33.1182 O   0  0  0  0  0  0  0  0  0  0  0  0
    1.3787    6.3754   33.8663 C   0  0  1  0  0  0  0  0  0  0  0  0
    2.7487    6.9066   34.0394 N   0  3  0  0  0  0  0  0  0  0  0  0
    1.0258    5.2757   34.9021 C   0  0  1  0  0  0  0  0  0  0  0  0
    2.0641    4.2819   35.0849 O   0  0  0  0  0  0  0  0  0  0  0  0
   -0.5171    6.7548   36.1347 C   0  0  1  0  0  0  0  0  0  0  0  0
    0.6449    5.8823   36.1828 O   0  0  0  0  0  0  0  0  0  0  0  0
   -1.0086    7.0969   37.5536 C   0  0  0  0  0  0  0  0  0  0  0  0
   -2.1553    8.0263   37.5512 N   0  3  0  0  0  0  0  0  0  0  0  0
  1  2  1  1  0  0  0
  1  3  1  0  0  0  0
  1 10  1  0  0  0  0
  3  4  1  1  0  0  0
  3  5  1  0  0  0  0
  5  6  1  6  0  0  0
  5  7  1  0  0  0  0
  7  8  1  1  0  0  0
  7  9  1  0  0  0  0
  9 10  1  0  0  0  0
  9 11  1  6  0  0  0
 11 12  1  0  0  0  0
 13 14  1  6  0  0  0
 13 15  1  0  0  0  0
 13 22  1  0  0  0  0
 15 16  1  1  0  0  0
 15 17  1  0  0  0  0
 17 18  1  6  0  0  0
 17 19  1  0  0  0  0
 19  2  1  1  0  0  0
 19 20  1  0  0  0  0
 20 21  1  6  0  0  0
 20 22  1  0  0  0  0
 23 18  1  6  0  0  0
 23 24  1  0  0  0  0
 23 28  1  0  0  0  0
 24 25  1  1  0  0  0
 24 26  1  0  0  0  0
 26 27  1  0  0  0  0
 26 38  1  6  0  0  0
 27 28  1  0  0  0  0
 27 29  1  6  0  0  0
 29 30  1  0  0  0  0
 31 32  1  1  0  0  0
 31 33  1  0  0  0  0
 31 39  1  0  0  0  0
 33 34  1  6  0  0  0
 33 35  1  0  0  0  0
 35 36  1  1  0  0  0
 35 37  1  0  0  0  0
 37 38  1  1  0  0  0
 37 40  1  0  0  0  0
 39 40  1  0  0  0  0
 39 41  1  1  0  0  0
 41 42  1  0  0  0  0
M  CHG  5   4   1  14   1  21   1  36   1  42   1
M  END
>  <CHROM.1>
113.13974797,91.18887653,-64.20378658,165.39647323,154.80092074,57.28154210
62.74354716,59.00473489,-55.58467955,-33.50318647,112.37442777,32.26576218
-173.00127731,-99.53282693,-166.70514093,-59.48603137,52.77378415,-178.27560568
76.24980120,175.90174033,55.99412478,75.12673947,2.39501071,2.45118200,37.12400838
-0.21094054,1.06926593,-1.65208267

>  <Name>
1pbr

>  <RI>
0

>  <Rbt.Current_Directory>
/home/itssahil/PROJECTS/Mol_Feturizer/New_Systems/rnas/1pbr

>  <Rbt.Executable>
rbdock ($Id: //depot/dev/client3/rdock/2013.1/src/exe/rbdock.cxx#4 $)

>  <Rbt.Library>
libRbt.so (2013.1, Build901 2013/11/27)

>  <Rbt.Parameter_File>
/export/apps/rDock/src/rDock_2013.1_src/data/scripts/dock_solv.prm

>  <Rbt.Receptor>
prm/blind_docking_80.prm

>  <SCORE>
-40.7538

>  <SCORE.INTER>
-57.0458

>  <SCORE.INTER.CONST>
1

>  <SCORE.INTER.POLAR>
-8.56658

>  <SCORE.INTER.ROT>
9

>  <SCORE.INTER.SOLV>
38.4033

>  <SCORE.INTER.VDW>
-31.8764

>  <SCORE.INTER.norm>
-1.35823

>  <SCORE.INTRA>
13.2581

>  <SCORE.INTRA.DIHEDRAL>
4.82147

>  <SCORE.INTRA.DIHEDRAL.0>
29.7866

>  <SCORE.INTRA.POLAR>
0.88986

>  <SCORE.INTRA.POLAR.0>
-0.984091

>  <SCORE.INTRA.REPUL>
-0.245553

>  <SCORE.INTRA.REPUL.0>
0.274115

>  <SCORE.INTRA.SOLV>
1.71051

>  <SCORE.INTRA.SOLV.lig_0>
-152.978

>  <SCORE.INTRA.VDW>
8.19431

>  <SCORE.INTRA.VDW.0>
-6.10719

>  <SCORE.INTRA.norm>
0.315668

>  <SCORE.RESTR>
3.0339

>  <SCORE.RESTR.CAVITY>
3.0339

>  <SCORE.RESTR.norm>
0.0722357

>  <SCORE.SYSTEM>
0

>  <SCORE.SYSTEM.CONST>
0

>  <SCORE.SYSTEM.DIHEDRAL>
0

>  <SCORE.SYSTEM.SOLV>
0

>  <SCORE.SYSTEM.norm>
0

>  <SCORE.heavy>
42

>  <SCORE.norm>
-0.97033

>  <RMSD>
7.968

$$$$
1pbr
 OpenBabel11021811403D
libRbt.so/2013.1/901 2013/11/27
 42 45  0  0  0  0  0  0  0  0999 V2000
    2.1842    0.0697   37.3003 C   0  0  2  0  0  0  0  0  0  0  0  0
    3.4310    0.7191   37.6567 O   0  0  0  0  0  0  0  0  0  0  0  0
    1.3629    0.9529   36.2885 C   0  0  2  0  0  0  0  0  0  0  0  0
    2.1811    1.5990   35.2295 N   0  3  0  0  0  0  0  0  0  0  0  0
    0.6126    2.0899   37.0074 C   0  0  1  0  0  0  0  0  0  0  0  0
   -0.3253    2.7107   36.1310 O   0  0  0  0  0  0  0  0  0  0  0  0
   -0.1204    1.5668   38.2520 C   0  0  2  0  0  0  0  0  0  0  0  0
   -0.8431    2.6222   38.8781 O   0  0  0  0  0  0  0  0  0  0  0  0
    0.8662    0.8717   39.2163 C   0  0  2  0  0  0  0  0  0  0  0  0
    1.4303   -0.2489   38.5026 O   0  0  0  0  0  0  0  0  0  0  0  0
    0.2224    0.3380   40.4950 C   0  0  0  0  0  0  0  0  0  0  0  0
   -1.1753    0.1430   40.3253 O   0  0  0  0  0  0  0  0  0  0  0  0
    5.6744   -2.8960   37.9823 C   0  0  1  0  0  0  0  0  0  0  0  0
    6.6734   -3.9457   38.2544 N   0  3  0  0  0  0  0  0  0  0  0  0
    4.9879   -2.3826   39.2841 C   0  0  2  0  0  0  0  0  0  0  0  0
    4.3365   -3.4559   39.9597 O   0  0  0  0  0  0  0  0  0  0  0  0
    3.9293   -1.2852   38.9700 C   0  0  1  0  0  0  0  0  0  0  0  0
    3.4483   -0.7277   40.2289 O   0  0  0  0  0  0  0  0  0  0  0  0
    4.5167   -0.1381   38.0844 C   0  0  1  0  0  0  0  0  0  0  0  0
    5.2495   -0.6694   36.8110 C   0  0  1  0  0  0  0  0  0  0  0  0
    5.8793    0.4300   36.0468 N   0  3  0  0  0  0  0  0  0  0  0  0
    6.3235   -1.7194   37.1964 C   0  0  0  0  0  0  0  0  0  0  0  0
    4.3646    0.0100   41.0995 C   0  0  1  0  0  0  0  0  0  0  0  0
    3.5368    0.8022   42.1287 C   0  0  2  0  0  0  0  0  0  0  0  0
    4.2565    1.9383   42.5992 O   0  0  0  0  0  0  0  0  0  0  0  0
    3.3915   -0.2821   43.2071 C   0  0  1  0  0  0  0  0  0  0  0  0
    4.7872   -0.8816   43.2553 C   0  0  2  0  0  0  0  0  0  0  0  0
    5.1526   -0.9029   41.8840 O   0  0  0  0  0  0  0  0  0  0  0  0
    4.8721   -2.2925   43.8518 C   0  0  0  0  0  0  0  0  0  0  0  0
    6.2300   -2.6547   44.0551 O   0  0  0  0  0  0  0  0  0  0  0  0
   -0.8487   -0.5952   46.3534 C   0  0  1  0  0  0  0  0  0  0  0  0
   -0.3129   -1.0283   47.6024 O   0  0  0  0  0  0  0  0  0  0  0  0
   -0.4774    0.8963   46.1226 C   0  0  2  0  0  0  0  0  0  0  0  0
   -1.3098    1.4161   45.0884 O   0  0  0  0  0  0  0  0  0  0  0  0
    1.0171    1.1643   45.7479 C   0  0  1  0  0  0  0  0  0  0  0  0
    1.8446    1.2610   46.9706 N   0  3  0  0  0  0  0  0  0  0  0  0
    1.5568    0.1167   44.7390 C   0  0  1  0  0  0  0  0  0  0  0  0
    2.9876    0.1881   44.5225 O   0  0  0  0  0  0  0  0  0  0  0  0
   -0.2846   -1.4600   45.1981 C   0  0  1  0  0  0  0  0  0  0  0  0
    1.1506   -1.2355   45.1388 O   0  0  0  0  0  0  0  0  0  0  0  0
   -0.6026   -2.9611   45.3308 C   0  0  0  0  0  0  0  0  0  0  0  0
   -0.9420   -3.5883   44.0386 N   0  3  0  0  0  0  0  0  0  0  0  0
  1  2  1  1  0  0  0
  1  3  1  0  0  0  0
  1 10  1  0  0  0  0
  3  4  1  6  0  0  0
  3  5  1  0  0  0  0
  5  6  1  6  0  0  0
  5  7  1  0  0  0  0
  7  8  1  1  0  0  0
  7  9  1  0  0  0  0
  9 10  1  0  0  0  0
  9 11  1  1  0  0  0
 11 12  1  0  0  0  0
 13 14  1  1  0  0  0
 13 15  1  0  0  0  0
 13 22  1  0  0  0  0
 15 16  1  6  0  0  0
 15 17  1  0  0  0  0
 17 18  1  1  0  0  0
 17 19  1  0  0  0  0
 19  2  1  6  0  0  0
 19 20  1  0  0  0  0
 20 21  1  1  0  0  0
 20 22  1  0  0  0  0
 23 18  1  6  0  0  0
 23 24  1  0  0  0  0
 23 28  1  0  0  0  0
 24 25  1  1  0  0  0
 24 26  1  0  0  0  0
 26 27  1  0  0  0  0
 26 38  1  1  0  0  0
 27 28  1  0  0  0  0
 27 29  1  6  0  0  0
 29 30  1  0  0  0  0
 31 32  1  1  0  0  0
 31 33  1  0  0  0  0
 31 39  1  0  0  0  0
 33 34  1  6  0  0  0
 33 35  1  0  0  0  0
 35 36  1  1  0  0  0
 35 37  1  0  0  0  0
 37 38  1  1  0  0  0
 37 40  1  0  0  0  0
 39 40  1  0  0  0  0
 39 41  1  1  0  0  0
 41 42  1  0  0  0  0
M  CHG  5   4   1  14   1  21   1  36   1  42   1
M  END
>  <CHROM.1>
-154.49770693,-38.98515042,179.91801479,73.34797376,69.46138906,21.72711143
125.37309623,-45.06265594,-47.26988300,64.74771666,164.48401767,84.21634045
172.20575436,94.33513184,-170.11342031,-172.20393571,64.14547764,-84.69031103
71.80557668,-152.24804449,140.40558570,161.98956404,2.39492291,-0.32282221
41.13056930,1.18443038,0.49835709,-1.33127257

>  <Name>
1pbr

>  <RI>
0

>  <Rbt.Current_Directory>
/home/itssahil/PROJECTS/Mol_Feturizer/New_Systems/rnas/1pbr

>  <Rbt.Executable>
rbdock ($Id: //depot/dev/client3/rdock/2013.1/src/exe/rbdock.cxx#4 $)

>  <Rbt.Library>
libRbt.so (2013.1, Build901 2013/11/27)

>  <Rbt.Parameter_File>
/export/apps/rDock/src/rDock_2013.1_src/data/scripts/dock_solv.prm

>  <Rbt.Receptor>
prm/pocket_docking_4.prm

>  <SCORE>
-48.3486

>  <SCORE.INTER>
-53.9048

>  <SCORE.INTER.CONST>
1

>  <SCORE.INTER.POLAR>
-7.72987

>  <SCORE.INTER.ROT>
9

>  <SCORE.INTER.SOLV>
29.6961

>  <SCORE.INTER.VDW>
-29.669

>  <SCORE.INTER.norm>
-1.28345

>  <SCORE.INTRA>
5.55623

>  <SCORE.INTRA.DIHEDRAL>
7.37823

>  <SCORE.INTRA.DIHEDRAL.0>
29.7866

>  <SCORE.INTRA.POLAR>
0.984091

>  <SCORE.INTRA.POLAR.0>
-0.984091

>  <SCORE.INTRA.REPUL>
-0.274115

>  <SCORE.INTRA.REPUL.0>
0.274115

>  <SCORE.INTRA.SOLV>
-3.80999

>  <SCORE.INTRA.SOLV.lig_0>
-152.978

>  <SCORE.INTRA.VDW>
1.79678

>  <SCORE.INTRA.VDW.0>
-6.10719

>  <SCORE.INTRA.norm>
0.132291

>  <SCORE.RESTR>
0

>  <SCORE.RESTR.CAVITY>
0

>  <SCORE.RESTR.norm>
0

>  <SCORE.SYSTEM>
0

>  <SCORE.SYSTEM.CONST>
0

>  <SCORE.SYSTEM.DIHEDRAL>
0

>  <SCORE.SYSTEM.SOLV>
0

>  <SCORE.SYSTEM.norm>
0

>  <SCORE.heavy>
42

>  <SCORE.norm>
-1.15116

>  <RMSD>
7.988

$$$$
1pbr
 OpenBabel11021811403D
libRbt.so/2013.1/901 2013/11/27
 42 45  0  0  0  0  0  0  0  0999 V2000
    4.0729    0.0860   43.8739 C   0  0  2  0  0  0  0  0  0  0  0  0
    4.9263   -1.0772   43.7259 O   0  0  0  0  0  0  0  0  0  0  0  0
    3.7061    0.3216   45.3866 C   0  0  2  0  0  0  0  0  0  0  0  0
    4.8325    0.1142   46.3334 N   0  3  0  0  0  0  0  0  0  0  0  0
    2.5759   -0.6172   45.8490 C   0  0  1  0  0  0  0  0  0  0  0  0
    2.0766   -0.2185   47.1238 O   0  0  0  0  0  0  0  0  0  0  0  0
    1.4241   -0.6366   44.8328 C   0  0  2  0  0  0  0  0  0  0  0  0
    0.3708   -1.4748   45.2976 O   0  0  0  0  0  0  0  0  0  0  0  0
    1.9350   -1.0485   43.4343 C   0  0  2  0  0  0  0  0  0  0  0  0
    2.8969   -0.0516   43.0293 O   0  0  0  0  0  0  0  0  0  0  0  0
    0.8474   -1.1140   42.3634 C   0  0  0  0  0  0  0  0  0  0  0  0
    0.1658    0.1277   42.2449 O   0  0  0  0  0  0  0  0  0  0  0  0
    5.5524   -0.4194   39.5566 C   0  0  1  0  0  0  0  0  0  0  0  0
    5.9768   -0.4589   38.1451 N   0  3  0  0  0  0  0  0  0  0  0  0
    4.6749   -1.6481   39.9438 C   0  0  2  0  0  0  0  0  0  0  0  0
    3.5077   -1.7033   39.1270 O   0  0  0  0  0  0  0  0  0  0  0  0
    4.2290   -1.5772   41.4337 C   0  0  1  0  0  0  0  0  0  0  0  0
    3.5612   -2.8266   41.7803 O   0  0  0  0  0  0  0  0  0  0  0  0
    5.4380   -1.3491   42.3989 C   0  0  1  0  0  0  0  0  0  0  0  0
    6.3400   -0.1485   41.9683 C   0  0  1  0  0  0  0  0  0  0  0  0
    7.5279   -0.0194   42.8411 N   0  3  0  0  0  0  0  0  0  0  0  0
    6.7908   -0.3050   40.4929 C   0  0  0  0  0  0  0  0  0  0  0  0
    4.0725   -4.0968   41.2637 C   0  0  1  0  0  0  0  0  0  0  0  0
    4.0820   -5.1269   42.4087 C   0  0  2  0  0  0  0  0  0  0  0  0
    5.0540   -6.1423   42.1759 O   0  0  0  0  0  0  0  0  0  0  0  0
    2.6456   -5.6537   42.2709 C   0  0  1  0  0  0  0  0  0  0  0  0
    2.4941   -5.7943   40.7653 C   0  0  2  0  0  0  0  0  0  0  0  0
    3.1671   -4.6399   40.2866 O   0  0  0  0  0  0  0  0  0  0  0  0
    1.0480   -5.8190   40.2536 C   0  0  0  0  0  0  0  0  0  0  0  0
    0.4536   -4.5391   40.4105 O   0  0  0  0  0  0  0  0  0  0  0  0
   -0.6855   -7.1424   45.9830 C   0  0  1  0  0  0  0  0  0  0  0  0
   -1.5560   -7.9888   45.2343 O   0  0  0  0  0  0  0  0  0  0  0  0
    0.6432   -7.8954   46.2712 C   0  0  2  0  0  0  0  0  0  0  0  0
    1.3369   -7.2094   47.3108 O   0  0  0  0  0  0  0  0  0  0  0  0
    1.6024   -8.0544   45.0462 C   0  0  1  0  0  0  0  0  0  0  0  0
    1.2279   -9.2443   44.2507 N   0  3  0  0  0  0  0  0  0  0  0  0
    1.6709   -6.7598   44.1941 C   0  0  1  0  0  0  0  0  0  0  0  0
    2.3719   -6.9176   42.9360 O   0  0  0  0  0  0  0  0  0  0  0  0
   -0.3900   -5.8425   45.1934 C   0  0  1  0  0  0  0  0  0  0  0  0
    0.3252   -6.2140   43.9833 O   0  0  0  0  0  0  0  0  0  0  0  0
   -1.6467   -5.0171   44.8593 C   0  0  0  0  0  0  0  0  0  0  0  0
   -1.7258   -3.7615   45.6312 N   0  3  0  0  0  0  0  0  0  0  0  0
  1  2  1  1  0  0  0
  1  3  1  0  0  0  0
  1 10  1  0  0  0  0
  3  4  1  1  0  0  0
  3  5  1  0  0  0  0
  5  6  1  1  0  0  0
  5  7  1  0  0  0  0
  7  8  1  1  0  0  0
  7  9  1  0  0  0  0
  9 10  1  0  0  0  0
  9 11  1  6  0  0  0
 11 12  1  0  0  0  0
 13 14  1  6  0  0  0
 13 15  1  0  0  0  0
 13 22  1  0  0  0  0
 15 16  1  6  0  0  0
 15 17  1  0  0  0  0
 17 18  1  1  0  0  0
 17 19  1  0  0  0  0
 19  2  1  1  0  0  0
 19 20  1  0  0  0  0
 20 21  1  1  0  0  0
 20 22  1  0  0  0  0
 23 18  1  1  0  0  0
 23 24  1  0  0  0  0
 23 28  1  0  0  0  0
 24 25  1  6  0  0  0
 24 26  1  0  0  0  0
 26 27  1  0  0  0  0
 26 38  1  1  0  0  0
 27 28  1  0  0  0  0
 27 29  1  1  0  0  0
 29 30  1  0  0  0  0
 31 32  1  6  0  0  0
 31 33  1  0  0  0  0
 31 39  1  0  0  0  0
 33 34  1  1  0  0  0
 33 35  1  0  0  0  0
 35 36  1  6  0  0  0
 35 37  1  0  0  0  0
 37 38  1  6  0  0  0
 37 40  1  0  0  0  0
 39 40  1  0  0  0  0
 39 41  1  6  0  0  0
 41 42  1  0  0  0  0
M  CHG  5   4   1  14   1  21   1  36   1  42   1
M  END
>  <CHROM.1>
-174.86521311,-60.23421284,102.86545275,-60.15809234,50.27629762,56.84056744
-59.63309404,-176.53264964,173.88802235,39.09601305,135.64127246,56.36435134
-50.98051318,101.60437471,69.51994299,-177.24184063,85.00064081,169.50607016
-166.73940873,-169.12283151,109.43820210,-55.12116718,2.58296038,-3.33580807
43.15669856,0.43724727,0.91042079,0.57266078

>  <Name>
1pbr

>  <RI>
0

>  <Rbt.Current_Directory>
/home/itssahil/PROJECTS/Mol_Feturizer/New_Systems/rnas/1pbr

>  <Rbt.Executable>
rbdock ($Id: //depot/dev/client3/rdock/2013.1/src/exe/rbdock.cxx#4 $)

>  <Rbt.Library>
libRbt.so (2013.1, Build901 2013/11/27)

>  <Rbt.Parameter_File>
/export/apps/rDock/src/rDock_2013.1_src/data/scripts/dock_solv.prm

>  <Rbt.Receptor>
prm/pocket_docking_8.prm

>  <SCORE>
-34.988

>  <SCORE.INTER>
-32.2266

>  <SCORE.INTER.CONST>
1

>  <SCORE.INTER.POLAR>
-5.65723

>  <SCORE.INTER.ROT>
9

>  <SCORE.INTER.SOLV>
25.9144

>  <SCORE.INTER.VDW>
-20.8651

>  <SCORE.INTER.norm>
-0.7673

>  <SCORE.INTRA>
-2.76135

>  <SCORE.INTRA.DIHEDRAL>
-1.85174

>  <SCORE.INTRA.DIHEDRAL.0>
29.7866

>  <SCORE.INTRA.POLAR>
-0.901177

>  <SCORE.INTRA.POLAR.0>
-0.984091

>  <SCORE.INTRA.REPUL>
-0.271122

>  <SCORE.INTRA.REPUL.0>
0.274115

>  <SCORE.INTRA.SOLV>
-1.52874

>  <SCORE.INTRA.SOLV.lig_0>
-152.978

>  <SCORE.INTRA.VDW>
3.34851

>  <SCORE.INTRA.VDW.0>
-6.10719

>  <SCORE.INTRA.norm>
-0.0657464

>  <SCORE.RESTR>
0

>  <SCORE.RESTR.CAVITY>
0

>  <SCORE.RESTR.norm>
0

>  <SCORE.SYSTEM>
0

>  <SCORE.SYSTEM.CONST>
0

>  <SCORE.SYSTEM.DIHEDRAL>
0

>  <SCORE.SYSTEM.SOLV>
0

>  <SCORE.SYSTEM.norm>
0

>  <SCORE.heavy>
42

>  <SCORE.norm>
-0.833047

>  <RMSD>
7.990

$$$$
1pbr
 OpenBabel11021811403D
libRbt.so/2013.1/901 2013/11/27
 42 45  0  0  0  0  0  0  0  0999 V2000
    4.3997    0.6566   40.1867 C   0  0  2  0  0  0  0  0  0  0  0  0
    4.6567    1.8436   39.3941 O   0  0  0  0  0  0  0  0  0  0  0  0
    5.3899    0.5742   41.4076 C   0  0  2  0  0  0  0  0  0  0  0  0
    5.6365    1.8712   42.0897 N   0  3  0  0  0  0  0  0  0  0  0  0
    6.7712    0.0411   40.9827 C   0  0  1  0  0  0  0  0  0  0  0  0
    7.5641   -0.2768   42.1244 O   0  0  0  0  0  0  0  0  0  0  0  0
    6.6326   -1.2044   40.0943 C   0  0  2  0  0  0  0  0  0  0  0  0
    7.9188   -1.7081   39.7477 O   0  0  0  0  0  0  0  0  0  0  0  0
    5.7631   -0.8985   38.8546 C   0  0  2  0  0  0  0  0  0  0  0  0
    4.4564   -0.5255   39.3412 O   0  0  0  0  0  0  0  0  0  0  0  0
    5.5899   -2.0808   37.9027 C   0  0  0  0  0  0  0  0  0  0  0  0
    4.6038   -1.8075   36.9161 O   0  0  0  0  0  0  0  0  0  0  0  0
    1.8415    4.1365   37.1523 C   0  0  1  0  0  0  0  0  0  0  0  0
    0.8902    4.6692   36.1598 N   0  3  0  0  0  0  0  0  0  0  0  0
    1.2885    2.8754   37.8827 C   0  0  2  0  0  0  0  0  0  0  0  0
    0.0685    3.1835   38.5529 O   0  0  0  0  0  0  0  0  0  0  0  0
    2.3047    2.3397   38.9335 C   0  0  1  0  0  0  0  0  0  0  0  0
    1.8088    1.0721   39.4572 O   0  0  0  0  0  0  0  0  0  0  0  0
    3.7275    2.1278   38.3205 C   0  0  1  0  0  0  0  0  0  0  0  0
    4.2466    3.3806   37.5448 C   0  0  1  0  0  0  0  0  0  0  0  0
    5.5487    3.1165   36.8933 N   0  3  0  0  0  0  0  0  0  0  0  0
    3.2127    3.8321   36.4810 C   0  0  0  0  0  0  0  0  0  0  0  0
    0.8649    1.0621   40.5755 C   0  0  1  0  0  0  0  0  0  0  0  0
    0.3562   -0.3774   40.7787 C   0  0  2  0  0  0  0  0  0  0  0  0
   -0.9245   -0.3846   41.4030 O   0  0  0  0  0  0  0  0  0  0  0  0
    1.4615   -0.8940   41.7123 C   0  0  1  0  0  0  0  0  0  0  0  0
    1.6507    0.2721   42.6683 C   0  0  2  0  0  0  0  0  0  0  0  0
    1.5399    1.3914   41.8025 O   0  0  0  0  0  0  0  0  0  0  0  0
    2.9952    0.3002   43.4066 C   0  0  0  0  0  0  0  0  0  0  0  0
    2.8449   -0.2348   44.7133 O   0  0  0  0  0  0  0  0  0  0  0  0
    2.0011   -5.9028   40.5461 C   0  0  1  0  0  0  0  0  0  0  0  0
    3.1192   -6.2168   41.3745 O   0  0  0  0  0  0  0  0  0  0  0  0
    0.7169   -5.8319   41.4187 C   0  0  2  0  0  0  0  0  0  0  0  0
   -0.4191   -5.8925   40.5595 O   0  0  0  0  0  0  0  0  0  0  0  0
    0.5934   -4.5651   42.3273 C   0  0  1  0  0  0  0  0  0  0  0  0
    1.3160   -4.7734   43.6015 N   0  3  0  0  0  0  0  0  0  0  0  0
    1.0408   -3.2772   41.5871 C   0  0  1  0  0  0  0  0  0  0  0  0
    1.1506   -2.1127   42.4422 O   0  0  0  0  0  0  0  0  0  0  0  0
    2.2252   -4.5455   39.8332 C   0  0  1  0  0  0  0  0  0  0  0  0
    2.2911   -3.5149   40.8566 O   0  0  0  0  0  0  0  0  0  0  0  0
    3.4766   -4.5121   38.9360 C   0  0  0  0  0  0  0  0  0  0  0  0
    3.1464   -4.4916   37.4976 N   0  3  0  0  0  0  0  0  0  0  0  0
  1  2  1  6  0  0  0
  1  3  1  0  0  0  0
  1 10  1  0  0  0  0
  3  4  1  6  0  0  0
  3  5  1  0  0  0  0
  5  6  1  1  0  0  0
  5  7  1  0  0  0  0
  7  8  1  6  0  0  0
  7  9  1  0  0  0  0
  9 10  1  0  0  0  0
  9 11  1  6  0  0  0
 11 12  1  0  0  0  0
 13 14  1  6  0  0  0
 13 15  1  0  0  0  0
 13 22  1  0  0  0  0
 15 16  1  1  0  0  0
 15 17  1  0  0  0  0
 17 18  1  6  0  0  0
 17 19  1  0  0  0  0
 19  2  1  1  0  0  0
 19 20  1  0  0  0  0
 20 21  1  6  0  0  0
 20 22  1  0  0  0  0
 23 18  1  6  0  0  0
 23 24  1  0  0  0  0
 23 28  1  0  0  0  0
 24 25  1  1  0  0  0
 24 26  1  0  0  0  0
 26 27  1  0  0  0  0
 26 38  1  1  0  0  0
 27 28  1  0  0  0  0
 27 29  1  6  0  0  0
 29 30  1  0  0  0  0
 31 32  1  1  0  0  0
 31 33  1  0  0  0  0
 31 39  1  0  0  0  0
 33 34  1  6  0  0  0
 33 35  1  0  0  0  0
 35 36  1  1  0  0  0
 35 37  1  0  0  0  0
 37 38  1  1  0  0  0
 37 40  1  0  0  0  0
 39 40  1  0  0  0  0
 39 41  1  1  0  0  0
 41 42  1  0  0  0  0
M  CHG  5   4   1  14   1  21   1  36   1  42   1
M  END
>  <CHROM.1>
-173.46776556,61.03935354,51.29838537,52.58699720,-59.83395957,169.93118754
56.35458695,-171.63582339,-59.89096579,-85.63297698,171.69672374,-54.10954514
-176.78767340,67.78499085,-98.83098337,-51.99141794,66.26758256,-176.45593903
162.77784328,-175.14946794,108.80770778,-10.94911030,3.00409016,-0.66637336
40.11577110,-1.37089873,-0.19560241,2.76555479

>  <Name>
1pbr

>  <RI>
0

>  <Rbt.Current_Directory>
/home/itssahil/PROJECTS/Mol_Feturizer/New_Systems/rnas/1pbr

>  <Rbt.Executable>
rbdock ($Id: //depot/dev/client3/rdock/2013.1/src/exe/rbdock.cxx#4 $)

>  <Rbt.Library>
libRbt.so (2013.1, Build901 2013/11/27)

>  <Rbt.Parameter_File>
/export/apps/rDock/src/rDock_2013.1_src/data/scripts/dock_solv.prm

>  <Rbt.Receptor>
prm/pocket_docking_4.prm

>  <SCORE>
-48.4461

>  <SCORE.INTER>
-40.9933

>  <SCORE.INTER.CONST>
1

>  <SCORE.INTER.POLAR>
-6.39824

>  <SCORE.INTER.ROT>
9

>  <SCORE.INTER.SOLV>
33.5492

>  <SCORE.INTER.VDW>
-26.7845

>  <SCORE.INTER.norm>
-0.976031

>  <SCORE.INTRA>
-7.93144

>  <SCORE.INTRA.DIHEDRAL>
-10.4879

>  <SCORE.INTRA.DIHEDRAL.0>
29.7866

>  <SCORE.INTRA.POLAR>
-0.278753

>  <SCORE.INTRA.POLAR.0>
-0.984091

>  <SCORE.INTRA.REPUL>
-0.0759848

>  <SCORE.INTRA.REPUL.0>
0.274115

>  <SCORE.INTRA.SOLV>
-2.50211

>  <SCORE.INTRA.SOLV.lig_0>
-152.978

>  <SCORE.INTRA.VDW>
-0.108759

>  <SCORE.INTRA.VDW.0>
-6.10719

>  <SCORE.INTRA.norm>
-0.188844

>  <SCORE.RESTR>
0.478679

>  <SCORE.RESTR.CAVITY>
0.478679

>  <SCORE.RESTR.norm>
0.0113971

>  <SCORE.SYSTEM>
0

>  <SCORE.SYSTEM.CONST>
0

>  <SCORE.SYSTEM.DIHEDRAL>
0

>  <SCORE.SYSTEM.SOLV>
0

>  <SCORE.SYSTEM.norm>
0

>  <SCORE.heavy>
42

>  <SCORE.norm>
-1.15348

>  <RMSD>
8.016

$$$$
1pbr
 OpenBabel11021811403D
libRbt.so/2013.1/901 2013/11/27
 42 45  0  0  0  0  0  0  0  0999 V2000
    1.3805    1.2161   37.5600 C   0  0  2  0  0  0  0  0  0  0  0  0
    2.4029    2.1678   37.9501 O   0  0  0  0  0  0  0  0  0  0  0  0
    0.0675    1.9590   37.1098 C   0  0  2  0  0  0  0  0  0  0  0  0
    0.2982    3.1684   36.2778 N   0  3  0  0  0  0  0  0  0  0  0  0
   -0.7662    2.4208   38.3199 C   0  0  1  0  0  0  0  0  0  0  0  0
   -2.0623    2.8490   37.9076 O   0  0  0  0  0  0  0  0  0  0  0  0
   -0.9058    1.2951   39.3557 C   0  0  2  0  0  0  0  0  0  0  0  0
   -1.7152    1.7258   40.4455 O   0  0  0  0  0  0  0  0  0  0  0  0
    0.4831    0.7954   39.8115 C   0  0  2  0  0  0  0  0  0  0  0  0
    1.1448    0.2715   38.6405 O   0  0  0  0  0  0  0  0  0  0  0  0
    0.4373   -0.3141   40.8607 C   0  0  0  0  0  0  0  0  0  0  0  0
   -0.1714    0.1386   42.0628 O   0  0  0  0  0  0  0  0  0  0  0  0
    5.6532    0.1822   36.0263 C   0  0  1  0  0  0  0  0  0  0  0  0
    6.9640   -0.3251   35.5809 N   0  3  0  0  0  0  0  0  0  0  0  0
    5.2843   -0.3119   37.4579 C   0  0  2  0  0  0  0  0  0  0  0  0
    5.2502   -1.7365   37.4993 O   0  0  0  0  0  0  0  0  0  0  0  0
    3.8919    0.2260   37.9001 C   0  0  1  0  0  0  0  0  0  0  0  0
    3.6798   -0.1252   39.2997 O   0  0  0  0  0  0  0  0  0  0  0  0
    3.7796    1.7764   37.7305 C   0  0  1  0  0  0  0  0  0  0  0  0
    4.2045    2.2635   36.3083 C   0  0  1  0  0  0  0  0  0  0  0  0
    4.1831    3.7397   36.2094 N   0  3  0  0  0  0  0  0  0  0  0  0
    5.6181    1.7366   35.9496 C   0  0  0  0  0  0  0  0  0  0  0  0
    4.4827    0.5132   40.3436 C   0  0  1  0  0  0  0  0  0  0  0  0
    3.5797    0.7905   41.5600 C   0  0  2  0  0  0  0  0  0  0  0  0
    4.0848    1.8732   42.3364 O   0  0  0  0  0  0  0  0  0  0  0  0
    3.7240   -0.5588   42.2799 C   0  0  1  0  0  0  0  0  0  0  0  0
    5.2118   -0.8395   42.1490 C   0  0  2  0  0  0  0  0  0  0  0  0
    5.4861   -0.3963   40.8288 O   0  0  0  0  0  0  0  0  0  0  0  0
    5.6161   -2.3104   42.3125 C   0  0  0  0  0  0  0  0  0  0  0  0
    5.0705   -2.8352   43.5138 O   0  0  0  0  0  0  0  0  0  0  0  0
   -0.5374   -2.1109   44.8830 C   0  0  1  0  0  0  0  0  0  0  0  0
   -0.0130   -3.1641   45.6895 O   0  0  0  0  0  0  0  0  0  0  0  0
   -0.1130   -0.7417   45.4837 C   0  0  2  0  0  0  0  0  0  0  0  0
   -0.9297    0.2772   44.9116 O   0  0  0  0  0  0  0  0  0  0  0  0
    1.3889   -0.3568   45.2787 C   0  0  1  0  0  0  0  0  0  0  0  0
    2.2237   -0.9584   46.3418 N   0  3  0  0  0  0  0  0  0  0  0  0
    1.8865   -0.7100   43.8524 C   0  0  1  0  0  0  0  0  0  0  0  0
    3.3182   -0.5742   43.6762 O   0  0  0  0  0  0  0  0  0  0  0  0
   -0.0092   -2.2320   43.4314 C   0  0  1  0  0  0  0  0  0  0  0  0
    1.4330   -2.0522   43.4700 O   0  0  0  0  0  0  0  0  0  0  0  0
   -0.3810   -3.5580   42.7418 C   0  0  0  0  0  0  0  0  0  0  0  0
    0.1598   -4.7376   43.4451 N   0  3  0  0  0  0  0  0  0  0  0  0
  1  2  1  1  0  0  0
  1  3  1  0  0  0  0
  1 10  1  0  0  0  0
  3  4  1  1  0  0  0
  3  5  1  0  0  0  0
  5  6  1  6  0  0  0
  5  7  1  0  0  0  0
  7  8  1  1  0  0  0
  7  9  1  0  0  0  0
  9 10  1  0  0  0  0
  9 11  1  1  0  0  0
 11 12  1  0  0  0  0
 13 14  1  1  0  0  0
 13 15  1  0  0  0  0
 13 22  1  0  0  0  0
 15 16  1  6  0  0  0
 15 17  1  0  0  0  0
 17 18  1  1  0  0  0
 17 19  1  0  0  0  0
 19  2  1  6  0  0  0
 19 20  1  0  0  0  0
 20 21  1  1  0  0  0
 20 22  1  0  0  0  0
 23 18  1  6  0  0  0
 23 24  1  0  0  0  0
 23 28  1  0  0  0  0
 24 25  1  1  0  0  0
 24 26  1  0  0  0  0
 26 27  1  0  0  0  0
 26 38  1  1  0  0  0
 27 28  1  0  0  0  0
 27 29  1  6  0  0  0
 29 30  1  0  0  0  0
 31 32  1  1  0  0  0
 31 33  1  0  0  0  0
 31 39  1  0  0  0  0
 33 34  1  6  0  0  0
 33 35  1  0  0  0  0
 35 36  1  1  0  0  0
 35 37  1  0  0  0  0
 37 38  1  1  0  0  0
 37 40  1  0  0  0  0
 39 40  1  0  0  0  0
 39 41  1  1  0  0  0
 41 42  1  0  0  0  0
M  CHG  5   4   1  14   1  21   1  36   1  42   1
M  END
>  <CHROM.1>
-149.24657577,-32.15634997,81.39762597,61.69893189,76.63329377,-62.88440305
-53.53305169,-72.77678049,-173.62588816,68.78583961,141.23471340,101.92729484
170.18415711,81.40400050,-51.67569090,-50.94295603,68.49028850,-75.95891749
45.82302778,-164.64389565,-60.51023893,-78.54407369,2.24116828,0.00036172
40.62323011,1.23323413,0.28593765,-1.06716157

>  <Name>
1pbr

>  <RI>
0

>  <Rbt.Current_Directory>
/home/itssahil/PROJECTS/Mol_Feturizer/New_Systems/rnas/1pbr

>  <Rbt.Executable>
rbdock ($Id: //depot/dev/client3/rdock/2013.1/src/exe/rbdock.cxx#4 $)

>  <Rbt.Library>
libRbt.so (2013.1, Build901 2013/11/27)

>  <Rbt.Parameter_File>
/export/apps/rDock/src/rDock_2013.1_src/data/scripts/dock_solv.prm

>  <Rbt.Receptor>
prm/pocket_docking_7.prm

>  <SCORE>
-56.6844

>  <SCORE.INTER>
-53.0465

>  <SCORE.INTER.CONST>
1

>  <SCORE.INTER.POLAR>
-8.55019

>  <SCORE.INTER.ROT>
9

>  <SCORE.INTER.SOLV>
26.6085

>  <SCORE.INTER.VDW>
-25.3332

>  <SCORE.INTER.norm>
-1.26301

>  <SCORE.INTRA>
-3.72248

>  <SCORE.INTRA.DIHEDRAL>
-3.74681

>  <SCORE.INTRA.DIHEDRAL.0>
29.7866

>  <SCORE.INTRA.POLAR>
-0.948488

>  <SCORE.INTRA.POLAR.0>
-0.984091

>  <SCORE.INTRA.REPUL>
-0.274115

>  <SCORE.INTRA.REPUL.0>
0.274115

>  <SCORE.INTRA.SOLV>
2.86534

>  <SCORE.INTRA.SOLV.lig_0>
-152.978

>  <SCORE.INTRA.VDW>
1.31369

>  <SCORE.INTRA.VDW.0>
-6.10719

>  <SCORE.INTRA.norm>
-0.0886304

>  <SCORE.RESTR>
0.0845891

>  <SCORE.RESTR.CAVITY>
0.0845891

>  <SCORE.RESTR.norm>
0.00201403

>  <SCORE.SYSTEM>
0

>  <SCORE.SYSTEM.CONST>
0

>  <SCORE.SYSTEM.DIHEDRAL>
0

>  <SCORE.SYSTEM.SOLV>
0

>  <SCORE.SYSTEM.norm>
0

>  <SCORE.heavy>
42

>  <SCORE.norm>
-1.34963

>  <RMSD>
8.016

$$$$
1pbr
 OpenBabel11021811403D
libRbt.so/2013.1/901 2013/11/27
 42 45  0  0  0  0  0  0  0  0999 V2000
    4.0513    0.0129   37.8249 C   0  0  2  0  0  0  0  0  0  0  0  0
    4.1785    1.0471   38.8336 O   0  0  0  0  0  0  0  0  0  0  0  0
    5.4103   -0.1889   37.0563 C   0  0  2  0  0  0  0  0  0  0  0  0
    6.6184   -0.1536   37.9210 N   0  3  0  0  0  0  0  0  0  0  0  0
    5.6191    0.8927   35.9797 C   0  0  1  0  0  0  0  0  0  0  0  0
    6.7070    0.5511   35.1235 O   0  0  0  0  0  0  0  0  0  0  0  0
    4.3485    1.0864   35.1384 C   0  0  2  0  0  0  0  0  0  0  0  0
    4.5740    2.0577   34.1216 O   0  0  0  0  0  0  0  0  0  0  0  0
    3.1446    1.4412   36.0391 C   0  0  2  0  0  0  0  0  0  0  0  0
    2.9463    0.3249   36.9322 O   0  0  0  0  0  0  0  0  0  0  0  0
    1.8394    1.6723   35.2793 C   0  0  0  0  0  0  0  0  0  0  0  0
    0.7229    1.1894   36.0146 O   0  0  0  0  0  0  0  0  0  0  0  0
    0.9582   -0.3675   41.2494 C   0  0  1  0  0  0  0  0  0  0  0  0
   -0.1291   -0.5498   42.2285 N   0  3  0  0  0  0  0  0  0  0  0  0
    0.5997    0.6865   40.1584 C   0  0  2  0  0  0  0  0  0  0  0  0
   -0.5755    0.2933   39.4537 O   0  0  0  0  0  0  0  0  0  0  0  0
    1.7570    0.8518   39.1303 C   0  0  1  0  0  0  0  0  0  0  0  0
    1.4362    1.9635   38.2424 O   0  0  0  0  0  0  0  0  0  0  0  0
    3.1294    1.1237   39.8286 C   0  0  1  0  0  0  0  0  0  0  0  0
    3.4508    0.0921   40.9570 C   0  0  1  0  0  0  0  0  0  0  0  0
    4.7049    0.4325   41.6647 N   0  3  0  0  0  0  0  0  0  0  0  0
    2.2828    0.0124   41.9738 C   0  0  0  0  0  0  0  0  0  0  0  0
    0.5504    3.0341   38.7018 C   0  0  1  0  0  0  0  0  0  0  0  0
    0.4810    4.1189   37.6107 C   0  0  2  0  0  0  0  0  0  0  0  0
    0.1507    5.3871   38.1699 O   0  0  0  0  0  0  0  0  0  0  0  0
   -0.6642    3.5390   36.7668 C   0  0  1  0  0  0  0  0  0  0  0  0
   -1.6531    3.0863   37.8283 C   0  0  2  0  0  0  0  0  0  0  0  0
   -0.7981    2.5487   38.8256 O   0  0  0  0  0  0  0  0  0  0  0  0
   -2.6667    2.0302   37.3691 C   0  0  0  0  0  0  0  0  0  0  0  0
   -3.5797    2.6010   36.4434 O   0  0  0  0  0  0  0  0  0  0  0  0
    0.5740    7.5721   33.4850 C   0  0  1  0  0  0  0  0  0  0  0  0
   -0.4037    8.5676   33.7813 O   0  0  0  0  0  0  0  0  0  0  0  0
    1.3005    7.1572   34.7948 C   0  0  2  0  0  0  0  0  0  0  0  0
    2.4973    6.4636   34.4495 O   0  0  0  0  0  0  0  0  0  0  0  0
    0.4653    6.2644   35.7701 C   0  0  1  0  0  0  0  0  0  0  0  0
   -0.3855    7.1077   36.6383 N   0  3  0  0  0  0  0  0  0  0  0  0
   -0.3416    5.1781   35.0114 C   0  0  1  0  0  0  0  0  0  0  0  0
   -1.2935    4.4646   35.8384 O   0  0  0  0  0  0  0  0  0  0  0  0
   -0.0990    6.3322   32.8443 C   0  0  1  0  0  0  0  0  0  0  0  0
   -0.9966    5.7570   33.8328 O   0  0  0  0  0  0  0  0  0  0  0  0
   -0.8463    6.6371   31.5325 C   0  0  0  0  0  0  0  0  0  0  0  0
    0.0660    6.9668   30.4201 N   0  3  0  0  0  0  0  0  0  0  0  0
  1  2  1  1  0  0  0
  1  3  1  0  0  0  0
  1 10  1  0  0  0  0
  3  4  1  1  0  0  0
  3  5  1  0  0  0  0
  5  6  1  6  0  0  0
  5  7  1  0  0  0  0
  7  8  1  6  0  0  0
  7  9  1  0  0  0  0
  9 10  1  0  0  0  0
  9 11  1  6  0  0  0
 11 12  1  0  0  0  0
 13 14  1  1  0  0  0
 13 15  1  0  0  0  0
 13 22  1  0  0  0  0
 15 16  1  6  0  0  0
 15 17  1  0  0  0  0
 17 18  1  6  0  0  0
 17 19  1  0  0  0  0
 19  2  1  6  0  0  0
 19 20  1  0  0  0  0
 20 21  1  1  0  0  0
 20 22  1  0  0  0  0
 23 18  1  6  0  0  0
 23 24  1  0  0  0  0
 23 28  1  0  0  0  0
 24 25  1  1  0  0  0
 24 26  1  0  0  0  0
 26 27  1  0  0  0  0
 26 38  1  6  0  0  0
 27 28  1  0  0  0  0
 27 29  1  6  0  0  0
 29 30  1  0  0  0  0
 31 32  1  1  0  0  0
 31 33  1  0  0  0  0
 31 39  1  0  0  0  0
 33 34  1  6  0  0  0
 33 35  1  0  0  0  0
 35 36  1  6  0  0  0
 35 37  1  0  0  0  0
 37 38  1  1  0  0  0
 37 40  1  0  0  0  0
 39 40  1  0  0  0  0
 39 41  1  6  0  0  0
 41 42  1  0  0  0  0
M  CHG  5   4   1  14   1  21   1  36   1  42   1
M  END
>  <CHROM.1>
-165.47894843,-39.05829291,-67.57965611,75.33789175,-84.93551626,143.92858864
-40.13928363,-54.16311711,70.42725157,25.77175425,175.50074853,-47.57065260
68.70664965,50.00612952,-69.11595730,-161.55013436,-69.25610956,161.30630127
-54.29455714,-72.53376188,69.76446126,63.08650281,1.42345525,2.85906610,36.91980271
-1.15225068,0.41152441,-0.91592991

>  <Name>
1pbr

>  <RI>
0

>  <Rbt.Current_Directory>
/home/itssahil/PROJECTS/Mol_Feturizer/New_Systems/rnas/1pbr

>  <Rbt.Executable>
rbdock ($Id: //depot/dev/client3/rdock/2013.1/src/exe/rbdock.cxx#4 $)

>  <Rbt.Library>
libRbt.so (2013.1, Build901 2013/11/27)

>  <Rbt.Parameter_File>
/export/apps/rDock/src/rDock_2013.1_src/data/scripts/dock_solv.prm

>  <Rbt.Receptor>
prm/blind_docking_80.prm

>  <SCORE>
-8.02062

>  <SCORE.INTER>
-20.9458

>  <SCORE.INTER.CONST>
1

>  <SCORE.INTER.POLAR>
-4.15893

>  <SCORE.INTER.ROT>
9

>  <SCORE.INTER.SOLV>
30.6373

>  <SCORE.INTER.VDW>
-19.9132

>  <SCORE.INTER.norm>
-0.498709

>  <SCORE.INTRA>
10.2893

>  <SCORE.INTRA.DIHEDRAL>
-5.46532

>  <SCORE.INTRA.DIHEDRAL.0>
29.7866

>  <SCORE.INTRA.POLAR>
0.415546

>  <SCORE.INTRA.POLAR.0>
-0.984091

>  <SCORE.INTRA.REPUL>
-0.117714

>  <SCORE.INTRA.REPUL.0>
0.274115

>  <SCORE.INTRA.SOLV>
4.23071

>  <SCORE.INTRA.SOLV.lig_0>
-152.978

>  <SCORE.INTRA.VDW>
10.0823

>  <SCORE.INTRA.VDW.0>
-6.10719

>  <SCORE.INTRA.norm>
0.244982

>  <SCORE.RESTR>
2.63591

>  <SCORE.RESTR.CAVITY>
2.63591

>  <SCORE.RESTR.norm>
0.0627599

>  <SCORE.SYSTEM>
0

>  <SCORE.SYSTEM.CONST>
0

>  <SCORE.SYSTEM.DIHEDRAL>
0

>  <SCORE.SYSTEM.SOLV>
0

>  <SCORE.SYSTEM.norm>
0

>  <SCORE.heavy>
42

>  <SCORE.norm>
-0.190967

>  <RMSD>
8.017

$$$$
1pbr
 OpenBabel11021811403D
libRbt.so/2013.1/901 2013/11/27
 42 45  0  0  0  0  0  0  0  0999 V2000
    2.0501    1.0291   36.3642 C   0  0  2  0  0  0  0  0  0  0  0  0
    3.2773    1.3074   37.0851 O   0  0  0  0  0  0  0  0  0  0  0  0
    1.6365    2.2565   35.4693 C   0  0  2  0  0  0  0  0  0  0  0  0
    2.7675    2.9137   34.7641 N   0  3  0  0  0  0  0  0  0  0  0  0
    0.9480    3.3568   36.2988 C   0  0  1  0  0  0  0  0  0  0  0  0
    0.3480    4.3312   35.4480 O   0  0  0  0  0  0  0  0  0  0  0  0
   -0.1216    2.7608   37.2263 C   0  0  2  0  0  0  0  0  0  0  0  0
   -0.7767    3.7961   37.9523 O   0  0  0  0  0  0  0  0  0  0  0  0
    0.4929    1.6869   38.1514 C   0  0  2  0  0  0  0  0  0  0  0  0
    1.0043    0.6415   37.2977 O   0  0  0  0  0  0  0  0  0  0  0  0
   -0.5005    1.0546   39.1247 C   0  0  0  0  0  0  0  0  0  0  0  0
   -1.2490    2.0471   39.8140 O   0  0  0  0  0  0  0  0  0  0  0  0
    4.5338   -2.7701   37.1444 C   0  0  1  0  0  0  0  0  0  0  0  0
    5.2149   -4.0590   37.3648 N   0  3  0  0  0  0  0  0  0  0  0  0
    3.8561   -2.2311   38.4405 C   0  0  2  0  0  0  0  0  0  0  0  0
    2.8964   -3.1669   38.9263 O   0  0  0  0  0  0  0  0  0  0  0  0
    3.1336   -0.8771   38.1795 C   0  0  1  0  0  0  0  0  0  0  0  0
    2.6693   -0.3432   39.4548 O   0  0  0  0  0  0  0  0  0  0  0  0
    4.0718    0.1665   37.4898 C   0  0  1  0  0  0  0  0  0  0  0  0
    4.7868   -0.4041   36.2234 C   0  0  1  0  0  0  0  0  0  0  0  0
    5.7414    0.5710   35.6513 N   0  3  0  0  0  0  0  0  0  0  0  0
    5.5280   -1.7234   36.5618 C   0  0  0  0  0  0  0  0  0  0  0  0
    3.0193    1.0228   39.8466 C   0  0  1  0  0  0  0  0  0  0  0  0
    2.5664    1.2501   41.3010 C   0  0  2  0  0  0  0  0  0  0  0  0
    2.3346    2.6328   41.5549 O   0  0  0  0  0  0  0  0  0  0  0  0
    3.8149    0.7264   42.0268 C   0  0  1  0  0  0  0  0  0  0  0  0
    4.9440    1.3179   41.1992 C   0  0  2  0  0  0  0  0  0  0  0  0
    4.4485    1.1839   39.8759 O   0  0  0  0  0  0  0  0  0  0  0  0
    6.2966    0.6071   41.3367 C   0  0  0  0  0  0  0  0  0  0  0  0
    6.3717   -0.0598   42.5881 O   0  0  0  0  0  0  0  0  0  0  0  0
    1.0882   -0.7127   46.1059 C   0  0  1  0  0  0  0  0  0  0  0  0
    1.9717   -1.7362   46.5606 O   0  0  0  0  0  0  0  0  0  0  0  0
    1.6490    0.6753   46.5239 C   0  0  2  0  0  0  0  0  0  0  0  0
    0.6062    1.6402   46.4051 O   0  0  0  0  0  0  0  0  0  0  0  0
    2.8880    1.1705   45.7082 C   0  0  1  0  0  0  0  0  0  0  0  0
    4.1351    0.6164   46.2797 N   0  3  0  0  0  0  0  0  0  0  0  0
    2.7384    0.8737   44.1928 C   0  0  1  0  0  0  0  0  0  0  0  0
    3.9414    1.1151   43.4224 O   0  0  0  0  0  0  0  0  0  0  0  0
    0.9413   -0.7755   44.5648 C   0  0  1  0  0  0  0  0  0  0  0  0
    2.2443   -0.4924   43.9853 O   0  0  0  0  0  0  0  0  0  0  0  0
    0.3867   -2.1154   44.0459 C   0  0  0  0  0  0  0  0  0  0  0  0
   -0.8661   -2.5123   44.7178 N   0  3  0  0  0  0  0  0  0  0  0  0
  1  2  1  1  0  0  0
  1  3  1  0  0  0  0
  1 10  1  0  0  0  0
  3  4  1  1  0  0  0
  3  5  1  0  0  0  0
  5  6  1  6  0  0  0
  5  7  1  0  0  0  0
  7  8  1  1  0  0  0
  7  9  1  0  0  0  0
  9 10  1  0  0  0  0
  9 11  1  1  0  0  0
 11 12  1  0  0  0  0
 13 14  1  1  0  0  0
 13 15  1  0  0  0  0
 13 22  1  0  0  0  0
 15 16  1  6  0  0  0
 15 17  1  0  0  0  0
 17 18  1  1  0  0  0
 17 19  1  0  0  0  0
 19  2  1  6  0  0  0
 19 20  1  0  0  0  0
 20 21  1  1  0  0  0
 20 22  1  0  0  0  0
 23 18  1  1  0  0  0
 23 24  1  0  0  0  0
 23 28  1  0  0  0  0
 24 25  1  6  0  0  0
 24 26  1  0  0  0  0
 26 27  1  0  0  0  0
 26 38  1  1  0  0  0
 27 28  1  0  0  0  0
 27 29  1  6  0  0  0
 29 30  1  0  0  0  0
 31 32  1  6  0  0  0
 31 33  1  0  0  0  0
 31 39  1  0  0  0  0
 33 34  1  6  0  0  0
 33 35  1  0  0  0  0
 35 36  1  1  0  0  0
 35 37  1  0  0  0  0
 37 38  1  6  0  0  0
 37 40  1  0  0  0  0
 39 40  1  0  0  0  0
 39 41  1  1  0  0  0
 41 42  1  0  0  0  0
M  CHG  5   4   1  14   1  21   1  36   1  42   1
M  END
>  <CHROM.1>
-155.16968837,-48.38844006,-61.35451311,32.66870116,76.88564544,-49.38681091
158.81711786,153.64863944,-172.03498613,127.20418279,-172.39596412,-160.52478427
-148.16288294,49.58724676,-25.09652866,-175.72414064,-63.21499984,75.02314411
15.38097064,175.18731503,52.14419760,61.40820491,2.55740948,0.45044063,40.32620094
1.48300932,0.66412584,-1.37053319

>  <Name>
1pbr

>  <RI>
0

>  <Rbt.Current_Directory>
/home/itssahil/PROJECTS/Mol_Feturizer/New_Systems/rnas/1pbr

>  <Rbt.Executable>
rbdock ($Id: //depot/dev/client3/rdock/2013.1/src/exe/rbdock.cxx#4 $)

>  <Rbt.Library>
libRbt.so (2013.1, Build901 2013/11/27)

>  <Rbt.Parameter_File>
/export/apps/rDock/src/rDock_2013.1_src/data/scripts/dock_solv.prm

>  <Rbt.Receptor>
prm/blind_docking_60.prm

>  <SCORE>
-16.3072

>  <SCORE.INTER>
-26.3629

>  <SCORE.INTER.CONST>
1

>  <SCORE.INTER.POLAR>
-6.54305

>  <SCORE.INTER.ROT>
9

>  <SCORE.INTER.SOLV>
32.2868

>  <SCORE.INTER.VDW>
-16.1274

>  <SCORE.INTER.norm>
-0.627688

>  <SCORE.INTRA>
8.51606

>  <SCORE.INTRA.DIHEDRAL>
3.00665

>  <SCORE.INTRA.DIHEDRAL.0>
29.7866

>  <SCORE.INTRA.POLAR>
0.852595

>  <SCORE.INTRA.POLAR.0>
-0.984091

>  <SCORE.INTRA.REPUL>
-0.270704

>  <SCORE.INTRA.REPUL.0>
0.274115

>  <SCORE.INTRA.SOLV>
-0.167704

>  <SCORE.INTRA.SOLV.lig_0>
-152.978

>  <SCORE.INTRA.VDW>
5.55129

>  <SCORE.INTRA.VDW.0>
-6.10719

>  <SCORE.INTRA.norm>
0.202763

>  <SCORE.RESTR>
1.5396

>  <SCORE.RESTR.CAVITY>
1.5396

>  <SCORE.RESTR.norm>
0.0366572

>  <SCORE.SYSTEM>
0

>  <SCORE.SYSTEM.CONST>
0

>  <SCORE.SYSTEM.DIHEDRAL>
0

>  <SCORE.SYSTEM.SOLV>
0

>  <SCORE.SYSTEM.norm>
0

>  <SCORE.heavy>
42

>  <SCORE.norm>
-0.388267

>  <RMSD>
8.039

$$$$
1pbr
 OpenBabel11021811403D
libRbt.so/2013.1/901 2013/11/27
 42 45  0  0  0  0  0  0  0  0999 V2000
    2.9686   -0.0762   39.6398 C   0  0  2  0  0  0  0  0  0  0  0  0
    3.0216    1.1474   38.8632 O   0  0  0  0  0  0  0  0  0  0  0  0
    1.7448   -0.0576   40.6299 C   0  0  2  0  0  0  0  0  0  0  0  0
    0.4935    0.4984   40.0526 N   0  3  0  0  0  0  0  0  0  0  0  0
    2.0465    0.7767   41.8891 C   0  0  1  0  0  0  0  0  0  0  0  0
    1.0466    0.5703   42.8845 O   0  0  0  0  0  0  0  0  0  0  0  0
    3.4245    0.4227   42.4684 C   0  0  2  0  0  0  0  0  0  0  0  0
    3.6671    1.1715   43.6553 O   0  0  0  0  0  0  0  0  0  0  0  0
    4.5308    0.6191   41.4083 C   0  0  2  0  0  0  0  0  0  0  0  0
    4.2357   -0.2850   40.3225 O   0  0  0  0  0  0  0  0  0  0  0  0
    5.9407    0.3084   41.9080 C   0  0  0  0  0  0  0  0  0  0  0  0
    6.9036    0.4881   40.8779 O   0  0  0  0  0  0  0  0  0  0  0  0
    3.4362    1.9949   34.7018 C   0  0  1  0  0  0  0  0  0  0  0  0
    3.3541    2.0359   33.2302 N   0  3  0  0  0  0  0  0  0  0  0  0
    2.1144    2.4661   35.3802 C   0  0  2  0  0  0  0  0  0  0  0  0
    1.8010    3.8001   34.9867 O   0  0  0  0  0  0  0  0  0  0  0  0
    2.2301    2.4261   36.9322 C   0  0  1  0  0  0  0  0  0  0  0  0
    0.9194    2.7110   37.5048 O   0  0  0  0  0  0  0  0  0  0  0  0
    2.7323    1.0382   37.4487 C   0  0  1  0  0  0  0  0  0  0  0  0
    4.0271    0.5527   36.7219 C   0  0  1  0  0  0  0  0  0  0  0  0
    4.4210   -0.8047   37.1600 N   0  3  0  0  0  0  0  0  0  0  0  0
    3.8292    0.5678   35.1840 C   0  0  0  0  0  0  0  0  0  0  0  0
    0.6728    3.9939   38.1645 C   0  0  1  0  0  0  0  0  0  0  0  0
    1.1596    5.1255   37.2400 C   0  0  2  0  0  0  0  0  0  0  0  0
    1.4926    6.2910   37.9890 O   0  0  0  0  0  0  0  0  0  0  0  0
   -0.1134    5.3165   36.4018 C   0  0  1  0  0  0  0  0  0  0  0  0
   -1.2082    5.2501   37.4538 C   0  0  2  0  0  0  0  0  0  0  0  0
   -0.7408    4.2182   38.3090 O   0  0  0  0  0  0  0  0  0  0  0  0
   -2.6061    4.9092   36.9215 C   0  0  0  0  0  0  0  0  0  0  0  0
   -2.5571    4.7089   35.5166 O   0  0  0  0  0  0  0  0  0  0  0  0
   -1.0509    7.0640   31.4467 C   0  0  1  0  0  0  0  0  0  0  0  0
   -1.7862    8.2759   31.6059 O   0  0  0  0  0  0  0  0  0  0  0  0
    0.4210    7.2920   31.8909 C   0  0  2  0  0  0  0  0  0  0  0  0
    1.2174    6.2216   31.3883 O   0  0  0  0  0  0  0  0  0  0  0  0
    0.6451    7.4040   33.4346 C   0  0  1  0  0  0  0  0  0  0  0  0
    0.4078    8.7917   33.8895 N   0  3  0  0  0  0  0  0  0  0  0  0
   -0.1973    6.3630   34.2179 C   0  0  1  0  0  0  0  0  0  0  0  0
   -0.1938    6.5605   35.6532 O   0  0  0  0  0  0  0  0  0  0  0  0
   -1.6855    5.9349   32.2971 C   0  0  1  0  0  0  0  0  0  0  0  0
   -1.5676    6.3160   33.6952 O   0  0  0  0  0  0  0  0  0  0  0  0
   -3.1496    5.6273   31.9313 C   0  0  0  0  0  0  0  0  0  0  0  0
   -4.0741    5.8253   33.0647 N   0  3  0  0  0  0  0  0  0  0  0  0
  1  2  1  1  0  0  0
  1  3  1  0  0  0  0
  1 10  1  0  0  0  0
  3  4  1  6  0  0  0
  3  5  1  0  0  0  0
  5  6  1  1  0  0  0
  5  7  1  0  0  0  0
  7  8  1  1  0  0  0
  7  9  1  0  0  0  0
  9 10  1  0  0  0  0
  9 11  1  1  0  0  0
 11 12  1  0  0  0  0
 13 14  1  6  0  0  0
 13 15  1  0  0  0  0
 13 22  1  0  0  0  0
 15 16  1  6  0  0  0
 15 17  1  0  0  0  0
 17 18  1  1  0  0  0
 17 19  1  0  0  0  0
 19  2  1  1  0  0  0
 19 20  1  0  0  0  0
 20 21  1  1  0  0  0
 20 22  1  0  0  0  0
 23 18  1  6  0  0  0
 23 24  1  0  0  0  0
 23 28  1  0  0  0  0
 24 25  1  1  0  0  0
 24 26  1  0  0  0  0
 26 27  1  0  0  0  0
 26 38  1  1  0  0  0
 27 28  1  0  0  0  0
 27 29  1  6  0  0  0
 29 30  1  0  0  0  0
 31 32  1  1  0  0  0
 31 33  1  0  0  0  0
 31 39  1  0  0  0  0
 33 34  1  1  0  0  0
 33 35  1  0  0  0  0
 35 36  1  1  0  0  0
 35 37  1  0  0  0  0
 37 38  1  1  0  0  0
 37 40  1  0  0  0  0
 39 40  1  0  0  0  0
 39 41  1  6  0  0  0
 41 42  1  0  0  0  0
M  CHG  5   4   1  14   1  21   1  36   1  42   1
M  END
>  <CHROM.1>
-111.03873713,155.56388765,-85.70798981,-175.65138696,-48.50747839,179.02109621
-58.03214506,-97.68105792,75.08401065,-108.07356025,49.20121625,65.02719677
71.95219769,115.38101236,0.74949830,-59.63322466,64.53308618,55.84124466
44.16533628,-140.05366572,-120.17838727,60.65260276,1.27035465,3.44787046
36.81306535,-1.01195198,0.60864639,-1.23620146

>  <Name>
1pbr

>  <RI>
0

>  <Rbt.Current_Directory>
/home/itssahil/PROJECTS/Mol_Feturizer/New_Systems/rnas/1pbr

>  <Rbt.Executable>
rbdock ($Id: //depot/dev/client3/rdock/2013.1/src/exe/rbdock.cxx#4 $)

>  <Rbt.Library>
libRbt.so (2013.1, Build901 2013/11/27)

>  <Rbt.Parameter_File>
/export/apps/rDock/src/rDock_2013.1_src/data/scripts/dock_solv.prm

>  <Rbt.Receptor>
prm/blind_docking_80.prm

>  <SCORE>
-16.4377

>  <SCORE.INTER>
-27.9204

>  <SCORE.INTER.CONST>
1

>  <SCORE.INTER.POLAR>
-5.59986

>  <SCORE.INTER.ROT>
9

>  <SCORE.INTER.SOLV>
35.7057

>  <SCORE.INTER.VDW>
-21.4493

>  <SCORE.INTER.norm>
-0.66477

>  <SCORE.INTRA>
5.54932

>  <SCORE.INTRA.DIHEDRAL>
17.632

>  <SCORE.INTRA.DIHEDRAL.0>
29.7866

>  <SCORE.INTRA.POLAR>
-2.03888

>  <SCORE.INTRA.POLAR.0>
-0.984091

>  <SCORE.INTRA.REPUL>
-0.274115

>  <SCORE.INTRA.REPUL.0>
0.274115

>  <SCORE.INTRA.SOLV>
4.27633

>  <SCORE.INTRA.SOLV.lig_0>
-152.978

>  <SCORE.INTRA.VDW>
2.89793

>  <SCORE.INTRA.VDW.0>
-6.10719

>  <SCORE.INTRA.norm>
0.132127

>  <SCORE.RESTR>
5.9333

>  <SCORE.RESTR.CAVITY>
5.9333

>  <SCORE.RESTR.norm>
0.141269

>  <SCORE.SYSTEM>
0

>  <SCORE.SYSTEM.CONST>
0

>  <SCORE.SYSTEM.DIHEDRAL>
0

>  <SCORE.SYSTEM.SOLV>
0

>  <SCORE.SYSTEM.norm>
0

>  <SCORE.heavy>
42

>  <SCORE.norm>
-0.391375

>  <RMSD>
8.043

$$$$
1pbr
 OpenBabel11021811403D
libRbt.so/2013.1/901 2013/11/27
 42 45  0  0  0  0  0  0  0  0999 V2000
    2.5398    0.9387   36.1567 C   0  0  2  0  0  0  0  0  0  0  0  0
    3.7103    1.1059   36.9964 O   0  0  0  0  0  0  0  0  0  0  0  0
    2.4577    2.0820   35.0775 C   0  0  2  0  0  0  0  0  0  0  0  0
    3.7601    2.4377   34.4564 N   0  3  0  0  0  0  0  0  0  0  0  0
    1.8942    3.3856   35.6739 C   0  0  1  0  0  0  0  0  0  0  0  0
    1.5790    4.3189   34.6430 O   0  0  0  0  0  0  0  0  0  0  0  0
    0.6384    3.1101   36.5147 C   0  0  2  0  0  0  0  0  0  0  0  0
    0.1071    4.3304   37.0212 O   0  0  0  0  0  0  0  0  0  0  0  0
    0.9415    2.0875   37.6322 C   0  0  2  0  0  0  0  0  0  0  0  0
    1.3446    0.8636   36.9820 O   0  0  0  0  0  0  0  0  0  0  0  0
   -0.2514    1.7702   38.5325 C   0  0  0  0  0  0  0  0  0  0  0  0
   -0.3273    2.6761   39.6253 O   0  0  0  0  0  0  0  0  0  0  0  0
    4.8189   -3.0111   36.8270 C   0  0  1  0  0  0  0  0  0  0  0  0
    5.4289   -4.3418   37.0038 N   0  3  0  0  0  0  0  0  0  0  0  0
    4.0191   -2.5563   38.0853 C   0  0  2  0  0  0  0  0  0  0  0  0
    2.9814   -3.4887   38.3792 O   0  0  0  0  0  0  0  0  0  0  0  0
    3.3746   -1.1557   37.8696 C   0  0  1  0  0  0  0  0  0  0  0  0
    2.7890   -0.7132   39.1299 O   0  0  0  0  0  0  0  0  0  0  0  0
    4.4173   -0.0977   37.3811 C   0  0  1  0  0  0  0  0  0  0  0  0
    5.2497   -0.5882   36.1534 C   0  0  1  0  0  0  0  0  0  0  0  0
    6.2933    0.3910   35.7771 N   0  3  0  0  0  0  0  0  0  0  0  0
    5.9053   -1.9615   36.4509 C   0  0  0  0  0  0  0  0  0  0  0  0
    2.8820    0.6927   39.5256 C   0  0  1  0  0  0  0  0  0  0  0  0
    2.3560    0.8354   40.9661 C   0  0  2  0  0  0  0  0  0  0  0  0
    1.8776    2.1555   41.2080 O   0  0  0  0  0  0  0  0  0  0  0  0
    3.6566    0.5391   41.7281 C   0  0  1  0  0  0  0  0  0  0  0  0
    4.6865    1.3209   40.9294 C   0  0  2  0  0  0  0  0  0  0  0  0
    4.2592    1.1029   39.5935 O   0  0  0  0  0  0  0  0  0  0  0  0
    6.1387    0.8592   41.1069 C   0  0  0  0  0  0  0  0  0  0  0  0
    6.6867    1.4187   42.2914 O   0  0  0  0  0  0  0  0  0  0  0  0
    0.3432   -0.7366   45.3088 C   0  0  1  0  0  0  0  0  0  0  0  0
    1.0062   -1.9542   45.6447 O   0  0  0  0  0  0  0  0  0  0  0  0
    1.0851    0.4551   45.9760 C   0  0  2  0  0  0  0  0  0  0  0  0
    0.2275    1.5937   45.9523 O   0  0  0  0  0  0  0  0  0  0  0  0
    2.4531    0.8421   45.3243 C   0  0  1  0  0  0  0  0  0  0  0  0
    3.5400    0.0008   45.8719 N   0  3  0  0  0  0  0  0  0  0  0  0
    2.3866    0.8033   43.7748 C   0  0  1  0  0  0  0  0  0  0  0  0
    3.6740    0.9428   43.1250 O   0  0  0  0  0  0  0  0  0  0  0  0
    0.3197   -0.5442   43.7716 C   0  0  1  0  0  0  0  0  0  0  0  0
    1.6959   -0.4098   43.3224 O   0  0  0  0  0  0  0  0  0  0  0  0
   -0.3997   -1.6752   43.0130 C   0  0  0  0  0  0  0  0  0  0  0  0
   -1.4688   -2.3066   43.8110 N   0  3  0  0  0  0  0  0  0  0  0  0
  1  2  1  1  0  0  0
  1  3  1  0  0  0  0
  1 10  1  0  0  0  0
  3  4  1  1  0  0  0
  3  5  1  0  0  0  0
  5  6  1  6  0  0  0
  5  7  1  0  0  0  0
  7  8  1  1  0  0  0
  7  9  1  0  0  0  0
  9 10  1  0  0  0  0
  9 11  1  6  0  0  0
 11 12  1  0  0  0  0
 13 14  1  1  0  0  0
 13 15  1  0  0  0  0
 13 22  1  0  0  0  0
 15 16  1  6  0  0  0
 15 17  1  0  0  0  0
 17 18  1  1  0  0  0
 17 19  1  0  0  0  0
 19  2  1  6  0  0  0
 19 20  1  0  0  0  0
 20 21  1  1  0  0  0
 20 22  1  0  0  0  0
 23 18  1  1  0  0  0
 23 24  1  0  0  0  0
 23 28  1  0  0  0  0
 24 25  1  6  0  0  0
 24 26  1  0  0  0  0
 26 27  1  0  0  0  0
 26 38  1  1  0  0  0
 27 28  1  0  0  0  0
 27 29  1  6  0  0  0
 29 30  1  0  0  0  0
 31 32  1  6  0  0  0
 31 33  1  0  0  0  0
 31 39  1  0  0  0  0
 33 34  1  6  0  0  0
 33 35  1  0  0  0  0
 35 36  1  1  0  0  0
 35 37  1  0  0  0  0
 37 38  1  6  0  0  0
 37 40  1  0  0  0  0
 39 40  1  0  0  0  0
 39 41  1  6  0  0  0
 41 42  1  0  0  0  0
M  CHG  5   4   1  14   1  21   1  36   1  42   1
M  END
>  <CHROM.1>
-141.29239484,-46.66708116,-174.75278080,-171.70145754,168.41540668,-88.32062265
53.78815058,-139.10751939,178.22471870,141.32817552,-172.42584384,106.65026791
64.16780431,34.64886040,-81.85713027,-73.54422635,-170.44546149,65.11602318
168.68124787,163.88256770,29.41998589,39.48380139,2.63475122,0.42744366,39.89372544
1.25074764,0.76542342,-1.20957268

>  <Name>
1pbr

>  <RI>
0

>  <Rbt.Current_Directory>
/home/itssahil/PROJECTS/Mol_Feturizer/New_Systems/rnas/1pbr

>  <Rbt.Executable>
rbdock ($Id: //depot/dev/client3/rdock/2013.1/src/exe/rbdock.cxx#4 $)

>  <Rbt.Library>
libRbt.so (2013.1, Build901 2013/11/27)

>  <Rbt.Parameter_File>
/export/apps/rDock/src/rDock_2013.1_src/data/scripts/dock_solv.prm

>  <Rbt.Receptor>
prm/blind_docking_100.prm

>  <SCORE>
-23.9142

>  <SCORE.INTER>
-35.3164

>  <SCORE.INTER.CONST>
1

>  <SCORE.INTER.POLAR>
-5.28971

>  <SCORE.INTER.ROT>
9

>  <SCORE.INTER.SOLV>
34.9652

>  <SCORE.INTER.VDW>
-27.167

>  <SCORE.INTER.norm>
-0.840867

>  <SCORE.INTRA>
9.38134

>  <SCORE.INTRA.DIHEDRAL>
2.83253

>  <SCORE.INTRA.DIHEDRAL.0>
29.7866

>  <SCORE.INTRA.POLAR>
-0.15558

>  <SCORE.INTRA.POLAR.0>
-0.984091

>  <SCORE.INTRA.REPUL>
-0.262614

>  <SCORE.INTRA.REPUL.0>
0.274115

>  <SCORE.INTRA.SOLV>
3.40229

>  <SCORE.INTRA.SOLV.lig_0>
-152.978

>  <SCORE.INTRA.VDW>
8.10597

>  <SCORE.INTRA.VDW.0>
-6.10719

>  <SCORE.INTRA.norm>
0.223365

>  <SCORE.RESTR>
2.02088

>  <SCORE.RESTR.CAVITY>
2.02088

>  <SCORE.RESTR.norm>
0.0481162

>  <SCORE.SYSTEM>
0

>  <SCORE.SYSTEM.CONST>
0

>  <SCORE.SYSTEM.DIHEDRAL>
0

>  <SCORE.SYSTEM.SOLV>
0

>  <SCORE.SYSTEM.norm>
0

>  <SCORE.heavy>
42

>  <SCORE.norm>
-0.569386

>  <RMSD>
8.051

$$$$
1pbr
 OpenBabel11021811403D
libRbt.so/2013.1/901 2013/11/27
 42 45  0  0  0  0  0  0  0  0999 V2000
    6.1767   -3.0157   39.8567 C   0  0  2  0  0  0  0  0  0  0  0  0
    6.5835   -2.3369   38.6415 O   0  0  0  0  0  0  0  0  0  0  0  0
    7.4321   -3.4563   40.6983 C   0  0  2  0  0  0  0  0  0  0  0  0
    8.5224   -2.4481   40.7523 N   0  3  0  0  0  0  0  0  0  0  0  0
    8.0643   -4.7457   40.1411 C   0  0  1  0  0  0  0  0  0  0  0  0
    9.0234   -5.2746   41.0542 O   0  0  0  0  0  0  0  0  0  0  0  0
    6.9916   -5.8075   39.8553 C   0  0  2  0  0  0  0  0  0  0  0  0
    7.5983   -7.0061   39.3827 O   0  0  0  0  0  0  0  0  0  0  0  0
    5.9254   -5.2598   38.8808 C   0  0  2  0  0  0  0  0  0  0  0  0
    5.3028   -4.1320   39.5318 O   0  0  0  0  0  0  0  0  0  0  0  0
    4.8278   -6.2611   38.5246 C   0  0  0  0  0  0  0  0  0  0  0  0
    4.1401   -6.7064   39.6862 O   0  0  0  0  0  0  0  0  0  0  0  0
    4.9835    0.7345   36.1486 C   0  0  1  0  0  0  0  0  0  0  0  0
    4.1432    1.6179   35.3195 N   0  3  0  0  0  0  0  0  0  0  0  0
    4.5814    0.7791   37.6539 C   0  0  2  0  0  0  0  0  0  0  0  0
    4.6937    2.1073   38.1598 O   0  0  0  0  0  0  0  0  0  0  0  0
    5.4903   -0.1510   38.5096 C   0  0  1  0  0  0  0  0  0  0  0  0
    4.9615   -0.1980   39.8680 O   0  0  0  0  0  0  0  0  0  0  0  0
    5.5602   -1.6011   37.9286 C   0  0  1  0  0  0  0  0  0  0  0  0
    5.9104   -1.6286   36.4064 C   0  0  1  0  0  0  0  0  0  0  0  0
    5.8715   -3.0046   35.8636 N   0  3  0  0  0  0  0  0  0  0  0  0
    4.9388   -0.7237   35.6054 C   0  0  0  0  0  0  0  0  0  0  0  0
    5.6118    0.5670   40.9327 C   0  0  1  0  0  0  0  0  0  0  0  0
    4.5545    0.9391   41.9890 C   0  0  2  0  0  0  0  0  0  0  0  0
    4.9367    2.1098   42.7056 O   0  0  0  0  0  0  0  0  0  0  0  0
    4.6273   -0.3252   42.8586 C   0  0  1  0  0  0  0  0  0  0  0  0
    6.1241   -0.5727   42.9476 C   0  0  2  0  0  0  0  0  0  0  0  0
    6.5593   -0.2577   41.6338 O   0  0  0  0  0  0  0  0  0  0  0  0
    6.5287   -2.0065   43.3140 C   0  0  0  0  0  0  0  0  0  0  0  0
    7.7537   -1.9987   44.0321 O   0  0  0  0  0  0  0  0  0  0  0  0
   -0.2054   -0.6128   43.5094 C   0  0  1  0  0  0  0  0  0  0  0  0
   -0.1370   -1.9562   43.0346 O   0  0  0  0  0  0  0  0  0  0  0  0
    0.2637   -0.5650   44.9903 C   0  0  2  0  0  0  0  0  0  0  0  0
   -0.1539    0.6740   45.5586 O   0  0  0  0  0  0  0  0  0  0  0  0
    1.8036   -0.7258   45.2107 C   0  0  1  0  0  0  0  0  0  0  0  0
    2.1701   -2.1585   45.2551 N   0  3  0  0  0  0  0  0  0  0  0  0
    2.6238    0.0715   44.1627 C   0  0  1  0  0  0  0  0  0  0  0  0
    4.0447   -0.2108   44.1860 O   0  0  0  0  0  0  0  0  0  0  0  0
    0.6924    0.3085   42.6458 C   0  0  1  0  0  0  0  0  0  0  0  0
    2.0685   -0.1277   42.8191 O   0  0  0  0  0  0  0  0  0  0  0  0
    0.3063    0.3352   41.1550 C   0  0  0  0  0  0  0  0  0  0  0  0
    1.0591    1.3478   40.3892 N   0  3  0  0  0  0  0  0  0  0  0  0
  1  2  1  6  0  0  0
  1  3  1  0  0  0  0
  1 10  1  0  0  0  0
  3  4  1  6  0  0  0
  3  5  1  0  0  0  0
  5  6  1  1  0  0  0
  5  7  1  0  0  0  0
  7  8  1  6  0  0  0
  7  9  1  0  0  0  0
  9 10  1  0  0  0  0
  9 11  1  1  0  0  0
 11 12  1  0  0  0  0
 13 14  1  6  0  0  0
 13 15  1  0  0  0  0
 13 22  1  0  0  0  0
 15 16  1  1  0  0  0
 15 17  1  0  0  0  0
 17 18  1  1  0  0  0
 17 19  1  0  0  0  0
 19  2  1  1  0  0  0
 19 20  1  0  0  0  0
 20 21  1  6  0  0  0
 20 22  1  0  0  0  0
 23 18  1  6  0  0  0
 23 24  1  0  0  0  0
 23 28  1  0  0  0  0
 24 25  1  1  0  0  0
 24 26  1  0  0  0  0
 26 27  1  0  0  0  0
 26 38  1  1  0  0  0
 27 28  1  0  0  0  0
 27 29  1  6  0  0  0
 29 30  1  0  0  0  0
 31 32  1  6  0  0  0
 31 33  1  0  0  0  0
 31 39  1  0  0  0  0
 33 34  1  6  0  0  0
 33 35  1  0  0  0  0
 35 36  1  6  0  0  0
 35 37  1  0  0  0  0
 37 38  1  6  0  0  0
 37 40  1  0  0  0  0
 39 40  1  0  0  0  0
 39 41  1  6  0  0  0
 41 42  1  0  0  0  0
M  CHG  5   4   1  14   1  21   1  36   1  42   1
M  END
>  <CHROM.1>
-165.81027944,87.66902774,52.80808721,177.49912354,-178.45179172,58.71163091
58.57472566,-169.05923518,59.59806533,-103.19182614,151.31612066,68.83049808
72.17359228,62.20874843,-149.50128425,-168.01454934,153.22280991,169.10344709
-59.99214849,138.39620841,172.53901776,-53.33769947,4.59884396,-1.53142651
40.76443954,-0.33855061,-0.84792985,2.07604796

>  <Name>
1pbr

>  <RI>
0

>  <Rbt.Current_Directory>
/home/itssahil/PROJECTS/Mol_Feturizer/New_Systems/rnas/1pbr

>  <Rbt.Executable>
rbdock ($Id: //depot/dev/client3/rdock/2013.1/src/exe/rbdock.cxx#4 $)

>  <Rbt.Library>
libRbt.so (2013.1, Build901 2013/11/27)

>  <Rbt.Parameter_File>
/export/apps/rDock/src/rDock_2013.1_src/data/scripts/dock_solv.prm

>  <Rbt.Receptor>
prm/pocket_docking_7.prm

>  <SCORE>
-38.106

>  <SCORE.INTER>
-36.3096

>  <SCORE.INTER.CONST>
1

>  <SCORE.INTER.POLAR>
-5.41011

>  <SCORE.INTER.ROT>
9

>  <SCORE.INTER.SOLV>
24.9606

>  <SCORE.INTER.VDW>
-24.0929

>  <SCORE.INTER.norm>
-0.864515

>  <SCORE.INTRA>
-1.90202

>  <SCORE.INTRA.DIHEDRAL>
-1.4613

>  <SCORE.INTRA.DIHEDRAL.0>
29.7866

>  <SCORE.INTRA.POLAR>
-0.26778

>  <SCORE.INTRA.POLAR.0>
-0.984091

>  <SCORE.INTRA.REPUL>
-0.124287

>  <SCORE.INTRA.REPUL.0>
0.274115

>  <SCORE.INTRA.SOLV>
1.80617

>  <SCORE.INTRA.SOLV.lig_0>
-152.978

>  <SCORE.INTRA.VDW>
-0.542572

>  <SCORE.INTRA.VDW.0>
-6.10719

>  <SCORE.INTRA.norm>
-0.0452862

>  <SCORE.RESTR>
0.105645

>  <SCORE.RESTR.CAVITY>
0.105645

>  <SCORE.RESTR.norm>
0.00251536

>  <SCORE.SYSTEM>
0

>  <SCORE.SYSTEM.CONST>
0

>  <SCORE.SYSTEM.DIHEDRAL>
0

>  <SCORE.SYSTEM.SOLV>
0

>  <SCORE.SYSTEM.norm>
0

>  <SCORE.heavy>
42

>  <SCORE.norm>
-0.907286

>  <RMSD>
8.057

$$$$
1pbr
 OpenBabel11021811403D
libRbt.so/2013.1/901 2013/11/27
 42 45  0  0  0  0  0  0  0  0999 V2000
    2.2640   -0.4880   44.3173 C   0  0  2  0  0  0  0  0  0  0  0  0
    2.6011    0.6250   43.4508 O   0  0  0  0  0  0  0  0  0  0  0  0
    0.9252   -0.2052   45.0956 C   0  0  2  0  0  0  0  0  0  0  0  0
   -0.1384    0.4361   44.2796 N   0  3  0  0  0  0  0  0  0  0  0  0
    1.1569    0.7196   46.3055 C   0  0  1  0  0  0  0  0  0  0  0  0
    0.0047    0.7530   47.1449 O   0  0  0  0  0  0  0  0  0  0  0  0
    2.3727    0.2617   47.1252 C   0  0  2  0  0  0  0  0  0  0  0  0
    2.5449    1.1015   48.2624 O   0  0  0  0  0  0  0  0  0  0  0  0
    3.6370    0.1978   46.2398 C   0  0  2  0  0  0  0  0  0  0  0  0
    3.3769   -0.7772   45.2078 O   0  0  0  0  0  0  0  0  0  0  0  0
    4.9018   -0.2302   46.9823 C   0  0  0  0  0  0  0  0  0  0  0  0
    4.7536   -1.5261   47.5474 O   0  0  0  0  0  0  0  0  0  0  0  0
    3.5938    0.8112   39.3050 C   0  0  1  0  0  0  0  0  0  0  0  0
    4.2015    0.6853   37.9676 N   0  3  0  0  0  0  0  0  0  0  0  0
    3.0244   -0.5436   39.8248 C   0  0  2  0  0  0  0  0  0  0  0  0
    2.0347   -1.0439   38.9289 O   0  0  0  0  0  0  0  0  0  0  0  0
    2.3774   -0.3823   41.2315 C   0  0  1  0  0  0  0  0  0  0  0  0
    2.0193   -1.7038   41.7340 O   0  0  0  0  0  0  0  0  0  0  0  0
    3.3416    0.3156   42.2456 C   0  0  1  0  0  0  0  0  0  0  0  0
    3.9476    1.6442   41.6905 C   0  0  1  0  0  0  0  0  0  0  0  0
    4.9302    2.2287   42.6300 N   0  3  0  0  0  0  0  0  0  0  0  0
    4.6198    1.4053   40.3138 C   0  0  0  0  0  0  0  0  0  0  0  0
    0.7405   -2.3076   41.3571 C   0  0  1  0  0  0  0  0  0  0  0  0
    0.8424   -3.8334   41.5408 C   0  0  2  0  0  0  0  0  0  0  0  0
   -0.0775   -4.5139   40.6918 O   0  0  0  0  0  0  0  0  0  0  0  0
    0.4445   -3.9249   43.0218 C   0  0  1  0  0  0  0  0  0  0  0  0
   -0.7242   -2.9570   43.1047 C   0  0  2  0  0  0  0  0  0  0  0  0
   -0.2946   -1.8949   42.2668 O   0  0  0  0  0  0  0  0  0  0  0  0
   -1.0396   -2.4323   44.5114 C   0  0  0  0  0  0  0  0  0  0  0  0
   -1.5193   -3.4891   45.3295 O   0  0  0  0  0  0  0  0  0  0  0  0
    2.6493   -7.4343   46.1626 C   0  0  1  0  0  0  0  0  0  0  0  0
    1.7675   -7.3727   47.2822 O   0  0  0  0  0  0  0  0  0  0  0  0
    1.9773   -8.2479   45.0216 C   0  0  2  0  0  0  0  0  0  0  0  0
    2.9797   -8.6193   44.0783 O   0  0  0  0  0  0  0  0  0  0  0  0
    0.8224   -7.5131   44.2652 C   0  0  1  0  0  0  0  0  0  0  0  0
   -0.4563   -7.6817   44.9902 N   0  3  0  0  0  0  0  0  0  0  0  0
    1.1658   -6.0251   43.9917 C   0  0  1  0  0  0  0  0  0  0  0  0
    0.0532   -5.2455   43.4882 O   0  0  0  0  0  0  0  0  0  0  0  0
    2.9819   -6.0063   45.6616 C   0  0  1  0  0  0  0  0  0  0  0  0
    1.7454   -5.4052   45.1888 O   0  0  0  0  0  0  0  0  0  0  0  0
    3.6576   -5.1159   46.7212 C   0  0  0  0  0  0  0  0  0  0  0  0
    5.0057   -5.5909   47.0893 N   0  3  0  0  0  0  0  0  0  0  0  0
  1  2  1  1  0  0  0
  1  3  1  0  0  0  0
  1 10  1  0  0  0  0
  3  4  1  6  0  0  0
  3  5  1  0  0  0  0
  5  6  1  1  0  0  0
  5  7  1  0  0  0  0
  7  8  1  1  0  0  0
  7  9  1  0  0  0  0
  9 10  1  0  0  0  0
  9 11  1  1  0  0  0
 11 12  1  0  0  0  0
 13 14  1  6  0  0  0
 13 15  1  0  0  0  0
 13 22  1  0  0  0  0
 15 16  1  6  0  0  0
 15 17  1  0  0  0  0
 17 18  1  1  0  0  0
 17 19  1  0  0  0  0
 19  2  1  1  0  0  0
 19 20  1  0  0  0  0
 20 21  1  1  0  0  0
 20 22  1  0  0  0  0
 23 18  1  1  0  0  0
 23 24  1  0  0  0  0
 23 28  1  0  0  0  0
 24 25  1  6  0  0  0
 24 26  1  0  0  0  0
 26 27  1  0  0  0  0
 26 38  1  6  0  0  0
 27 28  1  0  0  0  0
 27 29  1  1  0  0  0
 29 30  1  0  0  0  0
 31 32  1  1  0  0  0
 31 33  1  0  0  0  0
 31 39  1  0  0  0  0
 33 34  1  6  0  0  0
 33 35  1  0  0  0  0
 35 36  1  1  0  0  0
 35 37  1  0  0  0  0
 37 38  1  1  0  0  0
 37 40  1  0  0  0  0
 39 40  1  0  0  0  0
 39 41  1  1  0  0  0
 41 42  1  0  0  0  0
M  CHG  5   4   1  14   1  21   1  36   1  42   1
M  END
>  <CHROM.1>
-150.29672925,73.28922666,-168.84910477,-165.17835830,70.53832046,60.05702017
-63.85605644,-51.25160517,-44.70982840,-84.97279507,158.30607038,36.65646375
59.71636937,89.84141887,-67.22601199,-63.76971935,-167.20049594,67.76555650
-76.07779094,-169.99878473,66.42527990,-47.64489152,2.01874995,-2.42472707
43.92793780,-0.87366530,1.28949019,2.02799324

>  <Name>
1pbr

>  <RI>
0

>  <Rbt.Current_Directory>
/home/itssahil/PROJECTS/Mol_Feturizer/New_Systems/rnas/1pbr

>  <Rbt.Executable>
rbdock ($Id: //depot/dev/client3/rdock/2013.1/src/exe/rbdock.cxx#4 $)

>  <Rbt.Library>
libRbt.so (2013.1, Build901 2013/11/27)

>  <Rbt.Parameter_File>
/export/apps/rDock/src/rDock_2013.1_src/data/scripts/dock_solv.prm

>  <Rbt.Receptor>
prm/pocket_docking_8.prm

>  <SCORE>
-41.4267

>  <SCORE.INTER>
-34.9048

>  <SCORE.INTER.CONST>
1

>  <SCORE.INTER.POLAR>
-3.91796

>  <SCORE.INTER.ROT>
9

>  <SCORE.INTER.SOLV>
27.7004

>  <SCORE.INTER.VDW>
-29.0435

>  <SCORE.INTER.norm>
-0.831067

>  <SCORE.INTRA>
-6.52191

>  <SCORE.INTRA.DIHEDRAL>
-8.7077

>  <SCORE.INTRA.DIHEDRAL.0>
29.7866

>  <SCORE.INTRA.POLAR>
-0.36124

>  <SCORE.INTRA.POLAR.0>
-0.984091

>  <SCORE.INTRA.REPUL>
-0.274115

>  <SCORE.INTRA.REPUL.0>
0.274115

>  <SCORE.INTRA.SOLV>
-0.292824

>  <SCORE.INTRA.SOLV.lig_0>
-152.978

>  <SCORE.INTRA.VDW>
0.577139

>  <SCORE.INTRA.VDW.0>
-6.10719

>  <SCORE.INTRA.norm>
-0.155284

>  <SCORE.RESTR>
0

>  <SCORE.RESTR.CAVITY>
0

>  <SCORE.RESTR.norm>
0

>  <SCORE.SYSTEM>
0

>  <SCORE.SYSTEM.CONST>
0

>  <SCORE.SYSTEM.DIHEDRAL>
0

>  <SCORE.SYSTEM.SOLV>
0

>  <SCORE.SYSTEM.norm>
0

>  <SCORE.heavy>
42

>  <SCORE.norm>
-0.986351

>  <RMSD>
8.058

$$$$
1pbr
 OpenBabel11021811403D
libRbt.so/2013.1/901 2013/11/27
 42 45  0  0  0  0  0  0  0  0999 V2000
    1.9701    0.2080   37.5604 C   0  0  2  0  0  0  0  0  0  0  0  0
    2.5849   -0.8750   36.8173 O   0  0  0  0  0  0  0  0  0  0  0  0
    1.7255    1.4553   36.6317 C   0  0  2  0  0  0  0  0  0  0  0  0
    1.2250    1.1229   35.2725 N   0  3  0  0  0  0  0  0  0  0  0  0
    3.0152    2.2725   36.4282 C   0  0  1  0  0  0  0  0  0  0  0  0
    2.7278    3.5268   35.8138 O   0  0  0  0  0  0  0  0  0  0  0  0
    3.7338    2.5113   37.7647 C   0  0  2  0  0  0  0  0  0  0  0  0
    4.8992    3.3046   37.5627 O   0  0  0  0  0  0  0  0  0  0  0  0
    4.0449    1.1705   38.4660 C   0  0  2  0  0  0  0  0  0  0  0  0
    2.7779    0.5300   38.7262 O   0  0  0  0  0  0  0  0  0  0  0  0
    4.7804    1.3148   39.7973 C   0  0  0  0  0  0  0  0  0  0  0  0
    4.0085    2.0538   40.7347 O   0  0  0  0  0  0  0  0  0  0  0  0
    5.2468   -4.0617   37.8010 C   0  0  1  0  0  0  0  0  0  0  0  0
    6.3547   -4.9126   38.2725 N   0  3  0  0  0  0  0  0  0  0  0  0
    4.4335   -3.4447   38.9789 C   0  0  2  0  0  0  0  0  0  0  0  0
    3.8884   -4.4745   39.8004 O   0  0  0  0  0  0  0  0  0  0  0  0
    3.2628   -2.5617   38.4562 C   0  0  1  0  0  0  0  0  0  0  0  0
    2.6498   -1.8810   39.5910 O   0  0  0  0  0  0  0  0  0  0  0  0
    3.7463   -1.5014   37.4135 C   0  0  1  0  0  0  0  0  0  0  0  0
    4.6061   -2.1253   36.2680 C   0  0  1  0  0  0  0  0  0  0  0  0
    5.1312   -1.0868   35.3541 N   0  3  0  0  0  0  0  0  0  0  0  0
    5.7825   -2.9485   36.8537 C   0  0  0  0  0  0  0  0  0  0  0  0
    1.5252   -2.4995   40.2943 C   0  0  1  0  0  0  0  0  0  0  0  0
    2.0383   -3.0915   41.6204 C   0  0  2  0  0  0  0  0  0  0  0  0
    1.2053   -4.1606   42.0600 O   0  0  0  0  0  0  0  0  0  0  0  0
    1.9033   -1.8456   42.5087 C   0  0  1  0  0  0  0  0  0  0  0  0
    0.5529   -1.2905   42.0871 C   0  0  2  0  0  0  0  0  0  0  0  0
    0.5675   -1.4989   40.6831 O   0  0  0  0  0  0  0  0  0  0  0  0
    0.3289    0.1939   42.4034 C   0  0  0  0  0  0  0  0  0  0  0  0
   -0.6262    0.7442   41.5083 O   0  0  0  0  0  0  0  0  0  0  0  0
    2.6958    0.5513   47.2799 C   0  0  1  0  0  0  0  0  0  0  0  0
    2.5799   -0.4613   48.2779 O   0  0  0  0  0  0  0  0  0  0  0  0
    3.9035    0.2288   46.3563 C   0  0  2  0  0  0  0  0  0  0  0  0
    4.2371    1.4029   45.6194 O   0  0  0  0  0  0  0  0  0  0  0  0
    3.6830   -0.9496   45.3521 C   0  0  1  0  0  0  0  0  0  0  0  0
    3.9772   -2.2440   46.0055 N   0  3  0  0  0  0  0  0  0  0  0  0
    2.2702   -0.9073   44.7126 C   0  0  1  0  0  0  0  0  0  0  0  0
    1.9353   -2.0878   43.9423 O   0  0  0  0  0  0  0  0  0  0  0  0
    1.3977    0.6261   46.4374 C   0  0  1  0  0  0  0  0  0  0  0  0
    1.2532   -0.6391   45.7358 O   0  0  0  0  0  0  0  0  0  0  0  0
    0.1370    0.9460   47.2623 C   0  0  0  0  0  0  0  0  0  0  0  0
   -1.0526    1.1760   46.4195 N   0  3  0  0  0  0  0  0  0  0  0  0
  1  2  1  6  0  0  0
  1  3  1  0  0  0  0
  1 10  1  0  0  0  0
  3  4  1  6  0  0  0
  3  5  1  0  0  0  0
  5  6  1  1  0  0  0
  5  7  1  0  0  0  0
  7  8  1  6  0  0  0
  7  9  1  0  0  0  0
  9 10  1  0  0  0  0
  9 11  1  1  0  0  0
 11 12  1  0  0  0  0
 13 14  1  1  0  0  0
 13 15  1  0  0  0  0
 13 22  1  0  0  0  0
 15 16  1  1  0  0  0
 15 17  1  0  0  0  0
 17 18  1  1  0  0  0
 17 19  1  0  0  0  0
 19  2  1  6  0  0  0
 19 20  1  0  0  0  0
 20 21  1  6  0  0  0
 20 22  1  0  0  0  0
 23 18  1  1  0  0  0
 23 24  1  0  0  0  0
 23 28  1  0  0  0  0
 24 25  1  1  0  0  0
 24 26  1  0  0  0  0
 26 27  1  0  0  0  0
 26 38  1  1  0  0  0
 27 28  1  0  0  0  0
 27 29  1  6  0  0  0
 29 30  1  0  0  0  0
 31 32  1  1  0  0  0
 31 33  1  0  0  0  0
 31 39  1  0  0  0  0
 33 34  1  6  0  0  0
 33 35  1  0  0  0  0
 35 36  1  1  0  0  0
 35 37  1  0  0  0  0
 37 38  1  1  0  0  0
 37 40  1  0  0  0  0
 39 40  1  0  0  0  0
 39 41  1  1  0  0  0
 41 42  1  0  0  0  0
M  CHG  5   4   1  14   1  21   1  36   1  42   1
M  END
>  <CHROM.1>
131.24350838,82.45037021,71.73279674,-153.66217246,69.06426682,61.15713755
-172.63410523,-18.32923792,69.62033917,-91.19692359,103.42531661,71.46134542
-52.82194034,159.78815463,154.64845653,-168.84318317,148.07418847,-72.96311842
75.62843220,-108.80458530,172.90603526,2.26941784,2.77928858,-0.60453675
40.89169714,0.98379158,1.19164052,-1.02587076

>  <Name>
1pbr

>  <RI>
0

>  <Rbt.Current_Directory>
/home/itssahil/PROJECTS/Mol_Feturizer/New_Systems/rnas/1pbr

>  <Rbt.Executable>
rbdock ($Id: //depot/dev/client3/rdock/2013.1/src/exe/rbdock.cxx#4 $)

>  <Rbt.Library>
libRbt.so (2013.1, Build901 2013/11/27)

>  <Rbt.Parameter_File>
/export/apps/rDock/src/rDock_2013.1_src/data/scripts/dock_solv.prm

>  <Rbt.Receptor>
prm/pocket_docking_6.prm

>  <SCORE>
-34.3414

>  <SCORE.INTER>
-44.8509

>  <SCORE.INTER.CONST>
1

>  <SCORE.INTER.POLAR>
-6.15553

>  <SCORE.INTER.ROT>
9

>  <SCORE.INTER.SOLV>
33.739

>  <SCORE.INTER.VDW>
-30.2285

>  <SCORE.INTER.norm>
-1.06788

>  <SCORE.INTRA>
10.3907

>  <SCORE.INTRA.DIHEDRAL>
16.7315

>  <SCORE.INTRA.DIHEDRAL.0>
29.7866

>  <SCORE.INTRA.POLAR>
0.974556

>  <SCORE.INTRA.POLAR.0>
-0.984091

>  <SCORE.INTRA.REPUL>
-0.236596

>  <SCORE.INTRA.REPUL.0>
0.274115

>  <SCORE.INTRA.SOLV>
-2.93442

>  <SCORE.INTRA.SOLV.lig_0>
-152.978

>  <SCORE.INTRA.VDW>
1.36162

>  <SCORE.INTRA.VDW.0>
-6.10719

>  <SCORE.INTRA.norm>
0.247397

>  <SCORE.RESTR>
0.118836

>  <SCORE.RESTR.CAVITY>
0.118836

>  <SCORE.RESTR.norm>
0.00282944

>  <SCORE.SYSTEM>
0

>  <SCORE.SYSTEM.CONST>
0

>  <SCORE.SYSTEM.DIHEDRAL>
0

>  <SCORE.SYSTEM.SOLV>
0

>  <SCORE.SYSTEM.norm>
0

>  <SCORE.heavy>
42

>  <SCORE.norm>
-0.817652

>  <RMSD>
8.066

$$$$
1pbr
 OpenBabel11021811403D
libRbt.so/2013.1/901 2013/11/27
 42 45  0  0  0  0  0  0  0  0999 V2000
    4.1952    1.7608   38.3665 C   0  0  2  0  0  0  0  0  0  0  0  0
    2.7671    1.5096   38.3418 O   0  0  0  0  0  0  0  0  0  0  0  0
    4.6667    2.4412   37.0274 C   0  0  2  0  0  0  0  0  0  0  0  0
    3.7475    3.4887   36.5117 N   0  3  0  0  0  0  0  0  0  0  0  0
    4.8260    1.4111   35.8933 C   0  0  1  0  0  0  0  0  0  0  0  0
    5.4991    1.9881   34.7765 O   0  0  0  0  0  0  0  0  0  0  0  0
    5.6020    0.1759   36.3747 C   0  0  2  0  0  0  0  0  0  0  0  0
    5.7773   -0.7448   35.3024 O   0  0  0  0  0  0  0  0  0  0  0  0
    4.9077   -0.4645   37.5971 C   0  0  2  0  0  0  0  0  0  0  0  0
    4.9106    0.5259   38.6470 O   0  0  0  0  0  0  0  0  0  0  0  0
    5.6040   -1.7157   38.1299 C   0  0  0  0  0  0  0  0  0  0  0  0
    7.0160   -1.5524   38.1450 O   0  0  0  0  0  0  0  0  0  0  0  0
    0.6957    0.0023   41.7543 C   0  0  1  0  0  0  0  0  0  0  0  0
   -0.0015   -0.1961   43.0382 N   0  3  0  0  0  0  0  0  0  0  0  0
   -0.1389    0.8598   40.7555 C   0  0  2  0  0  0  0  0  0  0  0  0
   -1.3934    0.2361   40.4917 O   0  0  0  0  0  0  0  0  0  0  0  0
    0.6119    1.0443   39.4043 C   0  0  1  0  0  0  0  0  0  0  0  0
   -0.1351    1.9885   38.5812 O   0  0  0  0  0  0  0  0  0  0  0  0
    2.0692    1.5730   39.6089 C   0  0  1  0  0  0  0  0  0  0  0  0
    2.8768    0.7373   40.6530 C   0  0  1  0  0  0  0  0  0  0  0  0
    4.2147    1.3195   40.8987 N   0  3  0  0  0  0  0  0  0  0  0  0
    2.0987    0.6343   41.9904 C   0  0  0  0  0  0  0  0  0  0  0  0
    0.3212    2.2970   37.2253 C   0  0  1  0  0  0  0  0  0  0  0  0
   -0.8423    2.9402   36.4477 C   0  0  2  0  0  0  0  0  0  0  0  0
   -0.6942    2.7385   35.0450 O   0  0  0  0  0  0  0  0  0  0  0  0
   -0.6210    4.4058   36.8514 C   0  0  1  0  0  0  0  0  0  0  0  0
    0.8882    4.5482   36.7436 C   0  0  2  0  0  0  0  0  0  0  0  0
    1.3447    3.3074   37.2601 O   0  0  0  0  0  0  0  0  0  0  0  0
    1.4932    5.7120   37.5393 C   0  0  0  0  0  0  0  0  0  0  0  0
    0.4724    6.4038   38.2433 O   0  0  0  0  0  0  0  0  0  0  0  0
    0.2726    7.9352   32.8953 C   0  0  1  0  0  0  0  0  0  0  0  0
   -0.6268    9.0150   33.1400 O   0  0  0  0  0  0  0  0  0  0  0  0
    1.1774    7.7255   34.1415 C   0  0  2  0  0  0  0  0  0  0  0  0
    2.2929    6.9228   33.7622 O   0  0  0  0  0  0  0  0  0  0  0  0
    0.4776    7.0641   35.3738 C   0  0  1  0  0  0  0  0  0  0  0  0
   -0.2143    8.0904   36.1845 N   0  3  0  0  0  0  0  0  0  0  0  0
   -0.4584    5.9012   34.9516 C   0  0  1  0  0  0  0  0  0  0  0  0
   -1.2918    5.3952   36.0233 O   0  0  0  0  0  0  0  0  0  0  0  0
   -0.5168    6.6357   32.5969 C   0  0  1  0  0  0  0  0  0  0  0  0
   -1.2691    6.2918   33.7925 O   0  0  0  0  0  0  0  0  0  0  0  0
   -1.4449    6.7380   31.3721 C   0  0  0  0  0  0  0  0  0  0  0  0
   -2.4964    5.7022   31.3656 N   0  3  0  0  0  0  0  0  0  0  0  0
  1  2  1  6  0  0  0
  1  3  1  0  0  0  0
  1 10  1  0  0  0  0
  3  4  1  6  0  0  0
  3  5  1  0  0  0  0
  5  6  1  6  0  0  0
  5  7  1  0  0  0  0
  7  8  1  6  0  0  0
  7  9  1  0  0  0  0
  9 10  1  0  0  0  0
  9 11  1  1  0  0  0
 11 12  1  0  0  0  0
 13 14  1  1  0  0  0
 13 15  1  0  0  0  0
 13 22  1  0  0  0  0
 15 16  1  6  0  0  0
 15 17  1  0  0  0  0
 17 18  1  6  0  0  0
 17 19  1  0  0  0  0
 19  2  1  6  0  0  0
 19 20  1  0  0  0  0
 20 21  1  1  0  0  0
 20 22  1  0  0  0  0
 23 18  1  1  0  0  0
 23 24  1  0  0  0  0
 23 28  1  0  0  0  0
 24 25  1  6  0  0  0
 24 26  1  0  0  0  0
 26 27  1  0  0  0  0
 26 38  1  6  0  0  0
 27 28  1  0  0  0  0
 27 29  1  1  0  0  0
 29 30  1  0  0  0  0
 31 32  1  1  0  0  0
 31 33  1  0  0  0  0
 31 39  1  0  0  0  0
 33 34  1  6  0  0  0
 33 35  1  0  0  0  0
 35 36  1  6  0  0  0
 35 37  1  0  0  0  0
 37 38  1  1  0  0  0
 37 40  1  0  0  0  0
 39 40  1  0  0  0  0
 39 41  1  6  0  0  0
 41 42  1  0  0  0  0
M  CHG  5   4   1  14   1  21   1  36   1  42   1
M  END
>  <CHROM.1>
-148.26915880,-170.66707360,-168.74948671,63.85123862,-65.90099743,41.70794659
-172.27689587,-51.27853175,-172.70661048,-177.20663233,162.41114215,148.67532105
-46.16375074,-93.54595967,1.14099003,59.61910217,-59.35358738,65.10371919
-124.86746409,-84.28716303,-160.68793968,49.91807773,1.63376385,3.17535054
36.96482495,-1.07479240,0.50312981,-0.94240510

>  <Name>
1pbr

>  <RI>
0

>  <Rbt.Current_Directory>
/home/itssahil/PROJECTS/Mol_Feturizer/New_Systems/rnas/1pbr

>  <Rbt.Executable>
rbdock ($Id: //depot/dev/client3/rdock/2013.1/src/exe/rbdock.cxx#4 $)

>  <Rbt.Library>
libRbt.so (2013.1, Build901 2013/11/27)

>  <Rbt.Parameter_File>
/export/apps/rDock/src/rDock_2013.1_src/data/scripts/dock_solv.prm

>  <Rbt.Receptor>
prm/blind_docking_80.prm

>  <SCORE>
-12.0243

>  <SCORE.INTER>
-28.822

>  <SCORE.INTER.CONST>
1

>  <SCORE.INTER.POLAR>
-3.88856

>  <SCORE.INTER.ROT>
9

>  <SCORE.INTER.SOLV>
30.7077

>  <SCORE.INTER.VDW>
-26.0887

>  <SCORE.INTER.norm>
-0.686237

>  <SCORE.INTRA>
12.7394

>  <SCORE.INTRA.DIHEDRAL>
-1.06377

>  <SCORE.INTRA.DIHEDRAL.0>
29.7866

>  <SCORE.INTRA.POLAR>
-1.49041

>  <SCORE.INTRA.POLAR.0>
-0.984091

>  <SCORE.INTRA.REPUL>
-0.274115

>  <SCORE.INTRA.REPUL.0>
0.274115

>  <SCORE.INTRA.SOLV>
9.63914

>  <SCORE.INTRA.SOLV.lig_0>
-152.978

>  <SCORE.INTRA.VDW>
14.8897

>  <SCORE.INTRA.VDW.0>
-6.10719

>  <SCORE.INTRA.norm>
0.303319

>  <SCORE.RESTR>
4.05823

>  <SCORE.RESTR.CAVITY>
4.05823

>  <SCORE.RESTR.norm>
0.0966244

>  <SCORE.SYSTEM>
0

>  <SCORE.SYSTEM.CONST>
0

>  <SCORE.SYSTEM.DIHEDRAL>
0

>  <SCORE.SYSTEM.SOLV>
0

>  <SCORE.SYSTEM.norm>
0

>  <SCORE.heavy>
42

>  <SCORE.norm>
-0.286294

>  <RMSD>
8.071

$$$$
1pbr
 OpenBabel11021811403D
libRbt.so/2013.1/901 2013/11/27
 42 45  0  0  0  0  0  0  0  0999 V2000
    5.2333   -0.3066   38.3509 C   0  0  2  0  0  0  0  0  0  0  0  0
    4.4538    0.8940   38.1182 O   0  0  0  0  0  0  0  0  0  0  0  0
    6.2544   -0.5468   37.1771 C   0  0  2  0  0  0  0  0  0  0  0  0
    6.9311    0.6825   36.6879 N   0  3  0  0  0  0  0  0  0  0  0  0
    5.5703   -1.1795   35.9507 C   0  0  1  0  0  0  0  0  0  0  0  0
    6.5396   -1.6314   35.0075 O   0  0  0  0  0  0  0  0  0  0  0  0
    4.6735   -2.3560   36.3648 C   0  0  2  0  0  0  0  0  0  0  0  0
    4.0845   -2.9551   35.2149 O   0  0  0  0  0  0  0  0  0  0  0  0
    3.6211   -1.9036   37.4012 C   0  0  2  0  0  0  0  0  0  0  0  0
    4.3464   -1.4402   38.5599 O   0  0  0  0  0  0  0  0  0  0  0  0
    2.6704   -3.0105   37.8539 C   0  0  0  0  0  0  0  0  0  0  0  0
    3.3824   -4.0963   38.4323 O   0  0  0  0  0  0  0  0  0  0  0  0
    1.9581    0.5889   41.5658 C   0  0  1  0  0  0  0  0  0  0  0  0
    1.1263    0.8217   42.7607 N   0  3  0  0  0  0  0  0  0  0  0  0
    1.2870    1.1259   40.2654 C   0  0  2  0  0  0  0  0  0  0  0  0
    0.0241    0.4968   40.0609 O   0  0  0  0  0  0  0  0  0  0  0  0
    2.1777    0.8572   39.0172 C   0  0  1  0  0  0  0  0  0  0  0  0
    1.5824    1.5276   37.8669 O   0  0  0  0  0  0  0  0  0  0  0  0
    3.6412    1.3704   39.2178 C   0  0  1  0  0  0  0  0  0  0  0  0
    4.2824    0.8692   40.5513 C   0  0  1  0  0  0  0  0  0  0  0  0
    5.6270    1.4501   40.7609 N   0  3  0  0  0  0  0  0  0  0  0  0
    3.3717    1.2119   41.7586 C   0  0  0  0  0  0  0  0  0  0  0  0
    1.1140    2.9089   37.9872 C   0  0  1  0  0  0  0  0  0  0  0  0
    1.0739    3.5401   36.5829 C   0  0  2  0  0  0  0  0  0  0  0  0
    1.2003    4.9575   36.6549 O   0  0  0  0  0  0  0  0  0  0  0  0
   -0.3373    3.1025   36.1622 C   0  0  1  0  0  0  0  0  0  0  0  0
   -1.1455    3.3547   37.4242 C   0  0  2  0  0  0  0  0  0  0  0  0
   -0.2502    2.9362   38.4430 O   0  0  0  0  0  0  0  0  0  0  0  0
   -2.4647    2.5776   37.5214 C   0  0  0  0  0  0  0  0  0  0  0  0
   -3.4928    3.4226   38.0168 O   0  0  0  0  0  0  0  0  0  0  0  0
   -0.0212    7.7113   33.3754 C   0  0  1  0  0  0  0  0  0  0  0  0
   -0.9260    7.5969   32.2786 O   0  0  0  0  0  0  0  0  0  0  0  0
   -0.8208    7.6864   34.7080 C   0  0  2  0  0  0  0  0  0  0  0  0
    0.0223    8.1682   35.7518 O   0  0  0  0  0  0  0  0  0  0  0  0
   -1.3873    6.2892   35.1234 C   0  0  1  0  0  0  0  0  0  0  0  0
   -2.6894    6.0454   34.4644 N   0  3  0  0  0  0  0  0  0  0  0  0
   -0.3635    5.1516   34.8690 C   0  0  1  0  0  0  0  0  0  0  0  0
   -0.9085    3.8193   35.0332 O   0  0  0  0  0  0  0  0  0  0  0  0
    0.9982    6.5446   33.3547 C   0  0  1  0  0  0  0  0  0  0  0  0
    0.2581    5.3083   33.5490 O   0  0  0  0  0  0  0  0  0  0  0  0
    1.8479    6.4824   32.0717 C   0  0  0  0  0  0  0  0  0  0  0  0
    2.6039    5.2206   31.9493 N   0  3  0  0  0  0  0  0  0  0  0  0
  1  2  1  6  0  0  0
  1  3  1  0  0  0  0
  1 10  1  0  0  0  0
  3  4  1  6  0  0  0
  3  5  1  0  0  0  0
  5  6  1  6  0  0  0
  5  7  1  0  0  0  0
  7  8  1  6  0  0  0
  7  9  1  0  0  0  0
  9 10  1  0  0  0  0
  9 11  1  1  0  0  0
 11 12  1  0  0  0  0
 13 14  1  1  0  0  0
 13 15  1  0  0  0  0
 13 22  1  0  0  0  0
 15 16  1  6  0  0  0
 15 17  1  0  0  0  0
 17 18  1  6  0  0  0
 17 19  1  0  0  0  0
 19  2  1  6  0  0  0
 19 20  1  0  0  0  0
 20 21  1  1  0  0  0
 20 22  1  0  0  0  0
 23 18  1  6  0  0  0
 23 24  1  0  0  0  0
 23 28  1  0  0  0  0
 24 25  1  1  0  0  0
 24 26  1  0  0  0  0
 26 27  1  0  0  0  0
 26 38  1  6  0  0  0
 27 28  1  0  0  0  0
 27 29  1  6  0  0  0
 29 30  1  0  0  0  0
 31 32  1  6  0  0  0
 31 33  1  0  0  0  0
 31 39  1  0  0  0  0
 33 34  1  1  0  0  0
 33 35  1  0  0  0  0
 35 36  1  6  0  0  0
 35 37  1  0  0  0  0
 37 38  1  6  0  0  0
 37 40  1  0  0  0  0
 39 40  1  0  0  0  0
 39 41  1  6  0  0  0
 41 42  1  0  0  0  0
M  CHG  5   4   1  14   1  21   1  36   1  42   1
M  END
>  <CHROM.1>
-169.53238854,-97.29206012,176.06287955,171.18635519,173.69060561,58.76289937
-166.72699515,23.30635648,166.65195930,45.86415031,157.50523459,-40.87077645
62.02495487,-25.66264737,-137.57793378,171.32502863,-64.91946971,-62.71884487
-154.21897854,-113.37461570,-168.13099403,-68.49461458,1.82810900,2.26314952
36.98581986,-0.87975239,0.66974860,-0.99470811

>  <Name>
1pbr

>  <RI>
0

>  <Rbt.Current_Directory>
/home/itssahil/PROJECTS/Mol_Feturizer/New_Systems/rnas/1pbr

>  <Rbt.Executable>
rbdock ($Id: //depot/dev/client3/rdock/2013.1/src/exe/rbdock.cxx#4 $)

>  <Rbt.Library>
libRbt.so (2013.1, Build901 2013/11/27)

>  <Rbt.Parameter_File>
/export/apps/rDock/src/rDock_2013.1_src/data/scripts/dock_solv.prm

>  <Rbt.Receptor>
prm/blind_docking_80.prm

>  <SCORE>
-32.8311

>  <SCORE.INTER>
-42.8547

>  <SCORE.INTER.CONST>
1

>  <SCORE.INTER.POLAR>
-5.32657

>  <SCORE.INTER.ROT>
9

>  <SCORE.INTER.SOLV>
35.1026

>  <SCORE.INTER.VDW>
-32.1155

>  <SCORE.INTER.norm>
-1.02035

>  <SCORE.INTRA>
8.70408

>  <SCORE.INTRA.DIHEDRAL>
3.05881

>  <SCORE.INTRA.DIHEDRAL.0>
29.7866

>  <SCORE.INTRA.POLAR>
0.1004

>  <SCORE.INTRA.POLAR.0>
-0.984091

>  <SCORE.INTRA.REPUL>
-0.273367

>  <SCORE.INTRA.REPUL.0>
0.274115

>  <SCORE.INTRA.SOLV>
-1.39584

>  <SCORE.INTRA.SOLV.lig_0>
-152.978

>  <SCORE.INTRA.VDW>
8.89807

>  <SCORE.INTRA.VDW.0>
-6.10719

>  <SCORE.INTRA.norm>
0.20724

>  <SCORE.RESTR>
1.31954

>  <SCORE.RESTR.CAVITY>
1.31954

>  <SCORE.RESTR.norm>
0.0314177

>  <SCORE.SYSTEM>
0

>  <SCORE.SYSTEM.CONST>
0

>  <SCORE.SYSTEM.DIHEDRAL>
0

>  <SCORE.SYSTEM.SOLV>
0

>  <SCORE.SYSTEM.norm>
0

>  <SCORE.heavy>
42

>  <SCORE.norm>
-0.781693

>  <RMSD>
8.085

$$$$
1pbr
 OpenBabel11021811403D
libRbt.so/2013.1/901 2013/11/27
 42 45  0  0  0  0  0  0  0  0999 V2000
    2.5692    0.6656   36.3735 C   0  0  2  0  0  0  0  0  0  0  0  0
    3.7199    0.7381   37.2531 O   0  0  0  0  0  0  0  0  0  0  0  0
    2.5476    1.8857   35.3790 C   0  0  2  0  0  0  0  0  0  0  0  0
    3.8757    2.2481   34.8194 N   0  3  0  0  0  0  0  0  0  0  0  0
    2.0026    3.1583   36.0543 C   0  0  1  0  0  0  0  0  0  0  0  0
    1.7411    4.1724   35.0866 O   0  0  0  0  0  0  0  0  0  0  0  0
    0.7170    2.8587   36.8400 C   0  0  2  0  0  0  0  0  0  0  0  0
    0.2044    4.0539   37.4205 O   0  0  0  0  0  0  0  0  0  0  0  0
    0.9616    1.7498   37.8873 C   0  0  2  0  0  0  0  0  0  0  0  0
    1.3499    0.5650   37.1601 O   0  0  0  0  0  0  0  0  0  0  0  0
   -0.2639    1.4024   38.7309 C   0  0  0  0  0  0  0  0  0  0  0  0
   -0.6803    2.5119   39.5157 O   0  0  0  0  0  0  0  0  0  0  0  0
    4.1761   -3.4969   37.5066 C   0  0  1  0  0  0  0  0  0  0  0  0
    4.5737   -4.8814   37.8212 N   0  3  0  0  0  0  0  0  0  0  0  0
    3.4649   -2.7999   38.7058 C   0  0  2  0  0  0  0  0  0  0  0  0
    2.2973   -3.5262   39.0824 O   0  0  0  0  0  0  0  0  0  0  0  0
    3.0438   -1.3452   38.3453 C   0  0  1  0  0  0  0  0  0  0  0  0
    2.5424   -0.6932   39.5497 O   0  0  0  0  0  0  0  0  0  0  0  0
    4.2345   -0.5157   37.7627 C   0  0  1  0  0  0  0  0  0  0  0  0
    4.9725   -1.2498   36.5978 C   0  0  1  0  0  0  0  0  0  0  0  0
    6.1527   -0.4868   36.1346 N   0  3  0  0  0  0  0  0  0  0  0  0
    5.4095   -2.6713   37.0370 C   0  0  0  0  0  0  0  0  0  0  0  0
    3.3448    0.3358   40.2123 C   0  0  1  0  0  0  0  0  0  0  0  0
    2.4482    1.0955   41.2077 C   0  0  2  0  0  0  0  0  0  0  0  0
    2.9444    2.4102   41.4434 O   0  0  0  0  0  0  0  0  0  0  0  0
    2.6178    0.1816   42.4308 C   0  0  1  0  0  0  0  0  0  0  0  0
    4.1083   -0.1142   42.4113 C   0  0  2  0  0  0  0  0  0  0  0  0
    4.3652   -0.2717   41.0243 O   0  0  0  0  0  0  0  0  0  0  0  0
    4.5349   -1.3722   43.1788 C   0  0  0  0  0  0  0  0  0  0  0  0
    4.7640   -1.0560   44.5440 O   0  0  0  0  0  0  0  0  0  0  0  0
   -1.1317   -1.0033   45.7857 C   0  0  1  0  0  0  0  0  0  0  0  0
   -0.3463   -1.6243   46.8017 O   0  0  0  0  0  0  0  0  0  0  0  0
   -0.9796    0.5401   45.8880 C   0  0  2  0  0  0  0  0  0  0  0  0
   -2.0290    1.1498   45.1399 O   0  0  0  0  0  0  0  0  0  0  0  0
    0.3891    1.1126   45.3933 C   0  0  1  0  0  0  0  0  0  0  0  0
    1.3943    1.0514   46.4772 N   0  3  0  0  0  0  0  0  0  0  0  0
    0.8682    0.4201   44.0904 C   0  0  1  0  0  0  0  0  0  0  0  0
    2.2240    0.7575   43.7067 O   0  0  0  0  0  0  0  0  0  0  0  0
   -0.6745   -1.4827   44.3850 C   0  0  1  0  0  0  0  0  0  0  0  0
    0.6944   -1.0336   44.1898 O   0  0  0  0  0  0  0  0  0  0  0  0
   -0.7898   -3.0047   44.1792 C   0  0  0  0  0  0  0  0  0  0  0  0
    0.2980   -3.7532   44.8386 N   0  3  0  0  0  0  0  0  0  0  0  0
  1  2  1  1  0  0  0
  1  3  1  0  0  0  0
  1 10  1  0  0  0  0
  3  4  1  1  0  0  0
  3  5  1  0  0  0  0
  5  6  1  6  0  0  0
  5  7  1  0  0  0  0
  7  8  1  1  0  0  0
  7  9  1  0  0  0  0
  9 10  1  0  0  0  0
  9 11  1  6  0  0  0
 11 12  1  0  0  0  0
 13 14  1  1  0  0  0
 13 15  1  0  0  0  0
 13 22  1  0  0  0  0
 15 16  1  6  0  0  0
 15 17  1  0  0  0  0
 17 18  1  1  0  0  0
 17 19  1  0  0  0  0
 19  2  1  6  0  0  0
 19 20  1  0  0  0  0
 20 21  1  1  0  0  0
 20 22  1  0  0  0  0
 23 18  1  1  0  0  0
 23 24  1  0  0  0  0
 23 28  1  0  0  0  0
 24 25  1  1  0  0  0
 24 26  1  0  0  0  0
 26 27  1  0  0  0  0
 26 38  1  1  0  0  0
 27 28  1  0  0  0  0
 27 29  1  1  0  0  0
 29 30  1  0  0  0  0
 31 32  1  1  0  0  0
 31 33  1  0  0  0  0
 31 39  1  0  0  0  0
 33 34  1  6  0  0  0
 33 35  1  0  0  0  0
 35 36  1  1  0  0  0
 35 37  1  0  0  0  0
 37 38  1  1  0  0  0
 37 40  1  0  0  0  0
 39 40  1  0  0  0  0
 39 41  1  1  0  0  0
 41 42  1  0  0  0  0
M  CHG  5   4   1  14   1  21   1  36   1  42   1
M  END
>  <CHROM.1>
-152.22937459,-49.45411842,69.52096813,176.28870882,-176.77540246,-63.35147516
-63.49755236,49.52615285,-168.92014891,107.30882252,165.48684615,117.11833683
-165.84164581,95.24253464,-87.05925371,-59.72154820,149.70255325,156.39935949
-45.64093795,-175.50629436,-77.28034296,157.26320474,2.11189393,-0.01956599
40.47021933,1.06943712,0.88032549,-1.01656558

>  <Name>
1pbr

>  <RI>
0

>  <Rbt.Current_Directory>
/home/itssahil/PROJECTS/Mol_Feturizer/New_Systems/rnas/1pbr

>  <Rbt.Executable>
rbdock ($Id: //depot/dev/client3/rdock/2013.1/src/exe/rbdock.cxx#4 $)

>  <Rbt.Library>
libRbt.so (2013.1, Build901 2013/11/27)

>  <Rbt.Parameter_File>
/export/apps/rDock/src/rDock_2013.1_src/data/scripts/dock_solv.prm

>  <Rbt.Receptor>
prm/pocket_docking_6.prm

>  <SCORE>
-47.5378

>  <SCORE.INTER>
-51.3539

>  <SCORE.INTER.CONST>
1

>  <SCORE.INTER.POLAR>
-7.43108

>  <SCORE.INTER.ROT>
9

>  <SCORE.INTER.SOLV>
30.8578

>  <SCORE.INTER.VDW>
-29.3516

>  <SCORE.INTER.norm>
-1.22271

>  <SCORE.INTRA>
3.8161

>  <SCORE.INTRA.DIHEDRAL>
3.26581

>  <SCORE.INTRA.DIHEDRAL.0>
29.7866

>  <SCORE.INTRA.POLAR>
0.315969

>  <SCORE.INTRA.POLAR.0>
-0.984091

>  <SCORE.INTRA.REPUL>
-0.274115

>  <SCORE.INTRA.REPUL.0>
0.274115

>  <SCORE.INTRA.SOLV>
0.349108

>  <SCORE.INTRA.SOLV.lig_0>
-152.978

>  <SCORE.INTRA.VDW>
2.30492

>  <SCORE.INTRA.VDW.0>
-6.10719

>  <SCORE.INTRA.norm>
0.0908595

>  <SCORE.RESTR>
0

>  <SCORE.RESTR.CAVITY>
0

>  <SCORE.RESTR.norm>
0

>  <SCORE.SYSTEM>
0

>  <SCORE.SYSTEM.CONST>
0

>  <SCORE.SYSTEM.DIHEDRAL>
0

>  <SCORE.SYSTEM.SOLV>
0

>  <SCORE.SYSTEM.norm>
0

>  <SCORE.heavy>
42

>  <SCORE.norm>
-1.13185

>  <RMSD>
8.087

$$$$
1pbr
 OpenBabel11021811403D
libRbt.so/2013.1/901 2013/11/27
 42 45  0  0  0  0  0  0  0  0999 V2000
    2.2382    2.3492   38.7781 C   0  0  2  0  0  0  0  0  0  0  0  0
    2.9138    1.1924   38.2225 O   0  0  0  0  0  0  0  0  0  0  0  0
    1.3534    1.9400   40.0142 C   0  0  2  0  0  0  0  0  0  0  0  0
    1.9882    0.9539   40.9269 N   0  3  0  0  0  0  0  0  0  0  0  0
    0.0147    1.3191   39.5727 C   0  0  1  0  0  0  0  0  0  0  0  0
   -0.8769    1.1995   40.6791 O   0  0  0  0  0  0  0  0  0  0  0  0
   -0.6477    2.1612   38.4718 C   0  0  2  0  0  0  0  0  0  0  0  0
   -1.9034    1.5964   38.1077 O   0  0  0  0  0  0  0  0  0  0  0  0
    0.3002    2.3251   37.2631 C   0  0  2  0  0  0  0  0  0  0  0  0
    1.4714    3.0207   37.7406 O   0  0  0  0  0  0  0  0  0  0  0  0
   -0.2889    3.1347   36.1092 C   0  0  0  0  0  0  0  0  0  0  0  0
    0.7331    3.7590   35.3435 O   0  0  0  0  0  0  0  0  0  0  0  0
    6.4577    0.7056   35.8963 C   0  0  1  0  0  0  0  0  0  0  0  0
    7.8137    0.7535   35.3193 N   0  3  0  0  0  0  0  0  0  0  0  0
    6.4306   -0.0078   37.2820 C   0  0  2  0  0  0  0  0  0  0  0  0
    6.9138   -1.3438   37.1634 O   0  0  0  0  0  0  0  0  0  0  0  0
    4.9877   -0.0570   37.8643 C   0  0  1  0  0  0  0  0  0  0  0  0
    5.0518   -0.5777   39.2250 O   0  0  0  0  0  0  0  0  0  0  0  0
    4.3111    1.3527   37.8787 C   0  0  1  0  0  0  0  0  0  0  0  0
    4.3937    2.0794   36.4981 C   0  0  1  0  0  0  0  0  0  0  0  0
    3.8350    3.4478   36.5689 N   0  3  0  0  0  0  0  0  0  0  0  0
    5.8604    2.1395   35.9988 C   0  0  0  0  0  0  0  0  0  0  0  0
    6.0341   -0.0411   40.1679 C   0  0  1  0  0  0  0  0  0  0  0  0
    5.2881    0.5062   41.3991 C   0  0  2  0  0  0  0  0  0  0  0  0
    6.0505    1.5174   42.0520 O   0  0  0  0  0  0  0  0  0  0  0  0
    5.2067   -0.7861   42.2257 C   0  0  1  0  0  0  0  0  0  0  0  0
    6.5960   -1.3751   42.0456 C   0  0  2  0  0  0  0  0  0  0  0  0
    6.8650   -1.0980   40.6798 O   0  0  0  0  0  0  0  0  0  0  0  0
    6.7073   -2.8811   42.3162 C   0  0  0  0  0  0  0  0  0  0  0  0
    6.4955   -3.1455   43.6951 O   0  0  0  0  0  0  0  0  0  0  0  0
    0.7876   -1.4201   44.6947 C   0  0  1  0  0  0  0  0  0  0  0  0
    1.0208   -2.7630   45.1154 O   0  0  0  0  0  0  0  0  0  0  0  0
    1.5683   -0.4468   45.6215 C   0  0  2  0  0  0  0  0  0  0  0  0
    1.0467    0.8677   45.4409 O   0  0  0  0  0  0  0  0  0  0  0  0
    3.1161   -0.4085   45.4011 C   0  0  1  0  0  0  0  0  0  0  0  0
    3.7718   -1.4907   46.1678 N   0  3  0  0  0  0  0  0  0  0  0  0
    3.4860   -0.4310   43.8946 C   0  0  1  0  0  0  0  0  0  0  0  0
    4.9000   -0.6128   43.6366 O   0  0  0  0  0  0  0  0  0  0  0  0
    1.2486   -1.2290   43.2278 C   0  0  1  0  0  0  0  0  0  0  0  0
    2.6868   -1.4375   43.1864 O   0  0  0  0  0  0  0  0  0  0  0  0
    0.5292   -2.1490   42.2238 C   0  0  0  0  0  0  0  0  0  0  0  0
    0.8700   -3.5730   42.4100 N   0  3  0  0  0  0  0  0  0  0  0  0
  1  2  1  6  0  0  0
  1  3  1  0  0  0  0
  1 10  1  0  0  0  0
  3  4  1  1  0  0  0
  3  5  1  0  0  0  0
  5  6  1  1  0  0  0
  5  7  1  0  0  0  0
  7  8  1  6  0  0  0
  7  9  1  0  0  0  0
  9 10  1  0  0  0  0
  9 11  1  6  0  0  0
 11 12  1  0  0  0  0
 13 14  1  1  0  0  0
 13 15  1  0  0  0  0
 13 22  1  0  0  0  0
 15 16  1  6  0  0  0
 15 17  1  0  0  0  0
 17 18  1  1  0  0  0
 17 19  1  0  0  0  0
 19  2  1  6  0  0  0
 19 20  1  0  0  0  0
 20 21  1  1  0  0  0
 20 22  1  0  0  0  0
 23 18  1  6  0  0  0
 23 24  1  0  0  0  0
 23 28  1  0  0  0  0
 24 25  1  1  0  0  0
 24 26  1  0  0  0  0
 26 27  1  0  0  0  0
 26 38  1  1  0  0  0
 27 28  1  0  0  0  0
 27 29  1  6  0  0  0
 29 30  1  0  0  0  0
 31 32  1  1  0  0  0
 31 33  1  0  0  0  0
 31 39  1  0  0  0  0
 33 34  1  6  0  0  0
 33 35  1  0  0  0  0
 35 36  1  1  0  0  0
 35 37  1  0  0  0  0
 37 38  1  1  0  0  0
 37 40  1  0  0  0  0
 39 40  1  0  0  0  0
 39 41  1  6  0  0  0
 41 42  1  0  0  0  0
M  CHG  5   4   1  14   1  21   1  36   1  42   1
M  END
>  <CHROM.1>
-135.72942540,157.28516888,-66.01340361,-55.39821770,55.80133637,153.49156734
-59.16400092,66.61183934,68.14634714,47.70203978,122.23524542,60.59673474
43.74536331,81.07893944,-67.47932258,-177.72711519,-50.13793971,-60.20880706
-10.29892001,173.29621809,-67.27126377,-69.53347312,3.27316248,0.24327614
40.41404837,1.52087488,0.27490885,-1.12803851

>  <Name>
1pbr

>  <RI>
0

>  <Rbt.Current_Directory>
/home/itssahil/PROJECTS/Mol_Feturizer/New_Systems/rnas/1pbr

>  <Rbt.Executable>
rbdock ($Id: //depot/dev/client3/rdock/2013.1/src/exe/rbdock.cxx#4 $)

>  <Rbt.Library>
libRbt.so (2013.1, Build901 2013/11/27)

>  <Rbt.Parameter_File>
/export/apps/rDock/src/rDock_2013.1_src/data/scripts/dock_solv.prm

>  <Rbt.Receptor>
prm/pocket_docking_4.prm

>  <SCORE>
-34.7811

>  <SCORE.INTER>
-35.6111

>  <SCORE.INTER.CONST>
1

>  <SCORE.INTER.POLAR>
-4.10322

>  <SCORE.INTER.ROT>
9

>  <SCORE.INTER.SOLV>
20.6512

>  <SCORE.INTER.VDW>
-26.547

>  <SCORE.INTER.norm>
-0.847883

>  <SCORE.INTRA>
0.829926

>  <SCORE.INTRA.DIHEDRAL>
-2.39666

>  <SCORE.INTRA.DIHEDRAL.0>
29.7866

>  <SCORE.INTRA.POLAR>
-0.757232

>  <SCORE.INTRA.POLAR.0>
-0.984091

>  <SCORE.INTRA.REPUL>
-0.274115

>  <SCORE.INTRA.REPUL.0>
0.274115

>  <SCORE.INTRA.SOLV>
10.498

>  <SCORE.INTRA.SOLV.lig_0>
-152.978

>  <SCORE.INTRA.VDW>
0.724422

>  <SCORE.INTRA.VDW.0>
-6.10719

>  <SCORE.INTRA.norm>
0.0197601

>  <SCORE.RESTR>
0

>  <SCORE.RESTR.CAVITY>
0

>  <SCORE.RESTR.norm>
0

>  <SCORE.SYSTEM>
0

>  <SCORE.SYSTEM.CONST>
0

>  <SCORE.SYSTEM.DIHEDRAL>
0

>  <SCORE.SYSTEM.SOLV>
0

>  <SCORE.SYSTEM.norm>
0

>  <SCORE.heavy>
42

>  <SCORE.norm>
-0.828123

>  <RMSD>
8.113

$$$$
1pbr
 OpenBabel11021811403D
libRbt.so/2013.1/901 2013/11/27
 42 45  0  0  0  0  0  0  0  0999 V2000
    5.5351   -1.1036   37.8747 C   0  0  2  0  0  0  0  0  0  0  0  0
    4.2833   -1.8343   37.9212 O   0  0  0  0  0  0  0  0  0  0  0  0
    6.6713   -1.8924   38.6265 C   0  0  2  0  0  0  0  0  0  0  0  0
    6.6692   -3.3582   38.3821 N   0  3  0  0  0  0  0  0  0  0  0  0
    6.5741   -1.7097   40.1529 C   0  0  1  0  0  0  0  0  0  0  0  0
    7.7470   -2.2022   40.7972 O   0  0  0  0  0  0  0  0  0  0  0  0
    6.3721   -0.2319   40.5200 C   0  0  2  0  0  0  0  0  0  0  0  0
    6.3284   -0.0772   41.9351 O   0  0  0  0  0  0  0  0  0  0  0  0
    5.1169    0.3385   39.8233 C   0  0  2  0  0  0  0  0  0  0  0  0
    5.3451    0.2387   38.4016 O   0  0  0  0  0  0  0  0  0  0  0  0
    4.8284    1.8026   40.1509 C   0  0  0  0  0  0  0  0  0  0  0  0
    4.8194    2.6014   38.9752 O   0  0  0  0  0  0  0  0  0  0  0  0
    1.9863    1.2482   36.0692 C   0  0  1  0  0  0  0  0  0  0  0  0
    0.9913    2.0550   35.3391 N   0  3  0  0  0  0  0  0  0  0  0  0
    1.4045    0.6382   37.3803 C   0  0  2  0  0  0  0  0  0  0  0  0
    0.9428    1.6712   38.2476 O   0  0  0  0  0  0  0  0  0  0  0  0
    2.4764   -0.1978   38.1390 C   0  0  1  0  0  0  0  0  0  0  0  0
    1.8320   -0.8773   39.2571 O   0  0  0  0  0  0  0  0  0  0  0  0
    3.1608   -1.2556   37.2128 C   0  0  1  0  0  0  0  0  0  0  0  0
    3.6908   -0.6407   35.8780 C   0  0  1  0  0  0  0  0  0  0  0  0
    4.2425   -1.6803   34.9810 N   0  3  0  0  0  0  0  0  0  0  0  0
    2.5637    0.1343   35.1476 C   0  0  0  0  0  0  0  0  0  0  0  0
    1.1255   -0.0999   40.2761 C   0  0  1  0  0  0  0  0  0  0  0  0
    0.6088   -1.0632   41.3611 C   0  0  2  0  0  0  0  0  0  0  0  0
   -0.5243   -0.5187   42.0317 O   0  0  0  0  0  0  0  0  0  0  0  0
    1.8535   -1.1032   42.2604 C   0  0  1  0  0  0  0  0  0  0  0  0
    2.2731    0.3569   42.2998 C   0  0  2  0  0  0  0  0  0  0  0  0
    2.0402    0.7726   40.9628 O   0  0  0  0  0  0  0  0  0  0  0  0
    3.7361    0.6062   42.6886 C   0  0  0  0  0  0  0  0  0  0  0  0
    3.8472    0.7581   44.0960 O   0  0  0  0  0  0  0  0  0  0  0  0
    3.9135   -4.5350   45.8407 C   0  0  1  0  0  0  0  0  0  0  0  0
    2.7856   -5.0935   46.5120 O   0  0  0  0  0  0  0  0  0  0  0  0
    3.7765   -4.7793   44.3119 C   0  0  2  0  0  0  0  0  0  0  0  0
    5.0471   -4.5634   43.7025 O   0  0  0  0  0  0  0  0  0  0  0  0
    2.7126   -3.8932   43.5846 C   0  0  1  0  0  0  0  0  0  0  0  0
    1.3710   -4.5076   43.6924 N   0  3  0  0  0  0  0  0  0  0  0  0
    2.7428   -2.4254   44.0861 C   0  0  1  0  0  0  0  0  0  0  0  0
    1.6426   -1.6146   43.6053 O   0  0  0  0  0  0  0  0  0  0  0  0
    4.0068   -3.0141   46.1216 C   0  0  1  0  0  0  0  0  0  0  0  0
    2.8262   -2.3865   45.5506 O   0  0  0  0  0  0  0  0  0  0  0  0
    4.1496   -2.6638   47.6146 C   0  0  0  0  0  0  0  0  0  0  0  0
    4.1481   -1.2086   47.8614 N   0  3  0  0  0  0  0  0  0  0  0  0
  1  2  1  1  0  0  0
  1  3  1  0  0  0  0
  1 10  1  0  0  0  0
  3  4  1  1  0  0  0
  3  5  1  0  0  0  0
  5  6  1  1  0  0  0
  5  7  1  0  0  0  0
  7  8  1  1  0  0  0
  7  9  1  0  0  0  0
  9 10  1  0  0  0  0
  9 11  1  1  0  0  0
 11 12  1  0  0  0  0
 13 14  1  6  0  0  0
 13 15  1  0  0  0  0
 13 22  1  0  0  0  0
 15 16  1  1  0  0  0
 15 17  1  0  0  0  0
 17 18  1  1  0  0  0
 17 19  1  0  0  0  0
 19  2  1  1  0  0  0
 19 20  1  0  0  0  0
 20 21  1  6  0  0  0
 20 22  1  0  0  0  0
 23 18  1  6  0  0  0
 23 24  1  0  0  0  0
 23 28  1  0  0  0  0
 24 25  1  1  0  0  0
 24 26  1  0  0  0  0
 26 27  1  0  0  0  0
 26 38  1  1  0  0  0
 27 28  1  0  0  0  0
 27 29  1  6  0  0  0
 29 30  1  0  0  0  0
 31 32  1  1  0  0  0
 31 33  1  0  0  0  0
 31 39  1  0  0  0  0
 33 34  1  6  0  0  0
 33 35  1  0  0  0  0
 35 36  1  1  0  0  0
 35 37  1  0  0  0  0
 37 38  1  1  0  0  0
 37 40  1  0  0  0  0
 39 40  1  0  0  0  0
 39 41  1  1  0  0  0
 41 42  1  0  0  0  0
M  CHG  5   4   1  14   1  21   1  36   1  42   1
M  END
>  <CHROM.1>
-177.15032646,-83.97644057,73.40843650,-71.06256035,173.12792496,120.93481892
-66.57468104,-165.77267392,71.77954852,-57.75400217,-177.25310315,-153.24762942
-58.59839054,142.08997556,-90.26764673,-63.13639138,174.58258113,54.57870848
-39.61208380,-81.52655706,-176.27273118,78.69643299,3.51910753,-1.12248128
40.97566885,-1.58869147,-0.41321931,1.92917455

>  <Name>
1pbr

>  <RI>
0

>  <Rbt.Current_Directory>
/home/itssahil/PROJECTS/Mol_Feturizer/New_Systems/rnas/1pbr

>  <Rbt.Executable>
rbdock ($Id: //depot/dev/client3/rdock/2013.1/src/exe/rbdock.cxx#4 $)

>  <Rbt.Library>
libRbt.so (2013.1, Build901 2013/11/27)

>  <Rbt.Parameter_File>
/export/apps/rDock/src/rDock_2013.1_src/data/scripts/dock_solv.prm

>  <Rbt.Receptor>
prm/pocket_docking_4.prm

>  <SCORE>
-28.3491

>  <SCORE.INTER>
-31.0208

>  <SCORE.INTER.CONST>
1

>  <SCORE.INTER.POLAR>
-5.15406

>  <SCORE.INTER.ROT>
9

>  <SCORE.INTER.SOLV>
25.5952

>  <SCORE.INTER.VDW>
-21.6321

>  <SCORE.INTER.norm>
-0.738591

>  <SCORE.INTRA>
2.47824

>  <SCORE.INTRA.DIHEDRAL>
-5.30862

>  <SCORE.INTRA.DIHEDRAL.0>
29.7866

>  <SCORE.INTRA.POLAR>
0.980089

>  <SCORE.INTRA.POLAR.0>
-0.984091

>  <SCORE.INTRA.REPUL>
-0.274115

>  <SCORE.INTRA.REPUL.0>
0.274115

>  <SCORE.INTRA.SOLV>
-1.05896

>  <SCORE.INTRA.SOLV.lig_0>
-152.978

>  <SCORE.INTRA.VDW>
3.7003

>  <SCORE.INTRA.VDW.0>
-6.10719

>  <SCORE.INTRA.norm>
0.0590058

>  <SCORE.RESTR>
0.193529

>  <SCORE.RESTR.CAVITY>
0.193529

>  <SCORE.RESTR.norm>
0.00460783

>  <SCORE.SYSTEM>
0

>  <SCORE.SYSTEM.CONST>
0

>  <SCORE.SYSTEM.DIHEDRAL>
0

>  <SCORE.SYSTEM.SOLV>
0

>  <SCORE.SYSTEM.norm>
0

>  <SCORE.heavy>
42

>  <SCORE.norm>
-0.674978

>  <RMSD>
8.137

$$$$
1pbr
 OpenBabel11021811403D
libRbt.so/2013.1/901 2013/11/27
 42 45  0  0  0  0  0  0  0  0999 V2000
    1.7760    1.1714   36.4463 C   0  0  2  0  0  0  0  0  0  0  0  0
    3.0070    1.4976   37.1400 O   0  0  0  0  0  0  0  0  0  0  0  0
    1.2960    2.3809   35.5603 C   0  0  2  0  0  0  0  0  0  0  0  0
    2.3850    3.0803   34.8302 N   0  3  0  0  0  0  0  0  0  0  0  0
    0.5838    3.4548   36.4042 C   0  0  1  0  0  0  0  0  0  0  0  0
   -0.0718    4.4043   35.5664 O   0  0  0  0  0  0  0  0  0  0  0  0
   -0.4416    2.8190   37.3551 C   0  0  2  0  0  0  0  0  0  0  0  0
   -1.1201    3.8292   38.0949 O   0  0  0  0  0  0  0  0  0  0  0  0
    0.2340    1.7708   38.2668 C   0  0  2  0  0  0  0  0  0  0  0  0
    0.7665    0.7448   37.4025 O   0  0  0  0  0  0  0  0  0  0  0  0
   -0.7128    1.1017   39.2619 C   0  0  0  0  0  0  0  0  0  0  0  0
   -1.4248    2.0672   40.0244 O   0  0  0  0  0  0  0  0  0  0  0  0
    4.5710   -2.4658   36.9093 C   0  0  1  0  0  0  0  0  0  0  0  0
    5.3498   -3.7112   37.0372 N   0  3  0  0  0  0  0  0  0  0  0  0
    3.8625   -2.0730   38.2410 C   0  0  2  0  0  0  0  0  0  0  0  0
    2.9802   -3.1114   38.6603 O   0  0  0  0  0  0  0  0  0  0  0  0
    3.0372   -0.7632   38.0772 C   0  0  1  0  0  0  0  0  0  0  0  0
    2.5418   -0.3576   39.3876 O   0  0  0  0  0  0  0  0  0  0  0  0
    3.8888    0.3952   37.4622 C   0  0  1  0  0  0  0  0  0  0  0  0
    4.6370   -0.0284   36.1578 C   0  0  1  0  0  0  0  0  0  0  0  0
    5.5108    1.0548   35.6553 N   0  3  0  0  0  0  0  0  0  0  0  0
    5.4788   -1.3077   36.4013 C   0  0  0  0  0  0  0  0  0  0  0  0
    3.0218    0.8823   39.9991 C   0  0  1  0  0  0  0  0  0  0  0  0
    2.0816    1.2556   41.1605 C   0  0  2  0  0  0  0  0  0  0  0  0
    2.1115    2.6575   41.4131 O   0  0  0  0  0  0  0  0  0  0  0  0
    2.7517    0.4478   42.2822 C   0  0  1  0  0  0  0  0  0  0  0  0
    4.2281    0.7081   42.0328 C   0  0  2  0  0  0  0  0  0  0  0  0
    4.3043    0.6718   40.6159 O   0  0  0  0  0  0  0  0  0  0  0  0
    5.1858   -0.3223   42.6448 C   0  0  0  0  0  0  0  0  0  0  0  0
    6.5318    0.0524   42.3910 O   0  0  0  0  0  0  0  0  0  0  0  0
   -1.0666   -1.0169   45.4749 C   0  0  1  0  0  0  0  0  0  0  0  0
   -0.3206   -1.7750   46.4255 O   0  0  0  0  0  0  0  0  0  0  0  0
   -0.8579    0.4991   45.7468 C   0  0  2  0  0  0  0  0  0  0  0  0
   -1.8721    1.2271   45.0585 O   0  0  0  0  0  0  0  0  0  0  0  0
    0.5387    1.0679   45.3325 C   0  0  1  0  0  0  0  0  0  0  0  0
    1.5244    0.8498   46.4141 N   0  3  0  0  0  0  0  0  0  0  0  0
    1.0109    0.5029   43.9670 C   0  0  1  0  0  0  0  0  0  0  0  0
    2.3841    0.8267   43.6372 O   0  0  0  0  0  0  0  0  0  0  0  0
   -0.6068   -1.3588   44.0353 C   0  0  1  0  0  0  0  0  0  0  0  0
    0.7809   -0.9451   43.9052 O   0  0  0  0  0  0  0  0  0  0  0  0
   -0.7764   -2.8436   43.6632 C   0  0  0  0  0  0  0  0  0  0  0  0
   -1.3575   -3.6432   44.7593 N   0  3  0  0  0  0  0  0  0  0  0  0
  1  2  1  1  0  0  0
  1  3  1  0  0  0  0
  1 10  1  0  0  0  0
  3  4  1  1  0  0  0
  3  5  1  0  0  0  0
  5  6  1  6  0  0  0
  5  7  1  0  0  0  0
  7  8  1  1  0  0  0
  7  9  1  0  0  0  0
  9 10  1  0  0  0  0
  9 11  1  1  0  0  0
 11 12  1  0  0  0  0
 13 14  1  1  0  0  0
 13 15  1  0  0  0  0
 13 22  1  0  0  0  0
 15 16  1  6  0  0  0
 15 17  1  0  0  0  0
 17 18  1  1  0  0  0
 17 19  1  0  0  0  0
 19  2  1  6  0  0  0
 19 20  1  0  0  0  0
 20 21  1  1  0  0  0
 20 22  1  0  0  0  0
 23 18  1  1  0  0  0
 23 24  1  0  0  0  0
 23 28  1  0  0  0  0
 24 25  1  1  0  0  0
 24 26  1  0  0  0  0
 26 27  1  0  0  0  0
 26 38  1  1  0  0  0
 27 28  1  0  0  0  0
 27 29  1  1  0  0  0
 29 30  1  0  0  0  0
 31 32  1  1  0  0  0
 31 33  1  0  0  0  0
 31 39  1  0  0  0  0
 33 34  1  6  0  0  0
 33 35  1  0  0  0  0
 35 36  1  1  0  0  0
 35 37  1  0  0  0  0
 37 38  1  1  0  0  0
 37 40  1  0  0  0  0
 39 40  1  0  0  0  0
 39 41  1  1  0  0  0
 41 42  1  0  0  0  0
M  CHG  5   4   1  14   1  21   1  36   1  42   1
M  END
>  <CHROM.1>
-151.85930464,-46.15990323,44.75658163,174.05959937,71.75408785,-52.94932124
-104.21032359,-128.87877479,73.88990410,114.11855600,164.89904268,72.51492207
-117.46933163,68.76488351,-177.75722876,74.38892175,58.36776694,81.87751771
74.17048839,-172.12761815,0.46884754,-41.44801917,1.84447551,0.38200048,40.29864209
1.18144077,0.61467742,-1.15944944

>  <Name>
1pbr

>  <RI>
0

>  <Rbt.Current_Directory>
/home/itssahil/PROJECTS/Mol_Feturizer/New_Systems/rnas/1pbr

>  <Rbt.Executable>
rbdock ($Id: //depot/dev/client3/rdock/2013.1/src/exe/rbdock.cxx#4 $)

>  <Rbt.Library>
libRbt.so (2013.1, Build901 2013/11/27)

>  <Rbt.Parameter_File>
/export/apps/rDock/src/rDock_2013.1_src/data/scripts/dock_solv.prm

>  <Rbt.Receptor>
prm/blind_docking_100.prm

>  <SCORE>
-45.6847

>  <SCORE.INTER>
-59.7651

>  <SCORE.INTER.CONST>
1

>  <SCORE.INTER.POLAR>
-9.27916

>  <SCORE.INTER.ROT>
9

>  <SCORE.INTER.SOLV>
34.0551

>  <SCORE.INTER.VDW>
-29.8646

>  <SCORE.INTER.norm>
-1.42298

>  <SCORE.INTRA>
11.1549

>  <SCORE.INTRA.DIHEDRAL>
12.3737

>  <SCORE.INTRA.DIHEDRAL.0>
29.7866

>  <SCORE.INTRA.POLAR>
0.334748

>  <SCORE.INTRA.POLAR.0>
-0.984091

>  <SCORE.INTRA.REPUL>
-0.274115

>  <SCORE.INTRA.REPUL.0>
0.274115

>  <SCORE.INTRA.SOLV>
1.13306

>  <SCORE.INTRA.SOLV.lig_0>
-152.978

>  <SCORE.INTRA.VDW>
4.634

>  <SCORE.INTRA.VDW.0>
-6.10719

>  <SCORE.INTRA.norm>
0.265594

>  <SCORE.RESTR>
2.92549

>  <SCORE.RESTR.CAVITY>
2.92549

>  <SCORE.RESTR.norm>
0.0696546

>  <SCORE.SYSTEM>
0

>  <SCORE.SYSTEM.CONST>
0

>  <SCORE.SYSTEM.DIHEDRAL>
0

>  <SCORE.SYSTEM.SOLV>
0

>  <SCORE.SYSTEM.norm>
0

>  <SCORE.heavy>
42

>  <SCORE.norm>
-1.08773

>  <RMSD>
8.141

$$$$
1pbr
 OpenBabel11021811403D
libRbt.so/2013.1/901 2013/11/27
 42 45  0  0  0  0  0  0  0  0999 V2000
    2.0426    2.1995   37.1693 C   0  0  2  0  0  0  0  0  0  0  0  0
    3.0139    2.0433   38.2347 O   0  0  0  0  0  0  0  0  0  0  0  0
    2.0025    3.6896   36.6630 C   0  0  2  0  0  0  0  0  0  0  0  0
    3.3356    4.3345   36.5393 N   0  3  0  0  0  0  0  0  0  0  0  0
    1.1756    4.5862   37.6038 C   0  0  1  0  0  0  0  0  0  0  0  0
    0.9272    5.8558   37.0041 O   0  0  0  0  0  0  0  0  0  0  0  0
   -0.1615    3.9219   37.9652 C   0  0  2  0  0  0  0  0  0  0  0  0
   -0.9302    4.7831   38.7992 O   0  0  0  0  0  0  0  0  0  0  0  0
    0.0715    2.5341   38.6026 C   0  0  2  0  0  0  0  0  0  0  0  0
    0.7410    1.7253   37.6121 O   0  0  0  0  0  0  0  0  0  0  0  0
   -1.2092    1.8094   39.0131 C   0  0  0  0  0  0  0  0  0  0  0  0
   -1.1084    1.2936   40.3339 O   0  0  0  0  0  0  0  0  0  0  0  0
    4.5757   -1.5939   36.6411 C   0  0  1  0  0  0  0  0  0  0  0  0
    5.3332   -2.8248   36.3497 N   0  3  0  0  0  0  0  0  0  0  0  0
    3.7443   -1.7092   37.9545 C   0  0  2  0  0  0  0  0  0  0  0  0
    2.8212   -2.7920   37.8657 O   0  0  0  0  0  0  0  0  0  0  0  0
    2.9442   -0.4032   38.2336 C   0  0  1  0  0  0  0  0  0  0  0  0
    2.3270   -0.5073   39.5509 O   0  0  0  0  0  0  0  0  0  0  0  0
    3.8559    0.8663   38.1857 C   0  0  1  0  0  0  0  0  0  0  0  0
    4.7241    0.9412   36.8890 C   0  0  1  0  0  0  0  0  0  0  0  0
    5.6469    2.0976   36.9177 N   0  3  0  0  0  0  0  0  0  0  0  0
    5.5331   -0.3676   36.6964 C   0  0  0  0  0  0  0  0  0  0  0  0
    2.3078    0.6526   40.4431 C   0  0  1  0  0  0  0  0  0  0  0  0
    1.6333    0.2457   41.7666 C   0  0  2  0  0  0  0  0  0  0  0  0
    1.0660    1.3770   42.4212 O   0  0  0  0  0  0  0  0  0  0  0  0
    2.8643   -0.2984   42.5071 C   0  0  1  0  0  0  0  0  0  0  0  0
    3.9277    0.7343   42.1724 C   0  0  2  0  0  0  0  0  0  0  0  0
    3.6484    1.0227   40.8109 O   0  0  0  0  0  0  0  0  0  0  0  0
    5.3766    0.2549   42.3295 C   0  0  0  0  0  0  0  0  0  0  0  0
    6.2744    1.2697   41.9049 O   0  0  0  0  0  0  0  0  0  0  0  0
   -0.7962   -0.6555   46.4508 C   0  0  1  0  0  0  0  0  0  0  0  0
   -0.0861   -0.9590   47.6501 O   0  0  0  0  0  0  0  0  0  0  0  0
   -0.3816    0.7561   45.9496 C   0  0  2  0  0  0  0  0  0  0  0  0
   -1.3427    1.1984   44.9939 O   0  0  0  0  0  0  0  0  0  0  0  0
    1.0427    0.8484   45.3104 C   0  0  1  0  0  0  0  0  0  0  0  0
    2.0665    1.0406   46.3610 N   0  3  0  0  0  0  0  0  0  0  0  0
    1.3443   -0.3658   44.3931 C   0  0  1  0  0  0  0  0  0  0  0  0
    2.7207   -0.4412   43.9471 O   0  0  0  0  0  0  0  0  0  0  0  0
   -0.4842   -1.7108   45.3601 C   0  0  1  0  0  0  0  0  0  0  0  0
    0.9317   -1.6143   45.0447 O   0  0  0  0  0  0  0  0  0  0  0  0
   -0.8632   -3.1494   45.7586 C   0  0  0  0  0  0  0  0  0  0  0  0
   -1.0231   -4.0405   44.5929 N   0  3  0  0  0  0  0  0  0  0  0  0
  1  2  1  1  0  0  0
  1  3  1  0  0  0  0
  1 10  1  0  0  0  0
  3  4  1  1  0  0  0
  3  5  1  0  0  0  0
  5  6  1  6  0  0  0
  5  7  1  0  0  0  0
  7  8  1  1  0  0  0
  7  9  1  0  0  0  0
  9 10  1  0  0  0  0
  9 11  1  6  0  0  0
 11 12  1  0  0  0  0
 13 14  1  1  0  0  0
 13 15  1  0  0  0  0
 13 22  1  0  0  0  0
 15 16  1  6  0  0  0
 15 17  1  0  0  0  0
 17 18  1  1  0  0  0
 17 19  1  0  0  0  0
 19  2  1  6  0  0  0
 19 20  1  0  0  0  0
 20 21  1  1  0  0  0
 20 22  1  0  0  0  0
 23 18  1  6  0  0  0
 23 24  1  0  0  0  0
 23 28  1  0  0  0  0
 24 25  1  1  0  0  0
 24 26  1  0  0  0  0
 26 27  1  0  0  0  0
 26 38  1  1  0  0  0
 27 28  1  0  0  0  0
 27 29  1  6  0  0  0
 29 30  1  0  0  0  0
 31 32  1  1  0  0  0
 31 33  1  0  0  0  0
 31 39  1  0  0  0  0
 33 34  1  6  0  0  0
 33 35  1  0  0  0  0
 35 36  1  1  0  0  0
 35 37  1  0  0  0  0
 37 38  1  1  0  0  0
 37 40  1  0  0  0  0
 39 40  1  0  0  0  0
 39 41  1  1  0  0  0
 41 42  1  0  0  0  0
M  CHG  5   4   1  14   1  21   1  36   1  42   1
M  END
>  <CHROM.1>
-137.29494835,-59.79313419,-151.97776527,-79.68424051,57.50117266,-132.23474460
66.52063493,57.21988450,68.70554421,139.18980542,-178.49895227,146.25849600
-73.19870672,14.64353553,176.09133717,-177.38374063,54.17686825,56.65608673
61.09884715,-115.95860404,159.30375089,-68.73309180,1.94682820,0.69376853
40.75879351,1.12758877,0.75379981,-0.94629600

>  <Name>
1pbr

>  <RI>
0

>  <Rbt.Current_Directory>
/home/itssahil/PROJECTS/Mol_Feturizer/New_Systems/rnas/1pbr

>  <Rbt.Executable>
rbdock ($Id: //depot/dev/client3/rdock/2013.1/src/exe/rbdock.cxx#4 $)

>  <Rbt.Library>
libRbt.so (2013.1, Build901 2013/11/27)

>  <Rbt.Parameter_File>
/export/apps/rDock/src/rDock_2013.1_src/data/scripts/dock_solv.prm

>  <Rbt.Receptor>
prm/blind_docking_100.prm

>  <SCORE>
-41.8142

>  <SCORE.INTER>
-57.7048

>  <SCORE.INTER.CONST>
1

>  <SCORE.INTER.POLAR>
-9.14822

>  <SCORE.INTER.ROT>
9

>  <SCORE.INTER.SOLV>
40.5622

>  <SCORE.INTER.VDW>
-31.0965

>  <SCORE.INTER.norm>
-1.37392

>  <SCORE.INTRA>
15.135

>  <SCORE.INTRA.DIHEDRAL>
9.04949

>  <SCORE.INTRA.DIHEDRAL.0>
29.7866

>  <SCORE.INTRA.POLAR>
0.899292

>  <SCORE.INTRA.POLAR.0>
-0.984091

>  <SCORE.INTRA.REPUL>
-0.0724147

>  <SCORE.INTRA.REPUL.0>
0.274115

>  <SCORE.INTRA.SOLV>
2.43332

>  <SCORE.INTRA.SOLV.lig_0>
-152.978

>  <SCORE.INTRA.VDW>
6.69805

>  <SCORE.INTRA.VDW.0>
-6.10719

>  <SCORE.INTRA.norm>
0.360357

>  <SCORE.RESTR>
0.755612

>  <SCORE.RESTR.CAVITY>
0.755612

>  <SCORE.RESTR.norm>
0.0179908

>  <SCORE.SYSTEM>
0

>  <SCORE.SYSTEM.CONST>
0

>  <SCORE.SYSTEM.DIHEDRAL>
0

>  <SCORE.SYSTEM.SOLV>
0

>  <SCORE.SYSTEM.norm>
0

>  <SCORE.heavy>
42

>  <SCORE.norm>
-0.995577

>  <RMSD>
8.141

$$$$
1pbr
 OpenBabel11021811403D
libRbt.so/2013.1/901 2013/11/27
 42 45  0  0  0  0  0  0  0  0999 V2000
    3.3421    0.7084   36.9190 C   0  0  2  0  0  0  0  0  0  0  0  0
    4.5162    1.0779   37.6859 O   0  0  0  0  0  0  0  0  0  0  0  0
    3.0261    1.7931   35.8226 C   0  0  2  0  0  0  0  0  0  0  0  0
    4.2224    2.3256   35.1199 N   0  3  0  0  0  0  0  0  0  0  0  0
    2.3007    3.0120   36.4231 C   0  0  1  0  0  0  0  0  0  0  0  0
    1.7898    3.8551   35.3928 O   0  0  0  0  0  0  0  0  0  0  0  0
    1.1499    2.5724   37.3407 C   0  0  2  0  0  0  0  0  0  0  0  0
    0.4642    3.7114   37.8515 O   0  0  0  0  0  0  0  0  0  0  0  0
    1.6673    1.6420   38.4601 C   0  0  2  0  0  0  0  0  0  0  0  0
    2.2192    0.4755   37.8135 O   0  0  0  0  0  0  0  0  0  0  0  0
    0.5881    1.1725   39.4343 C   0  0  0  0  0  0  0  0  0  0  0  0
   -0.2069    2.2608   39.8859 O   0  0  0  0  0  0  0  0  0  0  0  0
    5.6432   -2.9553   38.5051 C   0  0  1  0  0  0  0  0  0  0  0  0
    6.2624   -4.2022   38.9909 N   0  3  0  0  0  0  0  0  0  0  0  0
    4.8585   -2.2098   39.6268 C   0  0  2  0  0  0  0  0  0  0  0  0
    3.8297   -3.0445   40.1534 O   0  0  0  0  0  0  0  0  0  0  0  0
    4.2040   -0.9045   39.0869 C   0  0  1  0  0  0  0  0  0  0  0  0
    3.6336   -0.1701   40.2104 O   0  0  0  0  0  0  0  0  0  0  0  0
    5.2345    0.0049   38.3411 C   0  0  1  0  0  0  0  0  0  0  0  0
    6.0524   -0.7678   37.2572 C   0  0  1  0  0  0  0  0  0  0  0  0
    7.0858    0.0923   36.6392 N   0  3  0  0  0  0  0  0  0  0  0  0
    6.7191   -2.0267   37.8697 C   0  0  0  0  0  0  0  0  0  0  0  0
    4.4989    0.2942   41.2955 C   0  0  1  0  0  0  0  0  0  0  0  0
    3.6561    1.1343   42.2733 C   0  0  2  0  0  0  0  0  0  0  0  0
    4.4705    2.0624   42.9843 O   0  0  0  0  0  0  0  0  0  0  0  0
    3.1370    0.0049   43.1759 C   0  0  1  0  0  0  0  0  0  0  0  0
    4.3758   -0.8547   43.3658 C   0  0  2  0  0  0  0  0  0  0  0  0
    4.9653   -0.8213   42.0751 O   0  0  0  0  0  0  0  0  0  0  0  0
    4.1065   -2.3038   43.7916 C   0  0  0  0  0  0  0  0  0  0  0  0
    3.0781   -2.8646   42.9889 O   0  0  0  0  0  0  0  0  0  0  0  0
   -1.1963   -1.3131   45.5875 C   0  0  1  0  0  0  0  0  0  0  0  0
   -0.6403   -2.2796   46.4772 O   0  0  0  0  0  0  0  0  0  0  0  0
   -0.8953    0.1143   46.1238 C   0  0  2  0  0  0  0  0  0  0  0  0
   -1.7514    1.0391   45.4571 O   0  0  0  0  0  0  0  0  0  0  0  0
    0.5849    0.5925   45.9619 C   0  0  1  0  0  0  0  0  0  0  0  0
    1.4074    0.1123   47.0941 N   0  3  0  0  0  0  0  0  0  0  0  0
    1.1727    0.1958   44.5821 C   0  0  1  0  0  0  0  0  0  0  0  0
    2.5985    0.4226   44.4606 O   0  0  0  0  0  0  0  0  0  0  0  0
   -0.5927   -1.4779   44.1700 C   0  0  1  0  0  0  0  0  0  0  0  0
    0.8305   -1.1945   44.2606 O   0  0  0  0  0  0  0  0  0  0  0  0
   -0.8400   -2.8635   43.5448 C   0  0  0  0  0  0  0  0  0  0  0  0
   -0.3994   -3.9695   44.4173 N   0  3  0  0  0  0  0  0  0  0  0  0
  1  2  1  1  0  0  0
  1  3  1  0  0  0  0
  1 10  1  0  0  0  0
  3  4  1  1  0  0  0
  3  5  1  0  0  0  0
  5  6  1  6  0  0  0
  5  7  1  0  0  0  0
  7  8  1  1  0  0  0
  7  9  1  0  0  0  0
  9 10  1  0  0  0  0
  9 11  1  1  0  0  0
 11 12  1  0  0  0  0
 13 14  1  1  0  0  0
 13 15  1  0  0  0  0
 13 22  1  0  0  0  0
 15 16  1  6  0  0  0
 15 17  1  0  0  0  0
 17 18  1  1  0  0  0
 17 19  1  0  0  0  0
 19  2  1  6  0  0  0
 19 20  1  0  0  0  0
 20 21  1  1  0  0  0
 20 22  1  0  0  0  0
 23 18  1  6  0  0  0
 23 24  1  0  0  0  0
 23 28  1  0  0  0  0
 24 25  1  1  0  0  0
 24 26  1  0  0  0  0
 26 27  1  0  0  0  0
 26 38  1  1  0  0  0
 27 28  1  0  0  0  0
 27 29  1  6  0  0  0
 29 30  1  0  0  0  0
 31 32  1  1  0  0  0
 31 33  1  0  0  0  0
 31 39  1  0  0  0  0
 33 34  1  6  0  0  0
 33 35  1  0  0  0  0
 35 36  1  1  0  0  0
 35 37  1  0  0  0  0
 37 38  1  1  0  0  0
 37 40  1  0  0  0  0
 39 40  1  0  0  0  0
 39 41  1  1  0  0  0
 41 42  1  0  0  0  0
M  CHG  5   4   1  14   1  21   1  36   1  42   1
M  END
>  <CHROM.1>
-156.50292680,-47.21161190,-166.16722015,-65.86080827,-65.39024516,-48.14709151
-170.47754039,-56.73558168,168.03608367,60.88559844,175.22785292,162.74096997
-54.09332037,113.20510533,46.61362543,-66.49946272,-69.89502574,-175.10329410
171.66705028,178.15336298,-53.55964963,173.48502229,2.63736179,-0.13181112
40.94712902,1.03851230,0.65086051,-1.00200861

>  <Name>
1pbr

>  <RI>
0

>  <Rbt.Current_Directory>
/home/itssahil/PROJECTS/Mol_Feturizer/New_Systems/rnas/1pbr

>  <Rbt.Executable>
rbdock ($Id: //depot/dev/client3/rdock/2013.1/src/exe/rbdock.cxx#4 $)

>  <Rbt.Library>
libRbt.so (2013.1, Build901 2013/11/27)

>  <Rbt.Parameter_File>
/export/apps/rDock/src/rDock_2013.1_src/data/scripts/dock_solv.prm

>  <Rbt.Receptor>
prm/pocket_docking_2.prm

>  <SCORE>
-48.992

>  <SCORE.INTER>
-45.0313

>  <SCORE.INTER.CONST>
1

>  <SCORE.INTER.POLAR>
-6.57778

>  <SCORE.INTER.ROT>
9

>  <SCORE.INTER.SOLV>
22.8693

>  <SCORE.INTER.VDW>
-25.3181

>  <SCORE.INTER.norm>
-1.07217

>  <SCORE.INTRA>
-7.81474

>  <SCORE.INTRA.DIHEDRAL>
-13.423

>  <SCORE.INTRA.DIHEDRAL.0>
29.7866

>  <SCORE.INTRA.POLAR>
-1.26381

>  <SCORE.INTRA.POLAR.0>
-0.984091

>  <SCORE.INTRA.REPUL>
-0.269436

>  <SCORE.INTRA.REPUL.0>
0.274115

>  <SCORE.INTRA.SOLV>
4.05567

>  <SCORE.INTRA.SOLV.lig_0>
-152.978

>  <SCORE.INTRA.VDW>
2.51308

>  <SCORE.INTRA.VDW.0>
-6.10719

>  <SCORE.INTRA.norm>
-0.186065

>  <SCORE.RESTR>
3.85411

>  <SCORE.RESTR.CAVITY>
3.85411

>  <SCORE.RESTR.norm>
0.0917645

>  <SCORE.SYSTEM>
0

>  <SCORE.SYSTEM.CONST>
0

>  <SCORE.SYSTEM.DIHEDRAL>
0

>  <SCORE.SYSTEM.SOLV>
0

>  <SCORE.SYSTEM.norm>
0

>  <SCORE.heavy>
42

>  <SCORE.norm>
-1.16648

>  <RMSD>
8.143

$$$$
1pbr
 OpenBabel11021811403D
libRbt.so/2013.1/901 2013/11/27
 42 45  0  0  0  0  0  0  0  0999 V2000
    3.9862    0.0162   38.4007 C   0  0  2  0  0  0  0  0  0  0  0  0
    3.7770   -0.5858   37.0980 O   0  0  0  0  0  0  0  0  0  0  0  0
    2.8255   -0.3741   39.3900 C   0  0  2  0  0  0  0  0  0  0  0  0
    2.3895   -1.7919   39.2998 N   0  3  0  0  0  0  0  0  0  0  0  0
    1.5661    0.4802   39.1521 C   0  0  1  0  0  0  0  0  0  0  0  0
    0.6281    0.3049   40.2116 O   0  0  0  0  0  0  0  0  0  0  0  0
    1.9243    1.9688   39.0283 C   0  0  2  0  0  0  0  0  0  0  0  0
    0.7444    2.7467   38.8526 O   0  0  0  0  0  0  0  0  0  0  0  0
    2.9539    2.1919   37.8984 C   0  0  2  0  0  0  0  0  0  0  0  0
    4.1410    1.4557   38.2620 O   0  0  0  0  0  0  0  0  0  0  0  0
    3.3519    3.6524   37.6919 C   0  0  0  0  0  0  0  0  0  0  0  0
    4.7526    3.7804   37.4863 O   0  0  0  0  0  0  0  0  0  0  0  0
    7.7927   -0.0212   35.7701 C   0  0  1  0  0  0  0  0  0  0  0  0
    9.0482    0.1017   35.0068 N   0  3  0  0  0  0  0  0  0  0  0  0
    6.7797    1.1126   35.4269 C   0  0  2  0  0  0  0  0  0  0  0  0
    7.3491    2.3897   35.7050 O   0  0  0  0  0  0  0  0  0  0  0  0
    5.4686    0.9686   36.2539 C   0  0  1  0  0  0  0  0  0  0  0  0
    4.5022    1.9477   35.7696 O   0  0  0  0  0  0  0  0  0  0  0  0
    4.8564   -0.4658   36.1404 C   0  0  1  0  0  0  0  0  0  0  0  0
    5.8964   -1.5942   36.4334 C   0  0  1  0  0  0  0  0  0  0  0  0
    5.3154   -2.9384   36.2214 N   0  3  0  0  0  0  0  0  0  0  0  0
    7.1544   -1.4229   35.5432 C   0  0  0  0  0  0  0  0  0  0  0  0
    3.5863    1.5959   34.6838 C   0  0  1  0  0  0  0  0  0  0  0  0
    2.2228    1.2174   35.2919 C   0  0  2  0  0  0  0  0  0  0  0  0
    1.5009    0.3450   34.4271 O   0  0  0  0  0  0  0  0  0  0  0  0
    1.5939    2.6172   35.3633 C   0  0  1  0  0  0  0  0  0  0  0  0
    1.9892    3.2197   34.0253 C   0  0  2  0  0  0  0  0  0  0  0  0
    3.3177    2.7468   33.8636 O   0  0  0  0  0  0  0  0  0  0  0  0
    1.9576    4.7523   33.9640 C   0  0  0  0  0  0  0  0  0  0  0  0
    2.4647    5.2990   35.1724 O   0  0  0  0  0  0  0  0  0  0  0  0
   -1.9735    6.3586   36.1886 C   0  0  1  0  0  0  0  0  0  0  0  0
   -2.7807    6.2560   35.0170 O   0  0  0  0  0  0  0  0  0  0  0  0
   -2.3087    5.1843   37.1500 C   0  0  2  0  0  0  0  0  0  0  0  0
   -1.7916    5.4941   38.4419 O   0  0  0  0  0  0  0  0  0  0  0  0
   -1.7650    3.7846   36.7129 C   0  0  1  0  0  0  0  0  0  0  0  0
   -2.7057    3.1384   35.7714 N   0  3  0  0  0  0  0  0  0  0  0  0
   -0.3214    3.8749   36.1519 C   0  0  1  0  0  0  0  0  0  0  0  0
    0.1505    2.6509   35.5367 O   0  0  0  0  0  0  0  0  0  0  0  0
   -0.4713    6.3140   35.8115 C   0  0  1  0  0  0  0  0  0  0  0  0
   -0.2009    5.0095   35.2292 O   0  0  0  0  0  0  0  0  0  0  0  0
   -0.0339    7.4435   34.8603 C   0  0  0  0  0  0  0  0  0  0  0  0
    1.3979    7.7771   34.9917 N   0  3  0  0  0  0  0  0  0  0  0  0
  1  2  1  6  0  0  0
  1  3  1  0  0  0  0
  1 10  1  0  0  0  0
  3  4  1  6  0  0  0
  3  5  1  0  0  0  0
  5  6  1  1  0  0  0
  5  7  1  0  0  0  0
  7  8  1  6  0  0  0
  7  9  1  0  0  0  0
  9 10  1  0  0  0  0
  9 11  1  1  0  0  0
 11 12  1  0  0  0  0
 13 14  1  6  0  0  0
 13 15  1  0  0  0  0
 13 22  1  0  0  0  0
 15 16  1  1  0  0  0
 15 17  1  0  0  0  0
 17 18  1  6  0  0  0
 17 19  1  0  0  0  0
 19  2  1  1  0  0  0
 19 20  1  0  0  0  0
 20 21  1  6  0  0  0
 20 22  1  0  0  0  0
 23 18  1  1  0  0  0
 23 24  1  0  0  0  0
 23 28  1  0  0  0  0
 24 25  1  6  0  0  0
 24 26  1  0  0  0  0
 26 27  1  0  0  0  0
 26 38  1  6  0  0  0
 27 28  1  0  0  0  0
 27 29  1  1  0  0  0
 29 30  1  0  0  0  0
 31 32  1  6  0  0  0
 31 33  1  0  0  0  0
 31 39  1  0  0  0  0
 33 34  1  1  0  0  0
 33 35  1  0  0  0  0
 35 36  1  6  0  0  0
 35 37  1  0  0  0  0
 37 38  1  6  0  0  0
 37 40  1  0  0  0  0
 39 40  1  0  0  0  0
 39 41  1  6  0  0  0
 41 42  1  0  0  0  0
M  CHG  5   4   1  14   1  21   1  36   1  42   1
M  END
>  <CHROM.1>
-171.77249786,-40.02736171,-66.63474111,-47.24520228,170.79895818,137.51419485
-170.98246838,84.09829095,-161.22734819,89.68937297,99.15135981,165.08270162
177.78718161,155.22988023,40.11385200,72.09530903,54.75678305,7.71102300
155.96697220,-163.51853691,153.66776607,-151.11999525,2.43864649,2.37488612
36.42181388,0.57450195,-0.41327328,2.51292963

>  <Name>
1pbr

>  <RI>
0

>  <Rbt.Current_Directory>
/home/itssahil/PROJECTS/Mol_Feturizer/New_Systems/rnas/1pbr

>  <Rbt.Executable>
rbdock ($Id: //depot/dev/client3/rdock/2013.1/src/exe/rbdock.cxx#4 $)

>  <Rbt.Library>
libRbt.so (2013.1, Build901 2013/11/27)

>  <Rbt.Parameter_File>
/export/apps/rDock/src/rDock_2013.1_src/data/scripts/dock_solv.prm

>  <Rbt.Receptor>
prm/blind_docking_40.prm

>  <SCORE>
19.657

>  <SCORE.INTER>
-2.2628

>  <SCORE.INTER.CONST>
1

>  <SCORE.INTER.POLAR>
-6.34149

>  <SCORE.INTER.ROT>
9

>  <SCORE.INTER.SOLV>
39.364

>  <SCORE.INTER.VDW>
-3.09157

>  <SCORE.INTER.norm>
-0.0538762

>  <SCORE.INTRA>
18.4267

>  <SCORE.INTRA.DIHEDRAL>
9.31813

>  <SCORE.INTRA.DIHEDRAL.0>
29.7866

>  <SCORE.INTRA.POLAR>
0.638357

>  <SCORE.INTRA.POLAR.0>
-0.984091

>  <SCORE.INTRA.REPUL>
-0.274115

>  <SCORE.INTRA.REPUL.0>
0.274115

>  <SCORE.INTRA.SOLV>
4.4103

>  <SCORE.INTRA.SOLV.lig_0>
-152.978

>  <SCORE.INTRA.VDW>
10.7626

>  <SCORE.INTRA.VDW.0>
-6.10719

>  <SCORE.INTRA.norm>
0.43873

>  <SCORE.RESTR>
3.49314

>  <SCORE.RESTR.CAVITY>
3.49314

>  <SCORE.RESTR.norm>
0.08317

>  <SCORE.SYSTEM>
0

>  <SCORE.SYSTEM.CONST>
0

>  <SCORE.SYSTEM.DIHEDRAL>
0

>  <SCORE.SYSTEM.SOLV>
0

>  <SCORE.SYSTEM.norm>
0

>  <SCORE.heavy>
42

>  <SCORE.norm>
0.468024

>  <RMSD>
8.148

$$$$
1pbr
 OpenBabel11021811403D
libRbt.so/2013.1/901 2013/11/27
 42 45  0  0  0  0  0  0  0  0999 V2000
    3.5387   -1.7989   39.2661 C   0  0  2  0  0  0  0  0  0  0  0  0
    3.7793   -1.9480   37.8437 O   0  0  0  0  0  0  0  0  0  0  0  0
    4.8635   -2.0300   40.0845 C   0  0  2  0  0  0  0  0  0  0  0  0
    6.0762   -1.4210   39.4789 N   0  3  0  0  0  0  0  0  0  0  0  0
    5.1722   -3.5298   40.2524 C   0  0  1  0  0  0  0  0  0  0  0  0
    6.2122   -3.7286   41.2074 O   0  0  0  0  0  0  0  0  0  0  0  0
    3.9208   -4.3050   40.6914 C   0  0  2  0  0  0  0  0  0  0  0  0
    4.2355   -5.6806   40.8835 O   0  0  0  0  0  0  0  0  0  0  0  0
    2.7670   -4.0968   39.6854 C   0  0  2  0  0  0  0  0  0  0  0  0
    2.4636   -2.6856   39.6822 O   0  0  0  0  0  0  0  0  0  0  0  0
    1.4858   -4.8518   40.0354 C   0  0  0  0  0  0  0  0  0  0  0  0
    0.3557   -4.2723   39.3969 O   0  0  0  0  0  0  0  0  0  0  0  0
    3.0122    1.6732   35.7208 C   0  0  1  0  0  0  0  0  0  0  0  0
    2.4937    2.7443   34.8503 N   0  3  0  0  0  0  0  0  0  0  0  0
    2.0239    1.3184   36.8728 C   0  0  2  0  0  0  0  0  0  0  0  0
    1.7676    2.4657   37.6795 O   0  0  0  0  0  0  0  0  0  0  0  0
    2.5986    0.1951   37.7847 C   0  0  1  0  0  0  0  0  0  0  0  0
    1.5666   -0.2092   38.7327 O   0  0  0  0  0  0  0  0  0  0  0  0
    3.0643   -1.0499   36.9612 C   0  0  1  0  0  0  0  0  0  0  0  0
    4.0106   -0.6742   35.7763 C   0  0  1  0  0  0  0  0  0  0  0  0
    4.3538   -1.8578   34.9573 N   0  3  0  0  0  0  0  0  0  0  0  0
    3.3596    0.4103   34.8794 C   0  0  0  0  0  0  0  0  0  0  0  0
    1.0875    0.7382   39.7401 C   0  0  1  0  0  0  0  0  0  0  0  0
    0.1879   -0.0155   40.7375 C   0  0  2  0  0  0  0  0  0  0  0  0
   -0.7421    0.8683   41.3572 O   0  0  0  0  0  0  0  0  0  0  0  0
    1.2678   -0.5029   41.7153 C   0  0  1  0  0  0  0  0  0  0  0  0
    2.1550    0.7228   41.8570 C   0  0  2  0  0  0  0  0  0  0  0  0
    2.1862    1.2261   40.5301 O   0  0  0  0  0  0  0  0  0  0  0  0
    3.5790    0.4447   42.3554 C   0  0  0  0  0  0  0  0  0  0  0  0
    3.5355   -0.2909   43.5692 O   0  0  0  0  0  0  0  0  0  0  0  0
    0.3585   -4.8938   44.7170 C   0  0  1  0  0  0  0  0  0  0  0  0
   -0.0978   -4.4401   45.9900 O   0  0  0  0  0  0  0  0  0  0  0  0
   -0.6716   -4.4885   43.6259 C   0  0  2  0  0  0  0  0  0  0  0  0
   -0.4093   -5.2498   42.4494 O   0  0  0  0  0  0  0  0  0  0  0  0
   -0.6869   -2.9706   43.2498 C   0  0  1  0  0  0  0  0  0  0  0  0
   -1.5480   -2.2169   44.1876 N   0  3  0  0  0  0  0  0  0  0  0  0
    0.7465   -2.3858   43.1488 C   0  0  1  0  0  0  0  0  0  0  0  0
    0.7876   -0.9437   43.0152 O   0  0  0  0  0  0  0  0  0  0  0  0
    1.7398   -4.2733   44.3891 C   0  0  1  0  0  0  0  0  0  0  0  0
    1.5632   -2.8341   44.2825 O   0  0  0  0  0  0  0  0  0  0  0  0
    2.8372   -4.6195   45.4127 C   0  0  0  0  0  0  0  0  0  0  0  0
    2.6178   -5.9259   46.0637 N   0  3  0  0  0  0  0  0  0  0  0  0
  1  2  1  6  0  0  0
  1  3  1  0  0  0  0
  1 10  1  0  0  0  0
  3  4  1  6  0  0  0
  3  5  1  0  0  0  0
  5  6  1  1  0  0  0
  5  7  1  0  0  0  0
  7  8  1  6  0  0  0
  7  9  1  0  0  0  0
  9 10  1  0  0  0  0
  9 11  1  1  0  0  0
 11 12  1  0  0  0  0
 13 14  1  6  0  0  0
 13 15  1  0  0  0  0
 13 22  1  0  0  0  0
 15 16  1  1  0  0  0
 15 17  1  0  0  0  0
 17 18  1  1  0  0  0
 17 19  1  0  0  0  0
 19  2  1  1  0  0  0
 19 20  1  0  0  0  0
 20 21  1  6  0  0  0
 20 22  1  0  0  0  0
 23 18  1  6  0  0  0
 23 24  1  0  0  0  0
 23 28  1  0  0  0  0
 24 25  1  1  0  0  0
 24 26  1  0  0  0  0
 26 27  1  0  0  0  0
 26 38  1  1  0  0  0
 27 28  1  0  0  0  0
 27 29  1  6  0  0  0
 29 30  1  0  0  0  0
 31 32  1  1  0  0  0
 31 33  1  0  0  0  0
 31 39  1  0  0  0  0
 33 34  1  6  0  0  0
 33 35  1  0  0  0  0
 35 36  1  1  0  0  0
 35 37  1  0  0  0  0
 37 38  1  1  0  0  0
 37 40  1  0  0  0  0
 39 40  1  0  0  0  0
 39 41  1  1  0  0  0
 41 42  1  0  0  0  0
M  CHG  5   4   1  14   1  21   1  36   1  42   1
M  END
>  <CHROM.1>
-142.65750343,20.34114426,-54.05465265,-170.66291072,67.85124273,158.81793554
69.64185871,161.85766956,70.92993899,-65.19143428,-170.71406478,-179.39812091
47.46030011,102.83468174,-53.77702579,-55.44589807,-69.44707113,179.40268737
-74.95017000,-112.20308645,29.17145844,153.33874224,2.22508763,-1.85674282
40.62518244,-1.25678966,-0.76044759,2.33337826

>  <Name>
1pbr

>  <RI>
0

>  <Rbt.Current_Directory>
/home/itssahil/PROJECTS/Mol_Feturizer/New_Systems/rnas/1pbr

>  <Rbt.Executable>
rbdock ($Id: //depot/dev/client3/rdock/2013.1/src/exe/rbdock.cxx#4 $)

>  <Rbt.Library>
libRbt.so (2013.1, Build901 2013/11/27)

>  <Rbt.Parameter_File>
/export/apps/rDock/src/rDock_2013.1_src/data/scripts/dock_solv.prm

>  <Rbt.Receptor>
prm/pocket_docking_5.prm

>  <SCORE>
-31.2016

>  <SCORE.INTER>
-37.8901

>  <SCORE.INTER.CONST>
1

>  <SCORE.INTER.POLAR>
-6.52235

>  <SCORE.INTER.ROT>
9

>  <SCORE.INTER.SOLV>
28.4838

>  <SCORE.INTER.VDW>
-22.6135

>  <SCORE.INTER.norm>
-0.902145

>  <SCORE.INTRA>
6.68851

>  <SCORE.INTRA.DIHEDRAL>
4.68126

>  <SCORE.INTRA.DIHEDRAL.0>
29.7866

>  <SCORE.INTRA.POLAR>
0.914921

>  <SCORE.INTRA.POLAR.0>
-0.984091

>  <SCORE.INTRA.REPUL>
-0.25518

>  <SCORE.INTRA.REPUL.0>
0.274115

>  <SCORE.INTRA.SOLV>
-0.42179

>  <SCORE.INTRA.SOLV.lig_0>
-152.978

>  <SCORE.INTRA.VDW>
2.72394

>  <SCORE.INTRA.VDW.0>
-6.10719

>  <SCORE.INTRA.norm>
0.15925

>  <SCORE.RESTR>
0

>  <SCORE.RESTR.CAVITY>
0

>  <SCORE.RESTR.norm>
0

>  <SCORE.SYSTEM>
0

>  <SCORE.SYSTEM.CONST>
0

>  <SCORE.SYSTEM.DIHEDRAL>
0

>  <SCORE.SYSTEM.SOLV>
0

>  <SCORE.SYSTEM.norm>
0

>  <SCORE.heavy>
42

>  <SCORE.norm>
-0.742894

>  <RMSD>
8.158

$$$$
1pbr
 OpenBabel11021811403D
libRbt.so/2013.1/901 2013/11/27
 42 45  0  0  0  0  0  0  0  0999 V2000
    4.7453    0.3266   37.6419 C   0  0  2  0  0  0  0  0  0  0  0  0
    5.2621    0.0026   38.9576 O   0  0  0  0  0  0  0  0  0  0  0  0
    4.4325   -0.9828   36.8258 C   0  0  2  0  0  0  0  0  0  0  0  0
    3.7922   -2.0646   37.6183 N   0  3  0  0  0  0  0  0  0  0  0  0
    5.7105   -1.5917   36.2188 C   0  0  1  0  0  0  0  0  0  0  0  0
    5.3868   -2.6106   35.2752 O   0  0  0  0  0  0  0  0  0  0  0  0
    6.5638   -0.5137   35.5335 C   0  0  2  0  0  0  0  0  0  0  0  0
    7.7178   -1.1014   34.9411 O   0  0  0  0  0  0  0  0  0  0  0  0
    6.9182    0.6163   36.5256 C   0  0  2  0  0  0  0  0  0  0  0  0
    5.6717    1.2081   36.9490 O   0  0  0  0  0  0  0  0  0  0  0  0
    7.7859    1.7241   35.9306 C   0  0  0  0  0  0  0  0  0  0  0  0
    9.0122    1.2062   35.4321 O   0  0  0  0  0  0  0  0  0  0  0  0
    2.6364    0.1511   42.3179 C   0  0  1  0  0  0  0  0  0  0  0  0
    1.8623    0.5122   43.5197 N   0  3  0  0  0  0  0  0  0  0  0  0
    2.2249    0.9963   41.0745 C   0  0  2  0  0  0  0  0  0  0  0  0
    0.8405    0.8155   40.7859 O   0  0  0  0  0  0  0  0  0  0  0  0
    3.0464    0.5882   39.8166 C   0  0  1  0  0  0  0  0  0  0  0  0
    2.7410    1.5209   38.7378 O   0  0  0  0  0  0  0  0  0  0  0  0
    4.5857    0.5974   40.0913 C   0  0  1  0  0  0  0  0  0  0  0  0
    4.9784   -0.2079   41.3712 C   0  0  1  0  0  0  0  0  0  0  0  0
    6.4254   -0.0986   41.6606 N   0  3  0  0  0  0  0  0  0  0  0  0
    4.1627    0.2804   42.5961 C   0  0  0  0  0  0  0  0  0  0  0  0
    1.6178    1.2557   37.8379 C   0  0  1  0  0  0  0  0  0  0  0  0
    0.4886    2.2552   38.1506 C   0  0  2  0  0  0  0  0  0  0  0  0
   -0.7800    1.7303   37.7694 O   0  0  0  0  0  0  0  0  0  0  0  0
    0.9347    3.4137   37.2458 C   0  0  1  0  0  0  0  0  0  0  0  0
    1.3432    2.6925   35.9720 C   0  0  2  0  0  0  0  0  0  0  0  0
    1.9910    1.5348   36.4769 O   0  0  0  0  0  0  0  0  0  0  0  0
    2.2899    3.4751   35.0528 C   0  0  0  0  0  0  0  0  0  0  0  0
    2.7974    2.6230   34.0367 O   0  0  0  0  0  0  0  0  0  0  0  0
    0.3046    7.7638   34.2539 C   0  0  1  0  0  0  0  0  0  0  0  0
   -1.0062    7.6392   33.7052 O   0  0  0  0  0  0  0  0  0  0  0  0
    0.1998    8.1014   35.7674 C   0  0  2  0  0  0  0  0  0  0  0  0
    1.4649    8.5851   36.2128 O   0  0  0  0  0  0  0  0  0  0  0  0
   -0.2387    6.9167   36.6892 C   0  0  1  0  0  0  0  0  0  0  0  0
   -1.7140    6.8099   36.7227 N   0  3  0  0  0  0  0  0  0  0  0  0
    0.4506    5.5862   36.2876 C   0  0  1  0  0  0  0  0  0  0  0  0
   -0.0773    4.4197   36.9657 O   0  0  0  0  0  0  0  0  0  0  0  0
    1.0936    6.4438   34.0653 C   0  0  1  0  0  0  0  0  0  0  0  0
    0.4152    5.4108   34.8312 O   0  0  0  0  0  0  0  0  0  0  0  0
    1.2575    6.0206   32.5935 C   0  0  0  0  0  0  0  0  0  0  0  0
    2.3175    5.0109   32.4053 N   0  3  0  0  0  0  0  0  0  0  0  0
  1  2  1  1  0  0  0
  1  3  1  0  0  0  0
  1 10  1  0  0  0  0
  3  4  1  1  0  0  0
  3  5  1  0  0  0  0
  5  6  1  6  0  0  0
  5  7  1  0  0  0  0
  7  8  1  1  0  0  0
  7  9  1  0  0  0  0
  9 10  1  0  0  0  0
  9 11  1  6  0  0  0
 11 12  1  0  0  0  0
 13 14  1  1  0  0  0
 13 15  1  0  0  0  0
 13 22  1  0  0  0  0
 15 16  1  6  0  0  0
 15 17  1  0  0  0  0
 17 18  1  6  0  0  0
 17 19  1  0  0  0  0
 19  2  1  6  0  0  0
 19 20  1  0  0  0  0
 20 21  1  1  0  0  0
 20 22  1  0  0  0  0
 23 18  1  1  0  0  0
 23 24  1  0  0  0  0
 23 28  1  0  0  0  0
 24 25  1  6  0  0  0
 24 26  1  0  0  0  0
 26 27  1  0  0  0  0
 26 38  1  6  0  0  0
 27 28  1  0  0  0  0
 27 29  1  1  0  0  0
 29 30  1  0  0  0  0
 31 32  1  1  0  0  0
 31 33  1  0  0  0  0
 31 39  1  0  0  0  0
 33 34  1  1  0  0  0
 33 35  1  0  0  0  0
 35 36  1  6  0  0  0
 35 37  1  0  0  0  0
 37 38  1  1  0  0  0
 37 40  1  0  0  0  0
 39 40  1  0  0  0  0
 39 41  1  6  0  0  0
 41 42  1  0  0  0  0
M  CHG  5   4   1  14   1  21   1  36   1  42   1
M  END
>  <CHROM.1>
-126.34202258,39.34880011,-39.69539177,175.42568871,-68.21647676,-58.62185700
-63.75627439,-48.57738871,-56.14407799,-88.58452311,108.35240933,55.60869087
-64.82104308,170.90511137,169.11514359,-57.85348567,69.32243386,-66.70728936
72.00024625,-145.55331135,163.26560199,78.32671976,2.90255353,2.34512624
37.18501820,-0.79537713,0.68227614,-1.05374388

>  <Name>
1pbr

>  <RI>
0

>  <Rbt.Current_Directory>
/home/itssahil/PROJECTS/Mol_Feturizer/New_Systems/rnas/1pbr

>  <Rbt.Executable>
rbdock ($Id: //depot/dev/client3/rdock/2013.1/src/exe/rbdock.cxx#4 $)

>  <Rbt.Library>
libRbt.so (2013.1, Build901 2013/11/27)

>  <Rbt.Parameter_File>
/export/apps/rDock/src/rDock_2013.1_src/data/scripts/dock_solv.prm

>  <Rbt.Receptor>
prm/blind_docking_60.prm

>  <SCORE>
-27.3968

>  <SCORE.INTER>
-32.2265

>  <SCORE.INTER.CONST>
1

>  <SCORE.INTER.POLAR>
-4.21983

>  <SCORE.INTER.ROT>
9

>  <SCORE.INTER.SOLV>
26.0401

>  <SCORE.INTER.VDW>
-25.6983

>  <SCORE.INTER.norm>
-0.767298

>  <SCORE.INTRA>
3.43367

>  <SCORE.INTRA.DIHEDRAL>
-0.515099

>  <SCORE.INTRA.DIHEDRAL.0>
29.7866

>  <SCORE.INTRA.POLAR>
0.17942

>  <SCORE.INTRA.POLAR.0>
-0.984091

>  <SCORE.INTRA.REPUL>
-0.274115

>  <SCORE.INTRA.REPUL.0>
0.274115

>  <SCORE.INTRA.SOLV>
0.144351

>  <SCORE.INTRA.SOLV.lig_0>
-152.978

>  <SCORE.INTRA.VDW>
4.37959

>  <SCORE.INTRA.VDW.0>
-6.10719

>  <SCORE.INTRA.norm>
0.081754

>  <SCORE.RESTR>
1.396

>  <SCORE.RESTR.CAVITY>
1.396

>  <SCORE.RESTR.norm>
0.0332382

>  <SCORE.SYSTEM>
0

>  <SCORE.SYSTEM.CONST>
0

>  <SCORE.SYSTEM.DIHEDRAL>
0

>  <SCORE.SYSTEM.SOLV>
0

>  <SCORE.SYSTEM.norm>
0

>  <SCORE.heavy>
42

>  <SCORE.norm>
-0.652306

>  <RMSD>
8.165

$$$$
1pbr
 OpenBabel11021811403D
libRbt.so/2013.1/901 2013/11/27
 42 45  0  0  0  0  0  0  0  0999 V2000
    5.8289   -0.9238   40.6502 C   0  0  2  0  0  0  0  0  0  0  0  0
    6.3539   -0.1766   39.5236 O   0  0  0  0  0  0  0  0  0  0  0  0
    6.3552   -0.3294   42.0096 C   0  0  2  0  0  0  0  0  0  0  0  0
    6.3816    1.1554   42.0638 N   0  3  0  0  0  0  0  0  0  0  0  0
    7.7905   -0.7975   42.3155 C   0  0  1  0  0  0  0  0  0  0  0  0
    8.1532   -0.4744   43.6561 O   0  0  0  0  0  0  0  0  0  0  0  0
    7.9354   -2.3112   42.0979 C   0  0  2  0  0  0  0  0  0  0  0  0
    9.2554   -2.7322   42.4272 O   0  0  0  0  0  0  0  0  0  0  0  0
    7.5328   -2.6981   40.6576 C   0  0  2  0  0  0  0  0  0  0  0  0
    6.1448   -2.3354   40.4988 O   0  0  0  0  0  0  0  0  0  0  0  0
    7.6672   -4.1880   40.3475 C   0  0  0  0  0  0  0  0  0  0  0  0
    9.0140   -4.6225   40.4812 O   0  0  0  0  0  0  0  0  0  0  0  0
    4.6829    1.6110   36.0278 C   0  0  1  0  0  0  0  0  0  0  0  0
    3.9587    1.9247   34.7824 N   0  3  0  0  0  0  0  0  0  0  0  0
    3.7196    1.4128   37.2371 C   0  0  2  0  0  0  0  0  0  0  0  0
    2.9450    2.5898   37.4544 O   0  0  0  0  0  0  0  0  0  0  0  0
    4.5079    1.0955   38.5416 C   0  0  1  0  0  0  0  0  0  0  0  0
    3.5542    0.7545   39.5910 O   0  0  0  0  0  0  0  0  0  0  0  0
    5.5128   -0.0869   38.3484 C   0  0  1  0  0  0  0  0  0  0  0  0
    6.4352    0.0985   37.1012 C   0  0  1  0  0  0  0  0  0  0  0  0
    7.3047   -1.0795   36.8872 N   0  3  0  0  0  0  0  0  0  0  0  0
    5.5883    0.3603   35.8289 C   0  0  0  0  0  0  0  0  0  0  0  0
    2.4358   -0.1432   39.2993 C   0  0  1  0  0  0  0  0  0  0  0  0
    1.8702   -0.6748   40.6296 C   0  0  2  0  0  0  0  0  0  0  0  0
    1.2199   -1.9290   40.4446 O   0  0  0  0  0  0  0  0  0  0  0  0
    0.8769    0.4558   40.9380 C   0  0  1  0  0  0  0  0  0  0  0  0
    0.2415    0.7094   39.5810 C   0  0  2  0  0  0  0  0  0  0  0  0
    1.3501    0.5882   38.7029 O   0  0  0  0  0  0  0  0  0  0  0  0
   -0.4214    2.0831   39.4164 C   0  0  0  0  0  0  0  0  0  0  0  0
   -0.8942    2.2398   38.0866 O   0  0  0  0  0  0  0  0  0  0  0  0
    0.1663   -0.9153   46.1108 C   0  0  1  0  0  0  0  0  0  0  0  0
   -1.2139   -1.2409   46.2651 O   0  0  0  0  0  0  0  0  0  0  0  0
    0.8159   -1.8937   45.0928 C   0  0  2  0  0  0  0  0  0  0  0  0
    2.2330   -1.8100   45.2243 O   0  0  0  0  0  0  0  0  0  0  0  0
    0.4346   -1.6530   43.5953 C   0  0  1  0  0  0  0  0  0  0  0  0
   -0.8380   -2.3350   43.2725 N   0  3  0  0  0  0  0  0  0  0  0  0
    0.4135   -0.1430   43.2399 C   0  0  1  0  0  0  0  0  0  0  0  0
   -0.1386    0.1480   41.9324 O   0  0  0  0  0  0  0  0  0  0  0  0
    0.3214    0.5421   45.6084 C   0  0  1  0  0  0  0  0  0  0  0  0
   -0.2778    0.6193   44.2860 O   0  0  0  0  0  0  0  0  0  0  0  0
   -0.2891    1.5949   46.5523 C   0  0  0  0  0  0  0  0  0  0  0  0
   -1.7642    1.6141   46.5070 N   0  3  0  0  0  0  0  0  0  0  0  0
  1  2  1  6  0  0  0
  1  3  1  0  0  0  0
  1 10  1  0  0  0  0
  3  4  1  6  0  0  0
  3  5  1  0  0  0  0
  5  6  1  1  0  0  0
  5  7  1  0  0  0  0
  7  8  1  6  0  0  0
  7  9  1  0  0  0  0
  9 10  1  0  0  0  0
  9 11  1  1  0  0  0
 11 12  1  0  0  0  0
 13 14  1  6  0  0  0
 13 15  1  0  0  0  0
 13 22  1  0  0  0  0
 15 16  1  1  0  0  0
 15 17  1  0  0  0  0
 17 18  1  1  0  0  0
 17 19  1  0  0  0  0
 19  2  1  1  0  0  0
 19 20  1  0  0  0  0
 20 21  1  6  0  0  0
 20 22  1  0  0  0  0
 23 18  1  1  0  0  0
 23 24  1  0  0  0  0
 23 28  1  0  0  0  0
 24 25  1  6  0  0  0
 24 26  1  0  0  0  0
 26 27  1  0  0  0  0
 26 38  1  1  0  0  0
 27 28  1  0  0  0  0
 27 29  1  1  0  0  0
 29 30  1  0  0  0  0
 31 32  1  6  0  0  0
 31 33  1  0  0  0  0
 31 39  1  0  0  0  0
 33 34  1  6  0  0  0
 33 35  1  0  0  0  0
 35 36  1  1  0  0  0
 35 37  1  0  0  0  0
 37 38  1  6  0  0  0
 37 40  1  0  0  0  0
 39 40  1  0  0  0  0
 39 41  1  1  0  0  0
 41 42  1  0  0  0  0
M  CHG  5   4   1  14   1  21   1  36   1  42   1
M  END
>  <CHROM.1>
-148.51815163,84.32052519,169.63876821,175.92439714,-65.60937195,-61.39802621
-177.59136215,-30.99270276,-61.07249563,44.18668047,162.43301890,93.65865543
-172.04507631,62.44059096,175.92373723,-179.20873333,64.72032593,173.75924893
-61.93489293,-103.27713863,-73.88610308,-72.63872174,3.39916854,-0.33819455
41.04480699,-0.57699401,-0.35533025,1.91934799

>  <Name>
1pbr

>  <RI>
0

>  <Rbt.Current_Directory>
/home/itssahil/PROJECTS/Mol_Feturizer/New_Systems/rnas/1pbr

>  <Rbt.Executable>
rbdock ($Id: //depot/dev/client3/rdock/2013.1/src/exe/rbdock.cxx#4 $)

>  <Rbt.Library>
libRbt.so (2013.1, Build901 2013/11/27)

>  <Rbt.Parameter_File>
/export/apps/rDock/src/rDock_2013.1_src/data/scripts/dock_solv.prm

>  <Rbt.Receptor>
prm/pocket_docking_7.prm

>  <SCORE>
-41.3477

>  <SCORE.INTER>
-38.2355

>  <SCORE.INTER.CONST>
1

>  <SCORE.INTER.POLAR>
-5.81245

>  <SCORE.INTER.ROT>
9

>  <SCORE.INTER.SOLV>
42.0279

>  <SCORE.INTER.VDW>
-29.7248

>  <SCORE.INTER.norm>
-0.910368

>  <SCORE.INTRA>
-3.11219

>  <SCORE.INTRA.DIHEDRAL>
-8.19781

>  <SCORE.INTRA.DIHEDRAL.0>
29.7866

>  <SCORE.INTRA.POLAR>
0.27252

>  <SCORE.INTRA.POLAR.0>
-0.984091

>  <SCORE.INTRA.REPUL>
-0.274115

>  <SCORE.INTRA.REPUL.0>
0.274115

>  <SCORE.INTRA.SOLV>
0.511981

>  <SCORE.INTRA.SOLV.lig_0>
-152.978

>  <SCORE.INTRA.VDW>
1.17473

>  <SCORE.INTRA.VDW.0>
-6.10719

>  <SCORE.INTRA.norm>
-0.0740999

>  <SCORE.RESTR>
0

>  <SCORE.RESTR.CAVITY>
0

>  <SCORE.RESTR.norm>
0

>  <SCORE.SYSTEM>
0

>  <SCORE.SYSTEM.CONST>
0

>  <SCORE.SYSTEM.DIHEDRAL>
0

>  <SCORE.SYSTEM.SOLV>
0

>  <SCORE.SYSTEM.norm>
0

>  <SCORE.heavy>
42

>  <SCORE.norm>
-0.984468

>  <RMSD>
8.166

$$$$
1pbr
 OpenBabel11021811403D
libRbt.so/2013.1/901 2013/11/27
 42 45  0  0  0  0  0  0  0  0999 V2000
    3.2060    0.7728   37.1252 C   0  0  2  0  0  0  0  0  0  0  0  0
    4.3184    1.0536   38.0123 O   0  0  0  0  0  0  0  0  0  0  0  0
    3.0472    1.9112   36.0496 C   0  0  2  0  0  0  0  0  0  0  0  0
    4.3286    2.4070   35.4833 N   0  3  0  0  0  0  0  0  0  0  0  0
    2.3269    3.1431   36.6295 C   0  0  1  0  0  0  0  0  0  0  0  0
    1.9566    4.0480   35.5916 O   0  0  0  0  0  0  0  0  0  0  0  0
    1.0747    2.7299   37.4176 C   0  0  2  0  0  0  0  0  0  0  0  0
    0.3987    3.8832   37.9086 O   0  0  0  0  0  0  0  0  0  0  0  0
    1.4390    1.7342   38.5411 C   0  0  2  0  0  0  0  0  0  0  0  0
    1.9936    0.5653   37.9014 O   0  0  0  0  0  0  0  0  0  0  0  0
    0.2513    1.2855   39.3909 C   0  0  0  0  0  0  0  0  0  0  0  0
    0.6658    0.9086   40.6973 O   0  0  0  0  0  0  0  0  0  0  0  0
    5.5898   -3.0169   38.1623 C   0  0  1  0  0  0  0  0  0  0  0  0
    6.2669   -4.3004   38.4233 N   0  3  0  0  0  0  0  0  0  0  0  0
    4.8554   -2.4696   39.4236 C   0  0  2  0  0  0  0  0  0  0  0  0
    3.8804   -3.4057   39.8770 O   0  0  0  0  0  0  0  0  0  0  0  0
    4.1385   -1.1216   39.1198 C   0  0  1  0  0  0  0  0  0  0  0  0
    3.6182   -0.5784   40.3693 O   0  0  0  0  0  0  0  0  0  0  0  0
    5.1003   -0.0796   38.4608 C   0  0  1  0  0  0  0  0  0  0  0  0
    5.8708   -0.6581   37.2310 C   0  0  1  0  0  0  0  0  0  0  0  0
    6.8443    0.3165   36.6908 N   0  3  0  0  0  0  0  0  0  0  0  0
    6.6031   -1.9706   37.6127 C   0  0  0  0  0  0  0  0  0  0  0  0
    4.5408   -0.0799   41.3902 C   0  0  1  0  0  0  0  0  0  0  0  0
    3.7979    0.9443   42.2684 C   0  0  2  0  0  0  0  0  0  0  0  0
    4.7088    1.8636   42.8646 O   0  0  0  0  0  0  0  0  0  0  0  0
    3.1864   -0.0189   43.2972 C   0  0  1  0  0  0  0  0  0  0  0  0
    4.3395   -0.9678   43.5794 C   0  0  2  0  0  0  0  0  0  0  0  0
    4.9096   -1.1393   42.2909 O   0  0  0  0  0  0  0  0  0  0  0  0
    3.9385   -2.3257   44.1701 C   0  0  0  0  0  0  0  0  0  0  0  0
    4.8661   -2.7140   45.1727 O   0  0  0  0  0  0  0  0  0  0  0  0
   -0.9061   -0.7999   46.4414 C   0  0  1  0  0  0  0  0  0  0  0  0
   -0.2610   -1.2489   47.6317 O   0  0  0  0  0  0  0  0  0  0  0  0
   -0.7341    0.7393   46.3111 C   0  0  2  0  0  0  0  0  0  0  0  0
   -1.6735    1.2212   45.3530 O   0  0  0  0  0  0  0  0  0  0  0  0
    0.6958    1.2212   45.9000 C   0  0  1  0  0  0  0  0  0  0  0  0
    1.5630    1.3352   47.0933 N   0  3  0  0  0  0  0  0  0  0  0  0
    1.3117    0.3250   44.7935 C   0  0  1  0  0  0  0  0  0  0  0  0
    2.7105    0.5930   44.5275 O   0  0  0  0  0  0  0  0  0  0  0  0
   -0.2957   -1.5016   45.2022 C   0  0  1  0  0  0  0  0  0  0  0  0
    1.0961   -1.0928   45.1043 O   0  0  0  0  0  0  0  0  0  0  0  0
   -0.4184   -3.0366   45.2319 C   0  0  0  0  0  0  0  0  0  0  0  0
   -1.7881   -3.4931   45.5386 N   0  3  0  0  0  0  0  0  0  0  0  0
  1  2  1  1  0  0  0
  1  3  1  0  0  0  0
  1 10  1  0  0  0  0
  3  4  1  1  0  0  0
  3  5  1  0  0  0  0
  5  6  1  6  0  0  0
  5  7  1  0  0  0  0
  7  8  1  1  0  0  0
  7  9  1  0  0  0  0
  9 10  1  0  0  0  0
  9 11  1  6  0  0  0
 11 12  1  0  0  0  0
 13 14  1  1  0  0  0
 13 15  1  0  0  0  0
 13 22  1  0  0  0  0
 15 16  1  6  0  0  0
 15 17  1  0  0  0  0
 17 18  1  1  0  0  0
 17 19  1  0  0  0  0
 19  2  1  6  0  0  0
 19 20  1  0  0  0  0
 20 21  1  1  0  0  0
 20 22  1  0  0  0  0
 23 18  1  6  0  0  0
 23 24  1  0  0  0  0
 23 28  1  0  0  0  0
 24 25  1  1  0  0  0
 24 26  1  0  0  0  0
 26 27  1  0  0  0  0
 26 38  1  1  0  0  0
 27 28  1  0  0  0  0
 27 29  1  6  0  0  0
 29 30  1  0  0  0  0
 31 32  1  1  0  0  0
 31 33  1  0  0  0  0
 31 39  1  0  0  0  0
 33 34  1  6  0  0  0
 33 35  1  0  0  0  0
 35 36  1  1  0  0  0
 35 37  1  0  0  0  0
 37 38  1  1  0  0  0
 37 40  1  0  0  0  0
 39 40  1  0  0  0  0
 39 41  1  1  0  0  0
 41 42  1  0  0  0  0
M  CHG  5   4   1  14   1  21   1  36   1  42   1
M  END
>  <CHROM.1>
-143.63710632,-54.75346537,-75.33571474,-51.86170679,-62.37330618,-153.31021340
75.27550342,-37.50883017,78.34396995,69.22262237,155.75455682,-120.41117168
165.36702406,123.12526406,-140.03170854,-136.29833380,-71.15283026,65.60469490
-153.05186048,-166.42787380,49.49297170,-58.25637793,2.69454754,-0.07050464
41.22543049,1.05315076,0.69923074,-1.04663562

>  <Name>
1pbr

>  <RI>
0

>  <Rbt.Current_Directory>
/home/itssahil/PROJECTS/Mol_Feturizer/New_Systems/rnas/1pbr

>  <Rbt.Executable>
rbdock ($Id: //depot/dev/client3/rdock/2013.1/src/exe/rbdock.cxx#4 $)

>  <Rbt.Library>
libRbt.so (2013.1, Build901 2013/11/27)

>  <Rbt.Parameter_File>
/export/apps/rDock/src/rDock_2013.1_src/data/scripts/dock_solv.prm

>  <Rbt.Receptor>
prm/pocket_docking_3.prm

>  <SCORE>
-48.9126

>  <SCORE.INTER>
-57.1329

>  <SCORE.INTER.CONST>
1

>  <SCORE.INTER.POLAR>
-8.56642

>  <SCORE.INTER.ROT>
9

>  <SCORE.INTER.SOLV>
33.871

>  <SCORE.INTER.VDW>
-30.4242

>  <SCORE.INTER.norm>
-1.36031

>  <SCORE.INTRA>
8.13193

>  <SCORE.INTRA.DIHEDRAL>
10.4719

>  <SCORE.INTRA.DIHEDRAL.0>
29.7866

>  <SCORE.INTRA.POLAR>
0.967802

>  <SCORE.INTRA.POLAR.0>
-0.984091

>  <SCORE.INTRA.REPUL>
-0.274115

>  <SCORE.INTRA.REPUL.0>
0.274115

>  <SCORE.INTRA.SOLV>
0.504826

>  <SCORE.INTRA.SOLV.lig_0>
-152.978

>  <SCORE.INTRA.VDW>
0.723613

>  <SCORE.INTRA.VDW.0>
-6.10719

>  <SCORE.INTRA.norm>
0.193617

>  <SCORE.RESTR>
0.088422

>  <SCORE.RESTR.CAVITY>
0.088422

>  <SCORE.RESTR.norm>
0.00210528

>  <SCORE.SYSTEM>
0

>  <SCORE.SYSTEM.CONST>
0

>  <SCORE.SYSTEM.DIHEDRAL>
0

>  <SCORE.SYSTEM.SOLV>
0

>  <SCORE.SYSTEM.norm>
0

>  <SCORE.heavy>
42

>  <SCORE.norm>
-1.16459

>  <RMSD>
8.185

$$$$
1pbr
 OpenBabel11021811403D
libRbt.so/2013.1/901 2013/11/27
 42 45  0  0  0  0  0  0  0  0999 V2000
    3.8838    1.7386   38.5991 C   0  0  2  0  0  0  0  0  0  0  0  0
    2.7810    2.6238   38.9205 O   0  0  0  0  0  0  0  0  0  0  0  0
    4.6473    2.2392   37.3166 C   0  0  2  0  0  0  0  0  0  0  0  0
    4.8464    3.7104   37.2531 N   0  3  0  0  0  0  0  0  0  0  0  0
    3.9038    1.8486   36.0253 C   0  0  1  0  0  0  0  0  0  0  0  0
    4.7259    2.0698   34.8814 O   0  0  0  0  0  0  0  0  0  0  0  0
    3.4675    0.3763   36.0636 C   0  0  2  0  0  0  0  0  0  0  0  0
    2.8212    0.0220   34.8450 O   0  0  0  0  0  0  0  0  0  0  0  0
    2.5878    0.0982   37.3026 C   0  0  2  0  0  0  0  0  0  0  0  0
    3.4001    0.3737   38.4635 O   0  0  0  0  0  0  0  0  0  0  0  0
    2.0908   -1.3426   37.4085 C   0  0  0  0  0  0  0  0  0  0  0  0
    3.1760   -2.2597   37.4548 O   0  0  0  0  0  0  0  0  0  0  0  0
    0.6457   -0.0449   41.4752 C   0  0  1  0  0  0  0  0  0  0  0  0
   -0.1519   -0.6849   42.5373 N   0  3  0  0  0  0  0  0  0  0  0  0
   -0.2131    0.8980   40.5789 C   0  0  2  0  0  0  0  0  0  0  0  0
   -1.2742    0.1704   39.9648 O   0  0  0  0  0  0  0  0  0  0  0  0
    0.6478    1.5513   39.4583 C   0  0  1  0  0  0  0  0  0  0  0  0
   -0.1651    2.5444   38.7655 O   0  0  0  0  0  0  0  0  0  0  0  0
    1.9324    2.2370   40.0282 C   0  0  1  0  0  0  0  0  0  0  0  0
    2.7547    1.2986   40.9683 C   0  0  1  0  0  0  0  0  0  0  0  0
    3.9075    2.0049   41.5696 N   0  3  0  0  0  0  0  0  0  0  0  0
    1.8528    0.7219   42.0901 C   0  0  0  0  0  0  0  0  0  0  0  0
    0.4799    3.6296   38.0251 C   0  0  1  0  0  0  0  0  0  0  0  0
    0.3217    3.3597   36.5170 C   0  0  2  0  0  0  0  0  0  0  0  0
    1.3582    3.9929   35.7721 O   0  0  0  0  0  0  0  0  0  0  0  0
   -1.0446    4.0258   36.2950 C   0  0  1  0  0  0  0  0  0  0  0  0
   -0.9156    5.3083   37.1000 C   0  0  2  0  0  0  0  0  0  0  0  0
   -0.2121    4.8702   38.2523 O   0  0  0  0  0  0  0  0  0  0  0  0
   -2.2432    5.9633   37.5028 C   0  0  0  0  0  0  0  0  0  0  0  0
   -3.0823    6.1032   36.3659 O   0  0  0  0  0  0  0  0  0  0  0  0
   -0.1615    7.5124   32.2692 C   0  0  1  0  0  0  0  0  0  0  0  0
   -1.0061    7.1204   31.1886 O   0  0  0  0  0  0  0  0  0  0  0  0
   -1.0376    7.9131   33.4889 C   0  0  2  0  0  0  0  0  0  0  0  0
   -0.2286    8.6431   34.4081 O   0  0  0  0  0  0  0  0  0  0  0  0
   -1.7135    6.7243   34.2477 C   0  0  1  0  0  0  0  0  0  0  0  0
   -2.9875    6.3540   33.5929 N   0  3  0  0  0  0  0  0  0  0  0  0
   -0.7495    5.5196   34.4100 C   0  0  1  0  0  0  0  0  0  0  0  0
   -1.3853    4.3184   34.9119 O   0  0  0  0  0  0  0  0  0  0  0  0
    0.7825    6.3485   32.6626 C   0  0  1  0  0  0  0  0  0  0  0  0
   -0.0433    5.2561   33.1510 O   0  0  0  0  0  0  0  0  0  0  0  0
    1.7003    5.8770   31.5191 C   0  0  0  0  0  0  0  0  0  0  0  0
    2.5832    4.7638   31.9189 N   0  3  0  0  0  0  0  0  0  0  0  0
  1  2  1  6  0  0  0
  1  3  1  0  0  0  0
  1 10  1  0  0  0  0
  3  4  1  1  0  0  0
  3  5  1  0  0  0  0
  5  6  1  6  0  0  0
  5  7  1  0  0  0  0
  7  8  1  6  0  0  0
  7  9  1  0  0  0  0
  9 10  1  0  0  0  0
  9 11  1  1  0  0  0
 11 12  1  0  0  0  0
 13 14  1  1  0  0  0
 13 15  1  0  0  0  0
 13 22  1  0  0  0  0
 15 16  1  6  0  0  0
 15 17  1  0  0  0  0
 17 18  1  1  0  0  0
 17 19  1  0  0  0  0
 19  2  1  6  0  0  0
 19 20  1  0  0  0  0
 20 21  1  1  0  0  0
 20 22  1  0  0  0  0
 23 18  1  1  0  0  0
 23 24  1  0  0  0  0
 23 28  1  0  0  0  0
 24 25  1  6  0  0  0
 24 26  1  0  0  0  0
 26 27  1  0  0  0  0
 26 38  1  6  0  0  0
 27 28  1  0  0  0  0
 27 29  1  1  0  0  0
 29 30  1  0  0  0  0
 31 32  1  6  0  0  0
 31 33  1  0  0  0  0
 31 39  1  0  0  0  0
 33 34  1  1  0  0  0
 33 35  1  0  0  0  0
 35 36  1  6  0  0  0
 35 37  1  0  0  0  0
 37 38  1  6  0  0  0
 37 40  1  0  0  0  0
 39 40  1  0  0  0  0
 39 41  1  6  0  0  0
 41 42  1  0  0  0  0
M  CHG  5   4   1  14   1  21   1  36   1  42   1
M  END
>  <CHROM.1>
176.00312044,-98.96189436,67.52546597,-170.18794494,-177.65966935,58.72582675
-178.92351934,62.80464137,164.91737677,157.69372265,107.22690535,-49.60900825
73.57580086,-79.49238822,-50.77905533,93.28765537,-58.63354698,-174.64507221
-146.40183990,-106.67922229,-179.69707412,55.61149703,1.01243709,3.22833373
36.76893667,-1.20335988,0.58038266,-1.01792255

>  <Name>
1pbr

>  <RI>
0

>  <Rbt.Current_Directory>
/home/itssahil/PROJECTS/Mol_Feturizer/New_Systems/rnas/1pbr

>  <Rbt.Executable>
rbdock ($Id: //depot/dev/client3/rdock/2013.1/src/exe/rbdock.cxx#4 $)

>  <Rbt.Library>
libRbt.so (2013.1, Build901 2013/11/27)

>  <Rbt.Parameter_File>
/export/apps/rDock/src/rDock_2013.1_src/data/scripts/dock_solv.prm

>  <Rbt.Receptor>
prm/blind_docking_80.prm

>  <SCORE>
-34.5661

>  <SCORE.INTER>
-46.7256

>  <SCORE.INTER.CONST>
1

>  <SCORE.INTER.POLAR>
-5.9497

>  <SCORE.INTER.ROT>
9

>  <SCORE.INTER.SOLV>
39.0305

>  <SCORE.INTER.VDW>
-33.9282

>  <SCORE.INTER.norm>
-1.11251

>  <SCORE.INTRA>
9.27397

>  <SCORE.INTRA.DIHEDRAL>
2.20813

>  <SCORE.INTRA.DIHEDRAL.0>
29.7866

>  <SCORE.INTRA.POLAR>
0.555762

>  <SCORE.INTRA.POLAR.0>
-0.984091

>  <SCORE.INTRA.REPUL>
-0.274115

>  <SCORE.INTRA.REPUL.0>
0.274115

>  <SCORE.INTRA.SOLV>
2.04172

>  <SCORE.INTRA.SOLV.lig_0>
-152.978

>  <SCORE.INTRA.VDW>
6.63003

>  <SCORE.INTRA.VDW.0>
-6.10719

>  <SCORE.INTRA.norm>
0.220809

>  <SCORE.RESTR>
2.88547

>  <SCORE.RESTR.CAVITY>
2.88547

>  <SCORE.RESTR.norm>
0.0687016

>  <SCORE.SYSTEM>
0

>  <SCORE.SYSTEM.CONST>
0

>  <SCORE.SYSTEM.DIHEDRAL>
0

>  <SCORE.SYSTEM.SOLV>
0

>  <SCORE.SYSTEM.norm>
0

>  <SCORE.heavy>
42

>  <SCORE.norm>
-0.823003

>  <RMSD>
8.196

$$$$
1pbr
 OpenBabel11021811403D
libRbt.so/2013.1/901 2013/11/27
 42 45  0  0  0  0  0  0  0  0999 V2000
    4.0578   -0.5790   36.7329 C   0  0  2  0  0  0  0  0  0  0  0  0
    4.1920   -0.8604   38.1492 O   0  0  0  0  0  0  0  0  0  0  0  0
    5.2341   -1.2355   35.9183 C   0  0  2  0  0  0  0  0  0  0  0  0
    5.6009   -2.6057   36.3614 N   0  3  0  0  0  0  0  0  0  0  0  0
    6.5222   -0.3952   36.0050 C   0  0  1  0  0  0  0  0  0  0  0  0
    7.4887   -0.8518   35.0612 O   0  0  0  0  0  0  0  0  0  0  0  0
    6.2286    1.0920   35.7564 C   0  0  2  0  0  0  0  0  0  0  0  0
    7.4360    1.8461   35.7971 O   0  0  0  0  0  0  0  0  0  0  0  0
    5.1704    1.6150   36.7529 C   0  0  2  0  0  0  0  0  0  0  0  0
    3.9646    0.8567   36.5197 O   0  0  0  0  0  0  0  0  0  0  0  0
    4.8328    3.0960   36.5896 C   0  0  0  0  0  0  0  0  0  0  0  0
    5.4303    3.8767   37.6162 O   0  0  0  0  0  0  0  0  0  0  0  0
    4.5962    1.3129   41.7991 C   0  0  1  0  0  0  0  0  0  0  0  0
    4.9118    2.2800   42.8663 N   0  3  0  0  0  0  0  0  0  0  0  0
    3.6064    1.8974   40.7463 C   0  0  2  0  0  0  0  0  0  0  0  0
    2.3863    2.2865   41.3727 O   0  0  0  0  0  0  0  0  0  0  0  0
    3.2790    0.8543   39.6380 C   0  0  1  0  0  0  0  0  0  0  0  0
    2.4914    1.5092   38.5998 O   0  0  0  0  0  0  0  0  0  0  0  0
    4.5719    0.2455   39.0033 C   0  0  1  0  0  0  0  0  0  0  0  0
    5.5795   -0.2871   40.0718 C   0  0  1  0  0  0  0  0  0  0  0  0
    6.8330   -0.7650   39.4476 N   0  3  0  0  0  0  0  0  0  0  0  0
    5.9025    0.8136   41.1151 C   0  0  0  0  0  0  0  0  0  0  0  0
    1.2238    0.9219   38.1638 C   0  0  1  0  0  0  0  0  0  0  0  0
    0.2009    2.0546   37.9566 C   0  0  2  0  0  0  0  0  0  0  0  0
   -1.1322    1.5741   38.1053 O   0  0  0  0  0  0  0  0  0  0  0  0
    0.5309    2.4138   36.4999 C   0  0  1  0  0  0  0  0  0  0  0  0
    0.6923    1.0464   35.8566 C   0  0  2  0  0  0  0  0  0  0  0  0
    1.3727    0.3176   36.8668 O   0  0  0  0  0  0  0  0  0  0  0  0
    1.4991    1.0293   34.5518 C   0  0  0  0  0  0  0  0  0  0  0  0
    1.7904   -0.3088   34.1764 O   0  0  0  0  0  0  0  0  0  0  0  0
   -0.1465    7.2948   34.4688 C   0  0  1  0  0  0  0  0  0  0  0  0
   -0.8594    7.0951   33.2496 O   0  0  0  0  0  0  0  0  0  0  0  0
   -1.0950    7.0258   35.6704 C   0  0  2  0  0  0  0  0  0  0  0  0
   -0.5061    7.5780   36.8455 O   0  0  0  0  0  0  0  0  0  0  0  0
   -1.4306    5.5215   35.9352 C   0  0  1  0  0  0  0  0  0  0  0  0
   -2.5625    5.0897   35.0859 N   0  3  0  0  0  0  0  0  0  0  0  0
   -0.1819    4.6144   35.7780 C   0  0  1  0  0  0  0  0  0  0  0  0
   -0.4761    3.1959   35.8006 O   0  0  0  0  0  0  0  0  0  0  0  0
    1.0727    6.3413   34.5406 C   0  0  1  0  0  0  0  0  0  0  0  0
    0.5664    4.9788   34.5694 O   0  0  0  0  0  0  0  0  0  0  0  0
    2.0802    6.5307   33.3911 C   0  0  0  0  0  0  0  0  0  0  0  0
    2.4943    7.9372   33.2220 N   0  3  0  0  0  0  0  0  0  0  0  0
  1  2  1  1  0  0  0
  1  3  1  0  0  0  0
  1 10  1  0  0  0  0
  3  4  1  1  0  0  0
  3  5  1  0  0  0  0
  5  6  1  6  0  0  0
  5  7  1  0  0  0  0
  7  8  1  1  0  0  0
  7  9  1  0  0  0  0
  9 10  1  0  0  0  0
  9 11  1  6  0  0  0
 11 12  1  0  0  0  0
 13 14  1  1  0  0  0
 13 15  1  0  0  0  0
 13 22  1  0  0  0  0
 15 16  1  1  0  0  0
 15 17  1  0  0  0  0
 17 18  1  6  0  0  0
 17 19  1  0  0  0  0
 19  2  1  6  0  0  0
 19 20  1  0  0  0  0
 20 21  1  6  0  0  0
 20 22  1  0  0  0  0
 23 18  1  6  0  0  0
 23 24  1  0  0  0  0
 23 28  1  0  0  0  0
 24 25  1  6  0  0  0
 24 26  1  0  0  0  0
 26 27  1  0  0  0  0
 26 38  1  6  0  0  0
 27 28  1  0  0  0  0
 27 29  1  6  0  0  0
 29 30  1  0  0  0  0
 31 32  1  6  0  0  0
 31 33  1  0  0  0  0
 31 39  1  0  0  0  0
 33 34  1  1  0  0  0
 33 35  1  0  0  0  0
 35 36  1  6  0  0  0
 35 37  1  0  0  0  0
 37 38  1  6  0  0  0
 37 40  1  0  0  0  0
 39 40  1  0  0  0  0
 39 41  1  6  0  0  0
 41 42  1  0  0  0  0
M  CHG  5   4   1  14   1  21   1  36   1  42   1
M  END
>  <CHROM.1>
108.67853851,96.78024651,-24.76992153,64.64292372,73.90963803,-104.66182834
-177.90761592,175.23222658,-53.79810904,-127.83477381,139.56604343,65.45540520
-102.66636863,98.11181085,169.42858519,-178.80691221,-168.65586809,69.71097918
163.12328741,-142.13075817,51.32052001,123.34534882,2.75798114,2.35497728
36.94290272,-0.57227911,0.71086588,-1.32968200

>  <Name>
1pbr

>  <RI>
0

>  <Rbt.Current_Directory>
/home/itssahil/PROJECTS/Mol_Feturizer/New_Systems/rnas/1pbr

>  <Rbt.Executable>
rbdock ($Id: //depot/dev/client3/rdock/2013.1/src/exe/rbdock.cxx#4 $)

>  <Rbt.Library>
libRbt.so (2013.1, Build901 2013/11/27)

>  <Rbt.Parameter_File>
/export/apps/rDock/src/rDock_2013.1_src/data/scripts/dock_solv.prm

>  <Rbt.Receptor>
prm/blind_docking_80.prm

>  <SCORE>
-21.1147

>  <SCORE.INTER>
-37.5984

>  <SCORE.INTER.CONST>
1

>  <SCORE.INTER.POLAR>
-6.69021

>  <SCORE.INTER.ROT>
9

>  <SCORE.INTER.SOLV>
48.5845

>  <SCORE.INTER.VDW>
-28.5598

>  <SCORE.INTER.norm>
-0.895201

>  <SCORE.INTRA>
14.7281

>  <SCORE.INTRA.DIHEDRAL>
23.9471

>  <SCORE.INTRA.DIHEDRAL.0>
29.7866

>  <SCORE.INTRA.POLAR>
0.677395

>  <SCORE.INTRA.POLAR.0>
-0.984091

>  <SCORE.INTRA.REPUL>
-0.274115

>  <SCORE.INTRA.REPUL.0>
0.274115

>  <SCORE.INTRA.SOLV>
0.908051

>  <SCORE.INTRA.SOLV.lig_0>
-152.978

>  <SCORE.INTRA.VDW>
1.36797

>  <SCORE.INTRA.VDW.0>
-6.10719

>  <SCORE.INTRA.norm>
0.35067

>  <SCORE.RESTR>
1.75559

>  <SCORE.RESTR.CAVITY>
1.75559

>  <SCORE.RESTR.norm>
0.0417999

>  <SCORE.SYSTEM>
0

>  <SCORE.SYSTEM.CONST>
0

>  <SCORE.SYSTEM.DIHEDRAL>
0

>  <SCORE.SYSTEM.SOLV>
0

>  <SCORE.SYSTEM.norm>
0

>  <SCORE.heavy>
42

>  <SCORE.norm>
-0.502731

>  <RMSD>
8.212

$$$$
1pbr
 OpenBabel11021811403D
libRbt.so/2013.1/901 2013/11/27
 42 45  0  0  0  0  0  0  0  0999 V2000
    2.3010    0.2201   39.0344 C   0  0  2  0  0  0  0  0  0  0  0  0
    3.5764    0.7338   39.4955 O   0  0  0  0  0  0  0  0  0  0  0  0
    1.1147    0.8488   39.8563 C   0  0  2  0  0  0  0  0  0  0  0  0
    1.2612    2.3006   40.1376 N   0  3  0  0  0  0  0  0  0  0  0  0
    0.9441    0.1599   41.2234 C   0  0  1  0  0  0  0  0  0  0  0  0
   -0.2815    0.5516   41.8380 O   0  0  0  0  0  0  0  0  0  0  0  0
    0.9771   -1.3690   41.0788 C   0  0  2  0  0  0  0  0  0  0  0  0
    0.7745   -1.9883   42.3452 O   0  0  0  0  0  0  0  0  0  0  0  0
    2.2870   -1.8264   40.3993 C   0  0  2  0  0  0  0  0  0  0  0  0
    2.3054   -1.2334   39.0835 O   0  0  0  0  0  0  0  0  0  0  0  0
    2.4126   -3.3400   40.2342 C   0  0  0  0  0  0  0  0  0  0  0  0
    2.4768   -3.9922   41.4956 O   0  0  0  0  0  0  0  0  0  0  0  0
    5.7335   -0.8796   36.1861 C   0  0  1  0  0  0  0  0  0  0  0  0
    6.7299   -1.2417   35.1615 N   0  3  0  0  0  0  0  0  0  0  0  0
    6.1123   -1.4242   37.5966 C   0  0  2  0  0  0  0  0  0  0  0  0
    6.2275   -2.8449   37.5671 O   0  0  0  0  0  0  0  0  0  0  0  0
    5.0397   -1.0402   38.6576 C   0  0  1  0  0  0  0  0  0  0  0  0
    5.5294   -1.4259   39.9761 O   0  0  0  0  0  0  0  0  0  0  0  0
    4.7250    0.4915   38.6478 C   0  0  1  0  0  0  0  0  0  0  0  0
    4.4005    1.0350   37.2195 C   0  0  1  0  0  0  0  0  0  0  0  0
    4.2054    2.5017   37.2265 N   0  3  0  0  0  0  0  0  0  0  0  0
    5.5295    0.6633   36.2236 C   0  0  0  0  0  0  0  0  0  0  0  0
    6.7452   -0.8129   40.5127 C   0  0  1  0  0  0  0  0  0  0  0  0
    6.4898   -0.4109   41.9774 C   0  0  2  0  0  0  0  0  0  0  0  0
    7.3456    0.6579   42.3716 O   0  0  0  0  0  0  0  0  0  0  0  0
    6.8618   -1.7361   42.6594 C   0  0  1  0  0  0  0  0  0  0  0  0
    8.1204   -2.1443   41.9118 C   0  0  2  0  0  0  0  0  0  0  0  0
    7.8073   -1.7812   40.5758 O   0  0  0  0  0  0  0  0  0  0  0  0
    8.4725   -3.6354   41.9905 C   0  0  0  0  0  0  0  0  0  0  0  0
    9.6408   -3.9012   41.2283 O   0  0  0  0  0  0  0  0  0  0  0  0
    4.5473   -3.1492   47.2312 C   0  0  1  0  0  0  0  0  0  0  0  0
    5.6043   -3.6983   48.0160 O   0  0  0  0  0  0  0  0  0  0  0  0
    4.7186   -1.6070   47.1429 C   0  0  2  0  0  0  0  0  0  0  0  0
    3.4907   -1.0393   46.6928 O   0  0  0  0  0  0  0  0  0  0  0  0
    5.8727   -1.1134   46.2100 C   0  0  1  0  0  0  0  0  0  0  0  0
    7.1581   -1.1046   46.9427 N   0  3  0  0  0  0  0  0  0  0  0  0
    5.9387   -1.9285   44.8917 C   0  0  1  0  0  0  0  0  0  0  0  0
    7.1147   -1.6592   44.0894 O   0  0  0  0  0  0  0  0  0  0  0  0
    4.5623   -3.7600   45.8074 C   0  0  1  0  0  0  0  0  0  0  0  0
    5.8073   -3.3633   45.1699 O   0  0  0  0  0  0  0  0  0  0  0  0
    4.3947   -5.2909   45.7843 C   0  0  0  0  0  0  0  0  0  0  0  0
    3.0469   -5.7231   46.2026 N   0  3  0  0  0  0  0  0  0  0  0  0
  1  2  1  1  0  0  0
  1  3  1  0  0  0  0
  1 10  1  0  0  0  0
  3  4  1  1  0  0  0
  3  5  1  0  0  0  0
  5  6  1  6  0  0  0
  5  7  1  0  0  0  0
  7  8  1  1  0  0  0
  7  9  1  0  0  0  0
  9 10  1  0  0  0  0
  9 11  1  6  0  0  0
 11 12  1  0  0  0  0
 13 14  1  6  0  0  0
 13 15  1  0  0  0  0
 13 22  1  0  0  0  0
 15 16  1  6  0  0  0
 15 17  1  0  0  0  0
 17 18  1  1  0  0  0
 17 19  1  0  0  0  0
 19  2  1  1  0  0  0
 19 20  1  0  0  0  0
 20 21  1  1  0  0  0
 20 22  1  0  0  0  0
 23 18  1  1  0  0  0
 23 24  1  0  0  0  0
 23 28  1  0  0  0  0
 24 25  1  1  0  0  0
 24 26  1  0  0  0  0
 26 27  1  0  0  0  0
 26 38  1  1  0  0  0
 27 28  1  0  0  0  0
 27 29  1  6  0  0  0
 29 30  1  0  0  0  0
 31 32  1  1  0  0  0
 31 33  1  0  0  0  0
 31 39  1  0  0  0  0
 33 34  1  6  0  0  0
 33 35  1  0  0  0  0
 35 36  1  1  0  0  0
 35 37  1  0  0  0  0
 37 38  1  1  0  0  0
 37 40  1  0  0  0  0
 39 40  1  0  0  0  0
 39 41  1  1  0  0  0
 41 42  1  0  0  0  0
M  CHG  5   4   1  14   1  21   1  36   1  42   1
M  END
>  <CHROM.1>
-166.19119778,-68.29307021,-146.20227711,-173.24653365,-176.01624424,-64.56620874
-70.44928401,68.53607700,64.83731860,62.51504471,134.48180038,-171.51429930
176.21949649,92.71615819,178.42869209,-166.24507697,173.80502448,50.70294544
20.71295371,-145.96372879,68.43410856,-63.37266795,4.71742233,-1.45404756
41.65417687,1.67500320,0.26241022,-1.25324475

>  <Name>
1pbr

>  <RI>
0

>  <Rbt.Current_Directory>
/home/itssahil/PROJECTS/Mol_Feturizer/New_Systems/rnas/1pbr

>  <Rbt.Executable>
rbdock ($Id: //depot/dev/client3/rdock/2013.1/src/exe/rbdock.cxx#4 $)

>  <Rbt.Library>
libRbt.so (2013.1, Build901 2013/11/27)

>  <Rbt.Parameter_File>
/export/apps/rDock/src/rDock_2013.1_src/data/scripts/dock_solv.prm

>  <Rbt.Receptor>
prm/pocket_docking_8.prm

>  <SCORE>
-41.805

>  <SCORE.INTER>
-38.9708

>  <SCORE.INTER.CONST>
1

>  <SCORE.INTER.POLAR>
-6.55617

>  <SCORE.INTER.ROT>
9

>  <SCORE.INTER.SOLV>
27.7257

>  <SCORE.INTER.VDW>
-22.9685

>  <SCORE.INTER.norm>
-0.927876

>  <SCORE.INTRA>
-2.83418

>  <SCORE.INTRA.DIHEDRAL>
-5.30873

>  <SCORE.INTRA.DIHEDRAL.0>
29.7866

>  <SCORE.INTRA.POLAR>
0.333627

>  <SCORE.INTRA.POLAR.0>
-0.984091

>  <SCORE.INTRA.REPUL>
-0.274115

>  <SCORE.INTRA.REPUL.0>
0.274115

>  <SCORE.INTRA.SOLV>
-3.40367

>  <SCORE.INTRA.SOLV.lig_0>
-152.978

>  <SCORE.INTRA.VDW>
1.75825

>  <SCORE.INTRA.VDW.0>
-6.10719

>  <SCORE.INTRA.norm>
-0.0674806

>  <SCORE.RESTR>
0

>  <SCORE.RESTR.CAVITY>
0

>  <SCORE.RESTR.norm>
0

>  <SCORE.SYSTEM>
0

>  <SCORE.SYSTEM.CONST>
0

>  <SCORE.SYSTEM.DIHEDRAL>
0

>  <SCORE.SYSTEM.SOLV>
0

>  <SCORE.SYSTEM.norm>
0

>  <SCORE.heavy>
42

>  <SCORE.norm>
-0.995356

>  <RMSD>
8.218

$$$$
1pbr
 OpenBabel11021811403D
libRbt.so/2013.1/901 2013/11/27
 42 45  0  0  0  0  0  0  0  0999 V2000
    1.7611    1.2185   36.5197 C   0  0  2  0  0  0  0  0  0  0  0  0
    2.9816    1.5282   37.2391 O   0  0  0  0  0  0  0  0  0  0  0  0
    1.3727    2.3929   35.5459 C   0  0  2  0  0  0  0  0  0  0  0  0
    2.5198    2.9944   34.8175 N   0  3  0  0  0  0  0  0  0  0  0  0
    0.6851    3.5487   36.2970 C   0  0  1  0  0  0  0  0  0  0  0  0
    0.1069    4.4751   35.3800 O   0  0  0  0  0  0  0  0  0  0  0  0
   -0.4031    3.0212   37.2442 C   0  0  2  0  0  0  0  0  0  0  0  0
   -1.0566    4.1055   37.8965 O   0  0  0  0  0  0  0  0  0  0  0  0
    0.1876    1.9999   38.2416 C   0  0  2  0  0  0  0  0  0  0  0  0
    0.6989    0.8991   37.4604 O   0  0  0  0  0  0  0  0  0  0  0  0
   -0.8253    1.4382   39.2378 C   0  0  0  0  0  0  0  0  0  0  0  0
   -0.1861    0.9937   40.4271 O   0  0  0  0  0  0  0  0  0  0  0  0
    4.9181   -2.1174   36.1586 C   0  0  1  0  0  0  0  0  0  0  0  0
    5.8248   -3.2697   36.0029 N   0  3  0  0  0  0  0  0  0  0  0  0
    4.2605   -2.0701   37.5710 C   0  0  2  0  0  0  0  0  0  0  0  0
    3.5157   -3.2613   37.8133 O   0  0  0  0  0  0  0  0  0  0  0  0
    3.2989   -0.8533   37.7064 C   0  0  1  0  0  0  0  0  0  0  0  0
    2.8503   -0.7657   39.0913 O   0  0  0  0  0  0  0  0  0  0  0  0
    3.9885    0.4893   37.2976 C   0  0  1  0  0  0  0  0  0  0  0  0
    4.6904    0.4111   35.9041 C   0  0  1  0  0  0  0  0  0  0  0  0
    5.4169    1.6612   35.5895 N   0  3  0  0  0  0  0  0  0  0  0  0
    5.6705   -0.7894   35.8521 C   0  0  0  0  0  0  0  0  0  0  0  0
    3.1879    0.4088   39.8965 C   0  0  1  0  0  0  0  0  0  0  0  0
    2.3214    0.3996   41.1697 C   0  0  2  0  0  0  0  0  0  0  0  0
    2.1556    1.7174   41.6857 O   0  0  0  0  0  0  0  0  0  0  0  0
    3.2187   -0.4675   42.0657 C   0  0  1  0  0  0  0  0  0  0  0  0
    4.6034    0.0848   41.7707 C   0  0  2  0  0  0  0  0  0  0  0  0
    4.5426    0.3165   40.3717 O   0  0  0  0  0  0  0  0  0  0  0  0
    5.7674   -0.8569   42.1051 C   0  0  0  0  0  0  0  0  0  0  0  0
    5.7235   -2.0026   41.2674 O   0  0  0  0  0  0  0  0  0  0  0  0
   -0.6853   -2.2249   45.0017 C   0  0  1  0  0  0  0  0  0  0  0  0
   -0.0224   -3.2772   45.7002 O   0  0  0  0  0  0  0  0  0  0  0  0
   -0.2793   -0.8588   45.6220 C   0  0  2  0  0  0  0  0  0  0  0  0
   -1.2066    0.1316   45.1841 O   0  0  0  0  0  0  0  0  0  0  0  0
    1.1695   -0.3749   45.2864 C   0  0  1  0  0  0  0  0  0  0  0  0
    2.1417   -0.9687   46.2304 N   0  3  0  0  0  0  0  0  0  0  0  0
    1.5371   -0.6369   43.8022 C   0  0  1  0  0  0  0  0  0  0  0  0
    2.9331   -0.4067   43.4903 O   0  0  0  0  0  0  0  0  0  0  0  0
   -0.3032   -2.2524   43.5004 C   0  0  1  0  0  0  0  0  0  0  0  0
    1.1229   -1.9869   43.4030 O   0  0  0  0  0  0  0  0  0  0  0  0
   -0.6686   -3.5684   42.7886 C   0  0  0  0  0  0  0  0  0  0  0  0
   -1.2690   -4.5620   43.7001 N   0  3  0  0  0  0  0  0  0  0  0  0
  1  2  1  1  0  0  0
  1  3  1  0  0  0  0
  1 10  1  0  0  0  0
  3  4  1  1  0  0  0
  3  5  1  0  0  0  0
  5  6  1  6  0  0  0
  5  7  1  0  0  0  0
  7  8  1  1  0  0  0
  7  9  1  0  0  0  0
  9 10  1  0  0  0  0
  9 11  1  1  0  0  0
 11 12  1  0  0  0  0
 13 14  1  1  0  0  0
 13 15  1  0  0  0  0
 13 22  1  0  0  0  0
 15 16  1  6  0  0  0
 15 17  1  0  0  0  0
 17 18  1  1  0  0  0
 17 19  1  0  0  0  0
 19  2  1  6  0  0  0
 19 20  1  0  0  0  0
 20 21  1  1  0  0  0
 20 22  1  0  0  0  0
 23 18  1  6  0  0  0
 23 24  1  0  0  0  0
 23 28  1  0  0  0  0
 24 25  1  1  0  0  0
 24 26  1  0  0  0  0
 26 27  1  0  0  0  0
 26 38  1  1  0  0  0
 27 28  1  0  0  0  0
 27 29  1  6  0  0  0
 29 30  1  0  0  0  0
 31 32  1  1  0  0  0
 31 33  1  0  0  0  0
 31 39  1  0  0  0  0
 33 34  1  6  0  0  0
 33 35  1  0  0  0  0
 35 36  1  1  0  0  0
 35 37  1  0  0  0  0
 37 38  1  1  0  0  0
 37 40  1  0  0  0  0
 39 40  1  0  0  0  0
 39 41  1  1  0  0  0
 41 42  1  0  0  0  0
M  CHG  5   4   1  14   1  21   1  36   1  42   1
M  END
>  <CHROM.1>
-133.23784856,-47.64056299,-76.80443469,-168.09088083,67.34767902,-154.96713970
-145.98723347,-52.91115090,176.70176471,117.02405189,166.44614603,-46.35421989
83.96141765,51.30842745,65.44979033,-175.35751164,69.07372326,73.46905719
-13.99651429,-171.58389511,-2.09365075,65.09028182,2.09218400,-0.08736748
40.00609929,1.25901954,0.60414622,-1.03588819

>  <Name>
1pbr

>  <RI>
0

>  <Rbt.Current_Directory>
/home/itssahil/PROJECTS/Mol_Feturizer/New_Systems/rnas/1pbr

>  <Rbt.Executable>
rbdock ($Id: //depot/dev/client3/rdock/2013.1/src/exe/rbdock.cxx#4 $)

>  <Rbt.Library>
libRbt.so (2013.1, Build901 2013/11/27)

>  <Rbt.Parameter_File>
/export/apps/rDock/src/rDock_2013.1_src/data/scripts/dock_solv.prm

>  <Rbt.Receptor>
prm/pocket_docking_4.prm

>  <SCORE>
-41.0836

>  <SCORE.INTER>
-48.493

>  <SCORE.INTER.CONST>
1

>  <SCORE.INTER.POLAR>
-8.47542

>  <SCORE.INTER.ROT>
9

>  <SCORE.INTER.SOLV>
31.7233

>  <SCORE.INTER.VDW>
-24.2517

>  <SCORE.INTER.norm>
-1.15459

>  <SCORE.INTRA>
7.33526

>  <SCORE.INTRA.DIHEDRAL>
7.42363

>  <SCORE.INTRA.DIHEDRAL.0>
29.7866

>  <SCORE.INTRA.POLAR>
0.087406

>  <SCORE.INTRA.POLAR.0>
-0.984091

>  <SCORE.INTRA.REPUL>
-0.274115

>  <SCORE.INTRA.REPUL.0>
0.274115

>  <SCORE.INTRA.SOLV>
4.63582

>  <SCORE.INTRA.SOLV.lig_0>
-152.978

>  <SCORE.INTRA.VDW>
2.37893

>  <SCORE.INTRA.VDW.0>
-6.10719

>  <SCORE.INTRA.norm>
0.174649

>  <SCORE.RESTR>
0.074119

>  <SCORE.RESTR.CAVITY>
0.074119

>  <SCORE.RESTR.norm>
0.00176474

>  <SCORE.SYSTEM>
0

>  <SCORE.SYSTEM.CONST>
0

>  <SCORE.SYSTEM.DIHEDRAL>
0

>  <SCORE.SYSTEM.SOLV>
0

>  <SCORE.SYSTEM.norm>
0

>  <SCORE.heavy>
42

>  <SCORE.norm>
-0.97818

>  <RMSD>
8.219

$$$$
1pbr
 OpenBabel11021811403D
libRbt.so/2013.1/901 2013/11/27
 42 45  0  0  0  0  0  0  0  0999 V2000
    4.5662   -2.2088   38.6795 C   0  0  2  0  0  0  0  0  0  0  0  0
    5.5820   -1.1950   38.8886 O   0  0  0  0  0  0  0  0  0  0  0  0
    5.1802   -3.6520   38.8153 C   0  0  2  0  0  0  0  0  0  0  0  0
    6.1506   -3.8065   39.9300 N   0  3  0  0  0  0  0  0  0  0  0  0
    5.9240   -4.0748   37.5344 C   0  0  1  0  0  0  0  0  0  0  0  0
    6.2419   -5.4644   37.5692 O   0  0  0  0  0  0  0  0  0  0  0  0
    5.0842   -3.7742   36.2838 C   0  0  2  0  0  0  0  0  0  0  0  0
    5.7686   -4.2113   35.1139 O   0  0  0  0  0  0  0  0  0  0  0  0
    4.7072   -2.2773   36.2245 C   0  0  2  0  0  0  0  0  0  0  0  0
    3.9131   -1.9985   37.3971 O   0  0  0  0  0  0  0  0  0  0  0  0
    3.8861   -1.8854   34.9972 C   0  0  0  0  0  0  0  0  0  0  0  0
    3.6513   -0.4840   34.9606 O   0  0  0  0  0  0  0  0  0  0  0  0
    8.2664    1.2326   36.6285 C   0  0  1  0  0  0  0  0  0  0  0  0
    9.1460    1.8341   35.6094 N   0  3  0  0  0  0  0  0  0  0  0  0
    6.7635    1.2886   36.2186 C   0  0  2  0  0  0  0  0  0  0  0  0
    6.3534    2.6386   36.0142 O   0  0  0  0  0  0  0  0  0  0  0  0
    5.8548    0.6597   37.3151 C   0  0  1  0  0  0  0  0  0  0  0  0
    4.4907    0.5867   36.8044 O   0  0  0  0  0  0  0  0  0  0  0  0
    6.3333   -0.7713   37.7256 C   0  0  1  0  0  0  0  0  0  0  0  0
    7.8536   -0.8240   38.0811 C   0  0  1  0  0  0  0  0  0  0  0  0
    8.2981   -2.2058   38.3682 N   0  3  0  0  0  0  0  0  0  0  0  0
    8.7053   -0.2304   36.9292 C   0  0  0  0  0  0  0  0  0  0  0  0
    3.3706    0.4213   37.7316 C   0  0  1  0  0  0  0  0  0  0  0  0
    3.1826    1.7328   38.5170 C   0  0  2  0  0  0  0  0  0  0  0  0
    2.5558    1.4917   39.7737 O   0  0  0  0  0  0  0  0  0  0  0  0
    2.2573    2.4700   37.5371 C   0  0  1  0  0  0  0  0  0  0  0  0
    1.2886    1.3761   37.1195 C   0  0  2  0  0  0  0  0  0  0  0  0
    2.1414    0.2473   37.0048 O   0  0  0  0  0  0  0  0  0  0  0  0
    0.5527    1.6251   35.7965 C   0  0  0  0  0  0  0  0  0  0  0  0
    1.4486    1.4756   34.7050 O   0  0  0  0  0  0  0  0  0  0  0  0
    0.1070    6.8060   35.5516 C   0  0  1  0  0  0  0  0  0  0  0  0
    1.0972    7.7497   35.9564 O   0  0  0  0  0  0  0  0  0  0  0  0
    0.7967    5.6082   34.8408 C   0  0  2  0  0  0  0  0  0  0  0  0
   -0.1937    4.8749   34.1239 O   0  0  0  0  0  0  0  0  0  0  0  0
    1.5681    4.6251   35.7810 C   0  0  1  0  0  0  0  0  0  0  0  0
    2.9383    5.1231   36.0332 N   0  3  0  0  0  0  0  0  0  0  0  0
    0.7829    4.3400   37.0883 C   0  0  1  0  0  0  0  0  0  0  0  0
    1.5406    3.6107   38.0849 O   0  0  0  0  0  0  0  0  0  0  0  0
   -0.6861    6.2985   36.7820 C   0  0  1  0  0  0  0  0  0  0  0  0
    0.2438    5.5867   37.6437 O   0  0  0  0  0  0  0  0  0  0  0  0
   -1.4133    7.4129   37.5575 C   0  0  0  0  0  0  0  0  0  0  0  0
   -2.5594    7.9707   36.8133 N   0  3  0  0  0  0  0  0  0  0  0  0
  1  2  1  6  0  0  0
  1  3  1  0  0  0  0
  1 10  1  0  0  0  0
  3  4  1  1  0  0  0
  3  5  1  0  0  0  0
  5  6  1  1  0  0  0
  5  7  1  0  0  0  0
  7  8  1  6  0  0  0
  7  9  1  0  0  0  0
  9 10  1  0  0  0  0
  9 11  1  6  0  0  0
 11 12  1  0  0  0  0
 13 14  1  6  0  0  0
 13 15  1  0  0  0  0
 13 22  1  0  0  0  0
 15 16  1  1  0  0  0
 15 17  1  0  0  0  0
 17 18  1  6  0  0  0
 17 19  1  0  0  0  0
 19  2  1  1  0  0  0
 19 20  1  0  0  0  0
 20 21  1  6  0  0  0
 20 22  1  0  0  0  0
 23 18  1  6  0  0  0
 23 24  1  0  0  0  0
 23 28  1  0  0  0  0
 24 25  1  1  0  0  0
 24 26  1  0  0  0  0
 26 27  1  0  0  0  0
 26 38  1  1  0  0  0
 27 28  1  0  0  0  0
 27 29  1  6  0  0  0
 29 30  1  0  0  0  0
 31 32  1  1  0  0  0
 31 33  1  0  0  0  0
 31 39  1  0  0  0  0
 33 34  1  1  0  0  0
 33 35  1  0  0  0  0
 35 36  1  1  0  0  0
 35 37  1  0  0  0  0
 37 38  1  1  0  0  0
 37 40  1  0  0  0  0
 39 40  1  0  0  0  0
 39 41  1  1  0  0  0
 41 42  1  0  0  0  0
M  CHG  5   4   1  14   1  21   1  36   1  42   1
M  END
>  <CHROM.1>
88.25308097,106.70641489,-7.57338962,104.62494523,-67.37731106,-176.10622866
84.88862273,3.04585807,82.75718783,-161.63746326,71.00976633,-66.66994791
51.35818314,174.55849427,72.09290473,53.47421963,-149.87535002,54.18903992
-177.00814962,-46.01904693,70.39868807,56.77402109,3.66294081,1.20340619
36.90018758,0.92898814,-0.06850202,2.96293370

>  <Name>
1pbr

>  <RI>
0

>  <Rbt.Current_Directory>
/home/itssahil/PROJECTS/Mol_Feturizer/New_Systems/rnas/1pbr

>  <Rbt.Executable>
rbdock ($Id: //depot/dev/client3/rdock/2013.1/src/exe/rbdock.cxx#4 $)

>  <Rbt.Library>
libRbt.so (2013.1, Build901 2013/11/27)

>  <Rbt.Parameter_File>
/export/apps/rDock/src/rDock_2013.1_src/data/scripts/dock_solv.prm

>  <Rbt.Receptor>
prm/blind_docking_40.prm

>  <SCORE>
16.5782

>  <SCORE.INTER>
-4.30785

>  <SCORE.INTER.CONST>
1

>  <SCORE.INTER.POLAR>
-6.39992

>  <SCORE.INTER.ROT>
9

>  <SCORE.INTER.SOLV>
28.4227

>  <SCORE.INTER.VDW>
-0.613069

>  <SCORE.INTER.norm>
-0.102568

>  <SCORE.INTRA>
16.4894

>  <SCORE.INTRA.DIHEDRAL>
7.52947

>  <SCORE.INTRA.DIHEDRAL.0>
29.7866

>  <SCORE.INTRA.POLAR>
-0.105225

>  <SCORE.INTRA.POLAR.0>
-0.984091

>  <SCORE.INTRA.REPUL>
-0.274115

>  <SCORE.INTRA.REPUL.0>
0.274115

>  <SCORE.INTRA.SOLV>
9.41341

>  <SCORE.INTRA.SOLV.lig_0>
-152.978

>  <SCORE.INTRA.VDW>
9.74625

>  <SCORE.INTRA.VDW.0>
-6.10719

>  <SCORE.INTRA.norm>
0.392604

>  <SCORE.RESTR>
4.39668

>  <SCORE.RESTR.CAVITY>
4.39668

>  <SCORE.RESTR.norm>
0.104683

>  <SCORE.SYSTEM>
0

>  <SCORE.SYSTEM.CONST>
0

>  <SCORE.SYSTEM.DIHEDRAL>
0

>  <SCORE.SYSTEM.SOLV>
0

>  <SCORE.SYSTEM.norm>
0

>  <SCORE.heavy>
42

>  <SCORE.norm>
0.394719

>  <RMSD>
8.230

$$$$
1pbr
 OpenBabel11021811403D
libRbt.so/2013.1/901 2013/11/27
 42 45  0  0  0  0  0  0  0  0999 V2000
    2.2023   -0.1743   36.5338 C   0  0  2  0  0  0  0  0  0  0  0  0
    3.4756   -0.2981   37.2169 O   0  0  0  0  0  0  0  0  0  0  0  0
    2.4124   -0.0367   34.9797 C   0  0  2  0  0  0  0  0  0  0  0  0
    3.4612   -0.9274   34.4184 N   0  3  0  0  0  0  0  0  0  0  0  0
    2.8097    1.3984   34.5859 C   0  0  1  0  0  0  0  0  0  0  0  0
    2.7378    1.5737   33.1726 O   0  0  0  0  0  0  0  0  0  0  0  0
    1.9042    2.4304   35.2750 C   0  0  2  0  0  0  0  0  0  0  0  0
    2.2579    3.7478   34.8654 O   0  0  0  0  0  0  0  0  0  0  0  0
    1.9455    2.2566   36.8095 C   0  0  2  0  0  0  0  0  0  0  0  0
    1.4448    0.9333   37.0948 O   0  0  0  0  0  0  0  0  0  0  0  0
    1.0864    3.2595   37.5777 C   0  0  0  0  0  0  0  0  0  0  0  0
    0.5452    2.6778   38.7563 O   0  0  0  0  0  0  0  0  0  0  0  0
    3.1775   -4.4799   38.0118 C   0  0  1  0  0  0  0  0  0  0  0  0
    3.3041   -5.8556   38.5270 N   0  3  0  0  0  0  0  0  0  0  0  0
    2.4954   -3.5254   39.0381 C   0  0  2  0  0  0  0  0  0  0  0  0
    1.1927   -4.0005   39.3699 O   0  0  0  0  0  0  0  0  0  0  0  0
    2.3618   -2.0835   38.4668 C   0  0  1  0  0  0  0  0  0  0  0  0
    1.8773   -1.2056   39.5259 O   0  0  0  0  0  0  0  0  0  0  0  0
    3.7224   -1.5386   37.9219 C   0  0  1  0  0  0  0  0  0  0  0  0
    4.4217   -2.5290   36.9366 C   0  0  1  0  0  0  0  0  0  0  0  0
    5.7503   -2.0315   36.5163 N   0  3  0  0  0  0  0  0  0  0  0  0
    4.5697   -3.9304   37.5835 C   0  0  0  0  0  0  0  0  0  0  0  0
    2.4039    0.1545   39.6464 C   0  0  1  0  0  0  0  0  0  0  0  0
    1.9016    0.7625   40.9693 C   0  0  2  0  0  0  0  0  0  0  0  0
    1.8654    2.1851   40.8978 O   0  0  0  0  0  0  0  0  0  0  0  0
    3.0099    0.2549   41.9040 C   0  0  1  0  0  0  0  0  0  0  0  0
    4.2640    0.4886   41.0781 C   0  0  2  0  0  0  0  0  0  0  0  0
    3.8366    0.1264   39.7739 O   0  0  0  0  0  0  0  0  0  0  0  0
    5.4832   -0.3463   41.4907 C   0  0  0  0  0  0  0  0  0  0  0  0
    5.7432   -0.1772   42.8764 O   0  0  0  0  0  0  0  0  0  0  0  0
    3.3166   -1.7581   46.5690 C   0  0  1  0  0  0  0  0  0  0  0  0
    4.7411   -1.7648   46.6442 O   0  0  0  0  0  0  0  0  0  0  0  0
    2.7924   -0.3223   46.8505 C   0  0  2  0  0  0  0  0  0  0  0  0
    1.3987   -0.3973   47.1414 O   0  0  0  0  0  0  0  0  0  0  0  0
    3.0103    0.7090   45.6953 C   0  0  1  0  0  0  0  0  0  0  0  0
    4.3624    1.3030   45.7844 N   0  3  0  0  0  0  0  0  0  0  0  0
    2.7177    0.0885   44.3038 C   0  0  1  0  0  0  0  0  0  0  0  0
    3.1072    0.9283   43.1893 O   0  0  0  0  0  0  0  0  0  0  0  0
    2.8506   -2.2197   45.1652 C   0  0  1  0  0  0  0  0  0  0  0  0
    3.3259   -1.2428   44.1990 O   0  0  0  0  0  0  0  0  0  0  0  0
    3.3170   -3.6386   44.7893 C   0  0  0  0  0  0  0  0  0  0  0  0
    2.4326   -4.6906   45.3275 N   0  3  0  0  0  0  0  0  0  0  0  0
  1  2  1  1  0  0  0
  1  3  1  0  0  0  0
  1 10  1  0  0  0  0
  3  4  1  1  0  0  0
  3  5  1  0  0  0  0
  5  6  1  6  0  0  0
  5  7  1  0  0  0  0
  7  8  1  1  0  0  0
  7  9  1  0  0  0  0
  9 10  1  0  0  0  0
  9 11  1  1  0  0  0
 11 12  1  0  0  0  0
 13 14  1  1  0  0  0
 13 15  1  0  0  0  0
 13 22  1  0  0  0  0
 15 16  1  6  0  0  0
 15 17  1  0  0  0  0
 17 18  1  1  0  0  0
 17 19  1  0  0  0  0
 19  2  1  6  0  0  0
 19 20  1  0  0  0  0
 20 21  1  1  0  0  0
 20 22  1  0  0  0  0
 23 18  1  1  0  0  0
 23 24  1  0  0  0  0
 23 28  1  0  0  0  0
 24 25  1  6  0  0  0
 24 26  1  0  0  0  0
 26 27  1  0  0  0  0
 26 38  1  1  0  0  0
 27 28  1  0  0  0  0
 27 29  1  1  0  0  0
 29 30  1  0  0  0  0
 31 32  1  6  0  0  0
 31 33  1  0  0  0  0
 31 39  1  0  0  0  0
 33 34  1  6  0  0  0
 33 35  1  0  0  0  0
 35 36  1  6  0  0  0
 35 37  1  0  0  0  0
 37 38  1  6  0  0  0
 37 40  1  0  0  0  0
 39 40  1  0  0  0  0
 39 41  1  6  0  0  0
 41 42  1  0  0  0  0
M  CHG  5   4   1  14   1  21   1  36   1  42   1
M  END
>  <CHROM.1>
-116.51045351,-32.24933357,-75.40528949,-169.78884409,-45.18410457,146.75016834
75.03924289,-108.15969981,-50.88048248,141.24140458,-170.65161608,81.86666999
172.02241529,110.87389326,-53.36290261,67.47380918,71.81526877,-178.26936797
46.19448720,171.43164583,83.59995011,-151.22201927,2.98836388,-0.56661376
40.19488730,-1.85612370,-1.37093521,1.45771526

>  <Name>
1pbr

>  <RI>
0

>  <Rbt.Current_Directory>
/home/itssahil/PROJECTS/Mol_Feturizer/New_Systems/rnas/1pbr

>  <Rbt.Executable>
rbdock ($Id: //depot/dev/client3/rdock/2013.1/src/exe/rbdock.cxx#4 $)

>  <Rbt.Library>
libRbt.so (2013.1, Build901 2013/11/27)

>  <Rbt.Parameter_File>
/export/apps/rDock/src/rDock_2013.1_src/data/scripts/dock_solv.prm

>  <Rbt.Receptor>
prm/pocket_docking_3.prm

>  <SCORE>
-31.8032

>  <SCORE.INTER>
-40.7119

>  <SCORE.INTER.CONST>
1

>  <SCORE.INTER.POLAR>
-6.40901

>  <SCORE.INTER.ROT>
9

>  <SCORE.INTER.SOLV>
36.0439

>  <SCORE.INTER.VDW>
-27.3926

>  <SCORE.INTER.norm>
-0.969332

>  <SCORE.INTRA>
7.81107

>  <SCORE.INTRA.DIHEDRAL>
10.4837

>  <SCORE.INTRA.DIHEDRAL.0>
29.7866

>  <SCORE.INTRA.POLAR>
-1.09751

>  <SCORE.INTRA.POLAR.0>
-0.984091

>  <SCORE.INTRA.REPUL>
-0.274115

>  <SCORE.INTRA.REPUL.0>
0.274115

>  <SCORE.INTRA.SOLV>
3.54926

>  <SCORE.INTRA.SOLV.lig_0>
-152.978

>  <SCORE.INTRA.VDW>
5.89667

>  <SCORE.INTRA.VDW.0>
-6.10719

>  <SCORE.INTRA.norm>
0.185978

>  <SCORE.RESTR>
1.09762

>  <SCORE.RESTR.CAVITY>
1.09762

>  <SCORE.RESTR.norm>
0.0261338

>  <SCORE.SYSTEM>
0

>  <SCORE.SYSTEM.CONST>
0

>  <SCORE.SYSTEM.DIHEDRAL>
0

>  <SCORE.SYSTEM.SOLV>
0

>  <SCORE.SYSTEM.norm>
0

>  <SCORE.heavy>
42

>  <SCORE.norm>
-0.75722

>  <RMSD>
8.234

$$$$
1pbr
 OpenBabel11021811403D
libRbt.so/2013.1/901 2013/11/27
 42 45  0  0  0  0  0  0  0  0999 V2000
    3.0931    1.0329   38.9212 C   0  0  2  0  0  0  0  0  0  0  0  0
    3.0775   -0.0611   37.9694 O   0  0  0  0  0  0  0  0  0  0  0  0
    1.6752    1.7099   39.0185 C   0  0  2  0  0  0  0  0  0  0  0  0
    0.5356    0.7561   39.0173 N   0  3  0  0  0  0  0  0  0  0  0  0
    1.4276    2.6787   37.8469 C   0  0  1  0  0  0  0  0  0  0  0  0
    0.2684    3.4744   38.0844 O   0  0  0  0  0  0  0  0  0  0  0  0
    2.6396    3.5959   37.6238 C   0  0  2  0  0  0  0  0  0  0  0  0
    2.3757    4.5128   36.5665 O   0  0  0  0  0  0  0  0  0  0  0  0
    3.9181    2.7638   37.3802 C   0  0  2  0  0  0  0  0  0  0  0  0
    4.1406    1.9793   38.5711 O   0  0  0  0  0  0  0  0  0  0  0  0
    5.1718    3.5996   37.1275 C   0  0  0  0  0  0  0  0  0  0  0  0
    6.2367    2.7957   36.6375 O   0  0  0  0  0  0  0  0  0  0  0  0
    4.9894   -3.8197   37.3170 C   0  0  1  0  0  0  0  0  0  0  0  0
    5.8943   -4.9833   37.2850 N   0  3  0  0  0  0  0  0  0  0  0  0
    4.3797   -3.5847   38.7322 C   0  0  2  0  0  0  0  0  0  0  0  0
    3.6477   -4.7325   39.1556 O   0  0  0  0  0  0  0  0  0  0  0  0
    3.4189   -2.3597   38.7375 C   0  0  1  0  0  0  0  0  0  0  0  0
    3.0170   -2.0886   40.1130 O   0  0  0  0  0  0  0  0  0  0  0  0
    4.0896   -1.0840   38.1310 C   0  0  1  0  0  0  0  0  0  0  0  0
    4.7442   -1.3472   36.7371 C   0  0  1  0  0  0  0  0  0  0  0  0
    5.4553   -0.1506   36.2350 N   0  3  0  0  0  0  0  0  0  0  0  0
    5.7262   -2.5449   36.8117 C   0  0  0  0  0  0  0  0  0  0  0  0
    1.8393   -2.7514   40.6748 C   0  0  1  0  0  0  0  0  0  0  0  0
    2.1575   -3.1815   42.1191 C   0  0  2  0  0  0  0  0  0  0  0  0
    1.3480   -4.2853   42.5147 O   0  0  0  0  0  0  0  0  0  0  0  0
    1.7705   -1.8855   42.8473 C   0  0  1  0  0  0  0  0  0  0  0  0
    0.4750   -1.4975   42.1538 C   0  0  2  0  0  0  0  0  0  0  0  0
    0.7519   -1.8179   40.7990 O   0  0  0  0  0  0  0  0  0  0  0  0
    0.0819   -0.0202   42.2828 C   0  0  0  0  0  0  0  0  0  0  0  0
   -0.1552    0.3039   43.6448 O   0  0  0  0  0  0  0  0  0  0  0  0
    2.9127    0.5183   47.5247 C   0  0  1  0  0  0  0  0  0  0  0  0
    2.9638   -0.5274   48.4935 O   0  0  0  0  0  0  0  0  0  0  0  0
    3.9408    0.2262   46.3963 C   0  0  2  0  0  0  0  0  0  0  0  0
    4.1503    1.4241   45.6523 O   0  0  0  0  0  0  0  0  0  0  0  0
    3.5424   -0.9174   45.4066 C   0  0  1  0  0  0  0  0  0  0  0  0
    3.9360   -2.2335   45.9561 N   0  3  0  0  0  0  0  0  0  0  0  0
    2.0408   -0.8520   45.0223 C   0  0  1  0  0  0  0  0  0  0  0  0
    1.5700   -2.0054   44.2826 O   0  0  0  0  0  0  0  0  0  0  0  0
    1.4892    0.6230   46.9217 C   0  0  1  0  0  0  0  0  0  0  0  0
    1.2173   -0.6176   46.2141 O   0  0  0  0  0  0  0  0  0  0  0  0
    0.3920    0.9160   47.9620 C   0  0  0  0  0  0  0  0  0  0  0  0
   -0.8267    1.4901   47.3589 N   0  3  0  0  0  0  0  0  0  0  0  0
  1  2  1  6  0  0  0
  1  3  1  0  0  0  0
  1 10  1  0  0  0  0
  3  4  1  6  0  0  0
  3  5  1  0  0  0  0
  5  6  1  1  0  0  0
  5  7  1  0  0  0  0
  7  8  1  6  0  0  0
  7  9  1  0  0  0  0
  9 10  1  0  0  0  0
  9 11  1  1  0  0  0
 11 12  1  0  0  0  0
 13 14  1  1  0  0  0
 13 15  1  0  0  0  0
 13 22  1  0  0  0  0
 15 16  1  6  0  0  0
 15 17  1  0  0  0  0
 17 18  1  1  0  0  0
 17 19  1  0  0  0  0
 19  2  1  6  0  0  0
 19 20  1  0  0  0  0
 20 21  1  1  0  0  0
 20 22  1  0  0  0  0
 23 18  1  1  0  0  0
 23 24  1  0  0  0  0
 23 28  1  0  0  0  0
 24 25  1  1  0  0  0
 24 26  1  0  0  0  0
 26 27  1  0  0  0  0
 26 38  1  1  0  0  0
 27 28  1  0  0  0  0
 27 29  1  6  0  0  0
 29 30  1  0  0  0  0
 31 32  1  1  0  0  0
 31 33  1  0  0  0  0
 31 39  1  0  0  0  0
 33 34  1  6  0  0  0
 33 35  1  0  0  0  0
 35 36  1  1  0  0  0
 35 37  1  0  0  0  0
 37 38  1  1  0  0  0
 37 40  1  0  0  0  0
 39 40  1  0  0  0  0
 39 41  1  1  0  0  0
 41 42  1  0  0  0  0
M  CHG  5   4   1  14   1  21   1  36   1  42   1
M  END
>  <CHROM.1>
-156.70322638,105.15114012,55.27635085,-62.35364875,-55.16457978,-167.67978393
-72.71919132,116.91516955,-47.04009006,-88.73513168,138.60112312,79.89432317
169.50437514,142.95328636,-63.19226455,-178.23601240,170.16040887,-179.48005595
79.71230489,-86.87389164,159.00993561,-77.24497345,2.73636184,-0.35046428
41.16333522,0.81637223,1.20207886,-0.78133671

>  <Name>
1pbr

>  <RI>
0

>  <Rbt.Current_Directory>
/home/itssahil/PROJECTS/Mol_Feturizer/New_Systems/rnas/1pbr

>  <Rbt.Executable>
rbdock ($Id: //depot/dev/client3/rdock/2013.1/src/exe/rbdock.cxx#4 $)

>  <Rbt.Library>
libRbt.so (2013.1, Build901 2013/11/27)

>  <Rbt.Parameter_File>
/export/apps/rDock/src/rDock_2013.1_src/data/scripts/dock_solv.prm

>  <Rbt.Receptor>
prm/pocket_docking_6.prm

>  <SCORE>
-39.2714

>  <SCORE.INTER>
-42.0087

>  <SCORE.INTER.CONST>
1

>  <SCORE.INTER.POLAR>
-5.78725

>  <SCORE.INTER.ROT>
9

>  <SCORE.INTER.SOLV>
36.4044

>  <SCORE.INTER.VDW>
-30.4498

>  <SCORE.INTER.norm>
-1.00021

>  <SCORE.INTRA>
2.73732

>  <SCORE.INTRA.DIHEDRAL>
6.72999

>  <SCORE.INTRA.DIHEDRAL.0>
29.7866

>  <SCORE.INTRA.POLAR>
-0.182576

>  <SCORE.INTRA.POLAR.0>
-0.984091

>  <SCORE.INTRA.REPUL>
-0.274115

>  <SCORE.INTRA.REPUL.0>
0.274115

>  <SCORE.INTRA.SOLV>
3.36658

>  <SCORE.INTRA.SOLV.lig_0>
-152.978

>  <SCORE.INTRA.VDW>
-0.319635

>  <SCORE.INTRA.VDW.0>
-6.10719

>  <SCORE.INTRA.norm>
0.0651743

>  <SCORE.RESTR>
0

>  <SCORE.RESTR.CAVITY>
0

>  <SCORE.RESTR.norm>
0

>  <SCORE.SYSTEM>
0

>  <SCORE.SYSTEM.CONST>
0

>  <SCORE.SYSTEM.DIHEDRAL>
0

>  <SCORE.SYSTEM.SOLV>
0

>  <SCORE.SYSTEM.norm>
0

>  <SCORE.heavy>
42

>  <SCORE.norm>
-0.935032

>  <RMSD>
8.238

$$$$
1pbr
 OpenBabel11021811403D
libRbt.so/2013.1/901 2013/11/27
 42 45  0  0  0  0  0  0  0  0999 V2000
    4.9417    0.4107   37.4137 C   0  0  2  0  0  0  0  0  0  0  0  0
    5.3415   -0.0359   38.7343 O   0  0  0  0  0  0  0  0  0  0  0  0
    4.6320   -0.8168   36.4781 C   0  0  2  0  0  0  0  0  0  0  0  0
    3.8843   -1.9198   37.1358 N   0  3  0  0  0  0  0  0  0  0  0  0
    5.9231   -1.4443   35.9197 C   0  0  1  0  0  0  0  0  0  0  0  0
    5.6256   -2.3727   34.8790 O   0  0  0  0  0  0  0  0  0  0  0  0
    6.8747   -0.3641   35.3837 C   0  0  2  0  0  0  0  0  0  0  0  0
    8.0422   -0.9652   34.8325 O   0  0  0  0  0  0  0  0  0  0  0  0
    7.2042    0.6696   36.4834 C   0  0  2  0  0  0  0  0  0  0  0  0
    5.9576    1.2921   36.8602 O   0  0  0  0  0  0  0  0  0  0  0  0
    8.1646    1.7721   36.0404 C   0  0  0  0  0  0  0  0  0  0  0  0
    8.1068    1.9712   34.6342 O   0  0  0  0  0  0  0  0  0  0  0  0
    2.7752    0.1701   42.1372 C   0  0  1  0  0  0  0  0  0  0  0  0
    2.0176    0.5540   43.3424 N   0  3  0  0  0  0  0  0  0  0  0  0
    2.3285    0.9733   40.8782 C   0  0  2  0  0  0  0  0  0  0  0  0
    0.9419    0.7641   40.6206 O   0  0  0  0  0  0  0  0  0  0  0  0
    3.1331    0.5415   39.6174 C   0  0  1  0  0  0  0  0  0  0  0  0
    2.7941    1.4385   38.5185 O   0  0  0  0  0  0  0  0  0  0  0  0
    4.6768    0.5810   39.8631 C   0  0  1  0  0  0  0  0  0  0  0  0
    5.1048   -0.1816   41.1577 C   0  0  1  0  0  0  0  0  0  0  0  0
    6.5550   -0.0429   41.4170 N   0  3  0  0  0  0  0  0  0  0  0  0
    4.3041    0.3296   42.3833 C   0  0  0  0  0  0  0  0  0  0  0  0
    1.7653    1.0538   37.5514 C   0  0  1  0  0  0  0  0  0  0  0  0
    0.8774    2.2787   37.2623 C   0  0  2  0  0  0  0  0  0  0  0  0
   -0.4201    1.8798   36.8292 O   0  0  0  0  0  0  0  0  0  0  0  0
    1.7002    2.9108   36.1294 C   0  0  1  0  0  0  0  0  0  0  0  0
    2.0845    1.7015   35.2931 C   0  0  2  0  0  0  0  0  0  0  0  0
    2.3661    0.7268   36.2858 O   0  0  0  0  0  0  0  0  0  0  0  0
    3.3010    1.8988   34.3794 C   0  0  0  0  0  0  0  0  0  0  0  0
    3.0141    2.8765   33.3904 O   0  0  0  0  0  0  0  0  0  0  0  0
   -1.7790    7.0288   36.3831 C   0  0  1  0  0  0  0  0  0  0  0  0
   -2.2031    7.2884   35.0461 O   0  0  0  0  0  0  0  0  0  0  0  0
   -2.1766    5.5791   36.7776 C   0  0  2  0  0  0  0  0  0  0  0  0
   -2.0937    5.4560   38.1956 O   0  0  0  0  0  0  0  0  0  0  0  0
   -1.3180    4.4474   36.1234 C   0  0  1  0  0  0  0  0  0  0  0  0
   -1.8462    4.1107   34.7830 N   0  3  0  0  0  0  0  0  0  0  0  0
    0.1911    4.8064   36.1013 C   0  0  1  0  0  0  0  0  0  0  0  0
    1.0029    3.8965   35.3190 O   0  0  0  0  0  0  0  0  0  0  0  0
   -0.2439    7.2017   36.5027 C   0  0  1  0  0  0  0  0  0  0  0  0
    0.3807    6.1935   35.6617 O   0  0  0  0  0  0  0  0  0  0  0  0
    0.2548    8.6118   36.1355 C   0  0  0  0  0  0  0  0  0  0  0  0
    0.4993    8.7711   34.6887 N   0  3  0  0  0  0  0  0  0  0  0  0
  1  2  1  1  0  0  0
  1  3  1  0  0  0  0
  1 10  1  0  0  0  0
  3  4  1  1  0  0  0
  3  5  1  0  0  0  0
  5  6  1  6  0  0  0
  5  7  1  0  0  0  0
  7  8  1  1  0  0  0
  7  9  1  0  0  0  0
  9 10  1  0  0  0  0
  9 11  1  6  0  0  0
 11 12  1  0  0  0  0
 13 14  1  1  0  0  0
 13 15  1  0  0  0  0
 13 22  1  0  0  0  0
 15 16  1  6  0  0  0
 15 17  1  0  0  0  0
 17 18  1  6  0  0  0
 17 19  1  0  0  0  0
 19  2  1  6  0  0  0
 19 20  1  0  0  0  0
 20 21  1  1  0  0  0
 20 22  1  0  0  0  0
 23 18  1  1  0  0  0
 23 24  1  0  0  0  0
 23 28  1  0  0  0  0
 24 25  1  6  0  0  0
 24 26  1  0  0  0  0
 26 27  1  0  0  0  0
 26 38  1  6  0  0  0
 27 28  1  0  0  0  0
 27 29  1  1  0  0  0
 29 30  1  0  0  0  0
 31 32  1  6  0  0  0
 31 33  1  0  0  0  0
 31 39  1  0  0  0  0
 33 34  1  1  0  0  0
 33 35  1  0  0  0  0
 35 36  1  6  0  0  0
 35 37  1  0  0  0  0
 37 38  1  6  0  0  0
 37 40  1  0  0  0  0
 39 40  1  0  0  0  0
 39 41  1  6  0  0  0
 41 42  1  0  0  0  0
M  CHG  5   4   1  14   1  21   1  36   1  42   1
M  END
>  <CHROM.1>
-130.78847155,49.20896159,-177.68075115,169.58477257,-73.67836430,25.35771363
58.15938584,-162.60851603,-57.80967671,-95.95438780,137.45033514,-168.00813219
-67.34432220,42.56342228,-64.79730335,-51.68335052,-69.15482249,63.26647447
-38.87626006,-99.68873687,-86.21075014,-21.39044794,2.72316094,2.19509685
37.18855747,-0.50282339,0.63992230,-1.13058924

>  <Name>
1pbr

>  <RI>
0

>  <Rbt.Current_Directory>
/home/itssahil/PROJECTS/Mol_Feturizer/New_Systems/rnas/1pbr

>  <Rbt.Executable>
rbdock ($Id: //depot/dev/client3/rdock/2013.1/src/exe/rbdock.cxx#4 $)

>  <Rbt.Library>
libRbt.so (2013.1, Build901 2013/11/27)

>  <Rbt.Parameter_File>
/export/apps/rDock/src/rDock_2013.1_src/data/scripts/dock_solv.prm

>  <Rbt.Receptor>
prm/blind_docking_60.prm

>  <SCORE>
-33.4039

>  <SCORE.INTER>
-43.2691

>  <SCORE.INTER.CONST>
1

>  <SCORE.INTER.POLAR>
-6.28249

>  <SCORE.INTER.ROT>
9

>  <SCORE.INTER.SOLV>
32.5792

>  <SCORE.INTER.VDW>
-28.3642

>  <SCORE.INTER.norm>
-1.03022

>  <SCORE.INTRA>
8.75681

>  <SCORE.INTRA.DIHEDRAL>
7.67332

>  <SCORE.INTRA.DIHEDRAL.0>
29.7866

>  <SCORE.INTRA.POLAR>
0.674719

>  <SCORE.INTRA.POLAR.0>
-0.984091

>  <SCORE.INTRA.REPUL>
-0.274115

>  <SCORE.INTRA.REPUL.0>
0.274115

>  <SCORE.INTRA.SOLV>
2.16625

>  <SCORE.INTRA.SOLV.lig_0>
-152.978

>  <SCORE.INTRA.VDW>
2.91355

>  <SCORE.INTRA.VDW.0>
-6.10719

>  <SCORE.INTRA.norm>
0.208495

>  <SCORE.RESTR>
1.10846

>  <SCORE.RESTR.CAVITY>
1.10846

>  <SCORE.RESTR.norm>
0.0263919

>  <SCORE.SYSTEM>
0

>  <SCORE.SYSTEM.CONST>
0

>  <SCORE.SYSTEM.DIHEDRAL>
0

>  <SCORE.SYSTEM.SOLV>
0

>  <SCORE.SYSTEM.norm>
0

>  <SCORE.heavy>
42

>  <SCORE.norm>
-0.79533

>  <RMSD>
8.243

$$$$
1pbr
 OpenBabel11021811403D
libRbt.so/2013.1/901 2013/11/27
 42 45  0  0  0  0  0  0  0  0999 V2000
    2.6161    2.0228   36.9774 C   0  0  2  0  0  0  0  0  0  0  0  0
    3.7207    1.9303   37.9126 O   0  0  0  0  0  0  0  0  0  0  0  0
    2.2948    3.5262   36.6383 C   0  0  2  0  0  0  0  0  0  0  0  0
    3.4929    4.3836   36.4440 N   0  3  0  0  0  0  0  0  0  0  0  0
    1.4630    4.1932   37.7501 C   0  0  1  0  0  0  0  0  0  0  0  0
    0.9589    5.4548   37.3171 O   0  0  0  0  0  0  0  0  0  0  0  0
    0.2925    3.2950   38.1777 C   0  0  2  0  0  0  0  0  0  0  0  0
   -0.4897    3.9460   39.1741 O   0  0  0  0  0  0  0  0  0  0  0  0
    0.8037    1.9115   38.6371 C   0  0  2  0  0  0  0  0  0  0  0  0
    1.4619    1.3101   37.5020 O   0  0  0  0  0  0  0  0  0  0  0  0
   -0.2967    0.9586   39.1011 C   0  0  0  0  0  0  0  0  0  0  0  0
   -0.7567    1.2977   40.4025 O   0  0  0  0  0  0  0  0  0  0  0  0
    5.0792   -1.8019   36.3528 C   0  0  1  0  0  0  0  0  0  0  0  0
    5.8135   -3.0362   36.0192 N   0  3  0  0  0  0  0  0  0  0  0  0
    4.5389   -1.8133   37.8149 C   0  0  2  0  0  0  0  0  0  0  0  0
    3.6645   -2.9216   38.0137 O   0  0  0  0  0  0  0  0  0  0  0  0
    3.7573   -0.5065   38.1388 C   0  0  1  0  0  0  0  0  0  0  0  0
    3.4267   -0.5011   39.5593 O   0  0  0  0  0  0  0  0  0  0  0  0
    4.5847    0.7745   37.7929 C   0  0  1  0  0  0  0  0  0  0  0  0
    5.1661    0.7480   36.3431 C   0  0  1  0  0  0  0  0  0  0  0  0
    6.0248    1.9239   36.0794 N   0  3  0  0  0  0  0  0  0  0  0  0
    5.9743   -0.5532   36.1018 C   0  0  0  0  0  0  0  0  0  0  0  0
    2.4076   -1.4153   40.0764 C   0  0  1  0  0  0  0  0  0  0  0  0
    3.0677   -2.3662   41.0922 C   0  0  2  0  0  0  0  0  0  0  0  0
    2.3450   -3.5901   41.1925 O   0  0  0  0  0  0  0  0  0  0  0  0
    2.9289   -1.5033   42.3556 C   0  0  1  0  0  0  0  0  0  0  0  0
    1.5149   -0.9618   42.2255 C   0  0  2  0  0  0  0  0  0  0  0  0
    1.4241   -0.6898   40.8353 O   0  0  0  0  0  0  0  0  0  0  0  0
    1.2239    0.3072   43.0371 C   0  0  0  0  0  0  0  0  0  0  0  0
    1.6726    1.4528   42.3282 O   0  0  0  0  0  0  0  0  0  0  0  0
    3.9282   -0.4236   47.4685 C   0  0  1  0  0  0  0  0  0  0  0  0
    3.0457   -1.2728   48.1998 O   0  0  0  0  0  0  0  0  0  0  0  0
    5.0612   -1.2795   46.8367 C   0  0  2  0  0  0  0  0  0  0  0  0
    6.1182   -0.4096   46.4382 O   0  0  0  0  0  0  0  0  0  0  0  0
    4.6373   -2.1511   45.6094 C   0  0  1  0  0  0  0  0  0  0  0  0
    4.0681   -3.4386   46.0648 N   0  3  0  0  0  0  0  0  0  0  0  0
    3.6895   -1.3805   44.6530 C   0  0  1  0  0  0  0  0  0  0  0  0
    3.0974   -2.2042   43.6185 O   0  0  0  0  0  0  0  0  0  0  0  0
    3.1535    0.3242   46.3543 C   0  0  1  0  0  0  0  0  0  0  0  0
    2.6574   -0.6709   45.4176 O   0  0  0  0  0  0  0  0  0  0  0  0
    2.0062    1.2078   46.8786 C   0  0  0  0  0  0  0  0  0  0  0  0
    0.9157    0.4230   47.4896 N   0  3  0  0  0  0  0  0  0  0  0  0
  1  2  1  1  0  0  0
  1  3  1  0  0  0  0
  1 10  1  0  0  0  0
  3  4  1  1  0  0  0
  3  5  1  0  0  0  0
  5  6  1  6  0  0  0
  5  7  1  0  0  0  0
  7  8  1  1  0  0  0
  7  9  1  0  0  0  0
  9 10  1  0  0  0  0
  9 11  1  6  0  0  0
 11 12  1  0  0  0  0
 13 14  1  1  0  0  0
 13 15  1  0  0  0  0
 13 22  1  0  0  0  0
 15 16  1  6  0  0  0
 15 17  1  0  0  0  0
 17 18  1  1  0  0  0
 17 19  1  0  0  0  0
 19  2  1  6  0  0  0
 19 20  1  0  0  0  0
 20 21  1  1  0  0  0
 20 22  1  0  0  0  0
 23 18  1  1  0  0  0
 23 24  1  0  0  0  0
 23 28  1  0  0  0  0
 24 25  1  1  0  0  0
 24 26  1  0  0  0  0
 26 27  1  0  0  0  0
 26 38  1  1  0  0  0
 27 28  1  0  0  0  0
 27 29  1  1  0  0  0
 29 30  1  0  0  0  0
 31 32  1  6  0  0  0
 31 33  1  0  0  0  0
 31 39  1  0  0  0  0
 33 34  1  6  0  0  0
 33 35  1  0  0  0  0
 35 36  1  1  0  0  0
 35 37  1  0  0  0  0
 37 38  1  6  0  0  0
 37 40  1  0  0  0  0
 39 40  1  0  0  0  0
 39 41  1  1  0  0  0
 41 42  1  0  0  0  0
M  CHG  5   4   1  14   1  21   1  36   1  42   1
M  END
>  <CHROM.1>
-147.80765773,-65.32942540,-35.10571557,65.12579936,43.09989417,-76.57562585
-47.63098161,67.18605105,74.72525273,-71.47182784,117.82220355,-72.67813795
-53.10151942,147.53925024,82.56747565,-57.82303412,168.30572228,-175.65480376
-171.78935998,-144.70815661,-66.14501057,111.58580679,2.90134000,0.16138368
40.89277611,1.60148376,0.89787939,-1.30497180

>  <Name>
1pbr

>  <RI>
0

>  <Rbt.Current_Directory>
/home/itssahil/PROJECTS/Mol_Feturizer/New_Systems/rnas/1pbr

>  <Rbt.Executable>
rbdock ($Id: //depot/dev/client3/rdock/2013.1/src/exe/rbdock.cxx#4 $)

>  <Rbt.Library>
libRbt.so (2013.1, Build901 2013/11/27)

>  <Rbt.Parameter_File>
/export/apps/rDock/src/rDock_2013.1_src/data/scripts/dock_solv.prm

>  <Rbt.Receptor>
prm/pocket_docking_5.prm

>  <SCORE>
-37.5519

>  <SCORE.INTER>
-41.0383

>  <SCORE.INTER.CONST>
1

>  <SCORE.INTER.POLAR>
-5.79369

>  <SCORE.INTER.ROT>
9

>  <SCORE.INTER.SOLV>
37.6788

>  <SCORE.INTER.VDW>
-30.2061

>  <SCORE.INTER.norm>
-0.977102

>  <SCORE.INTRA>
3.48639

>  <SCORE.INTRA.DIHEDRAL>
3.60952

>  <SCORE.INTRA.DIHEDRAL.0>
29.7866

>  <SCORE.INTRA.POLAR>
-0.065206

>  <SCORE.INTRA.POLAR.0>
-0.984091

>  <SCORE.INTRA.REPUL>
-0.274115

>  <SCORE.INTRA.REPUL.0>
0.274115

>  <SCORE.INTRA.SOLV>
4.9919

>  <SCORE.INTRA.SOLV.lig_0>
-152.978

>  <SCORE.INTRA.VDW>
0.777954

>  <SCORE.INTRA.VDW.0>
-6.10719

>  <SCORE.INTRA.norm>
0.0830092

>  <SCORE.RESTR>
0

>  <SCORE.RESTR.CAVITY>
0

>  <SCORE.RESTR.norm>
0

>  <SCORE.SYSTEM>
0

>  <SCORE.SYSTEM.CONST>
0

>  <SCORE.SYSTEM.DIHEDRAL>
0

>  <SCORE.SYSTEM.SOLV>
0

>  <SCORE.SYSTEM.norm>
0

>  <SCORE.heavy>
42

>  <SCORE.norm>
-0.894093

>  <RMSD>
8.244

$$$$
1pbr
 OpenBabel11021811403D
libRbt.so/2013.1/901 2013/11/27
 42 45  0  0  0  0  0  0  0  0999 V2000
    5.6016   -2.6152   39.6414 C   0  0  2  0  0  0  0  0  0  0  0  0
    5.8377   -1.8161   38.4544 O   0  0  0  0  0  0  0  0  0  0  0  0
    6.9245   -2.7765   40.4793 C   0  0  2  0  0  0  0  0  0  0  0  0
    7.7452   -1.5417   40.5789 N   0  3  0  0  0  0  0  0  0  0  0  0
    7.8446   -3.8588   39.8840 C   0  0  1  0  0  0  0  0  0  0  0  0
    8.9004   -4.1785   40.7875 O   0  0  0  0  0  0  0  0  0  0  0  0
    7.0540   -5.1332   39.5511 C   0  0  2  0  0  0  0  0  0  0  0  0
    7.9277   -6.1366   39.0432 O   0  0  0  0  0  0  0  0  0  0  0  0
    5.8897   -4.8184   38.5859 C   0  0  2  0  0  0  0  0  0  0  0  0
    5.0171   -3.8940   39.2694 O   0  0  0  0  0  0  0  0  0  0  0  0
    5.0607   -6.0374   38.1845 C   0  0  0  0  0  0  0  0  0  0  0  0
    3.8038   -5.6505   37.6450 O   0  0  0  0  0  0  0  0  0  0  0  0
    3.6317   -0.0833   35.2391 C   0  0  1  0  0  0  0  0  0  0  0  0
    2.6531    0.2614   34.1914 N   0  3  0  0  0  0  0  0  0  0  0  0
    3.0648    0.1416   36.6735 C   0  0  2  0  0  0  0  0  0  0  0  0
    2.6821    1.5036   36.8495 O   0  0  0  0  0  0  0  0  0  0  0  0
    4.1198   -0.2168   37.7608 C   0  0  1  0  0  0  0  0  0  0  0  0
    3.4806   -0.1504   39.0701 O   0  0  0  0  0  0  0  0  0  0  0  0
    4.7216   -1.6443   37.5481 C   0  0  1  0  0  0  0  0  0  0  0  0
    5.2362   -1.8748   36.0912 C   0  0  1  0  0  0  0  0  0  0  0  0
    5.7074   -3.2635   35.8935 N   0  3  0  0  0  0  0  0  0  0  0  0
    4.1242   -1.5493   35.0607 C   0  0  0  0  0  0  0  0  0  0  0  0
    3.6914    1.0161   39.9284 C   0  0  1  0  0  0  0  0  0  0  0  0
    2.3738    1.3350   40.6594 C   0  0  2  0  0  0  0  0  0  0  0  0
    2.3125    2.7101   41.0277 O   0  0  0  0  0  0  0  0  0  0  0  0
    2.5445    0.4136   41.8767 C   0  0  1  0  0  0  0  0  0  0  0  0
    4.0023    0.6311   42.2471 C   0  0  2  0  0  0  0  0  0  0  0  0
    4.6277    0.7041   40.9750 O   0  0  0  0  0  0  0  0  0  0  0  0
    4.6357   -0.4836   43.0896 C   0  0  0  0  0  0  0  0  0  0  0  0
    6.0477   -0.4645   42.9405 O   0  0  0  0  0  0  0  0  0  0  0  0
   -0.5053   -2.3523   45.1554 C   0  0  1  0  0  0  0  0  0  0  0  0
   -1.7954   -1.9109   44.7365 O   0  0  0  0  0  0  0  0  0  0  0  0
    0.3078   -2.8181   43.9154 C   0  0  2  0  0  0  0  0  0  0  0  0
    1.4193   -3.5892   44.3654 O   0  0  0  0  0  0  0  0  0  0  0  0
    0.8325   -1.6723   42.9893 C   0  0  1  0  0  0  0  0  0  0  0  0
   -0.2119   -1.2760   42.0192 N   0  3  0  0  0  0  0  0  0  0  0  0
    1.3784   -0.4724   43.8073 C   0  0  1  0  0  0  0  0  0  0  0  0
    1.6777    0.6990   43.0089 O   0  0  0  0  0  0  0  0  0  0  0  0
    0.2478   -1.2048   45.8744 C   0  0  1  0  0  0  0  0  0  0  0  0
    0.4625   -0.1425   44.9053 O   0  0  0  0  0  0  0  0  0  0  0  0
   -0.4762   -0.6720   47.1249 C   0  0  0  0  0  0  0  0  0  0  0  0
    0.1042    0.5894   47.6256 N   0  3  0  0  0  0  0  0  0  0  0  0
  1  2  1  6  0  0  0
  1  3  1  0  0  0  0
  1 10  1  0  0  0  0
  3  4  1  6  0  0  0
  3  5  1  0  0  0  0
  5  6  1  1  0  0  0
  5  7  1  0  0  0  0
  7  8  1  6  0  0  0
  7  9  1  0  0  0  0
  9 10  1  0  0  0  0
  9 11  1  1  0  0  0
 11 12  1  0  0  0  0
 13 14  1  6  0  0  0
 13 15  1  0  0  0  0
 13 22  1  0  0  0  0
 15 16  1  6  0  0  0
 15 17  1  0  0  0  0
 17 18  1  1  0  0  0
 17 19  1  0  0  0  0
 19  2  1  1  0  0  0
 19 20  1  0  0  0  0
 20 21  1  1  0  0  0
 20 22  1  0  0  0  0
 23 18  1  6  0  0  0
 23 24  1  0  0  0  0
 23 28  1  0  0  0  0
 24 25  1  1  0  0  0
 24 26  1  0  0  0  0
 26 27  1  0  0  0  0
 26 38  1  1  0  0  0
 27 28  1  0  0  0  0
 27 29  1  1  0  0  0
 29 30  1  0  0  0  0
 31 32  1  6  0  0  0
 31 33  1  0  0  0  0
 31 39  1  0  0  0  0
 33 34  1  1  0  0  0
 33 35  1  0  0  0  0
 35 36  1  6  0  0  0
 35 37  1  0  0  0  0
 37 38  1  6  0  0  0
 37 40  1  0  0  0  0
 39 40  1  0  0  0  0
 39 41  1  1  0  0  0
 41 42  1  0  0  0  0
M  CHG  5   4   1  14   1  21   1  36   1  42   1
M  END
>  <CHROM.1>
176.77499424,102.60044586,73.10097014,-71.64926252,65.78590129,162.44653169
-57.66025174,-38.26470926,-177.75331093,-101.52809997,142.43009072,68.16123297
-95.31647513,151.50078142,157.30798300,67.14846569,64.63878824,-51.55156531
65.53814807,-52.34759014,-168.01124745,-75.06598700,3.59035546,-1.52740385
40.60602746,-0.67343300,-0.76553857,1.99979481

>  <Name>
1pbr

>  <RI>
0

>  <Rbt.Current_Directory>
/home/itssahil/PROJECTS/Mol_Feturizer/New_Systems/rnas/1pbr

>  <Rbt.Executable>
rbdock ($Id: //depot/dev/client3/rdock/2013.1/src/exe/rbdock.cxx#4 $)

>  <Rbt.Library>
libRbt.so (2013.1, Build901 2013/11/27)

>  <Rbt.Parameter_File>
/export/apps/rDock/src/rDock_2013.1_src/data/scripts/dock_solv.prm

>  <Rbt.Receptor>
prm/pocket_docking_7.prm

>  <SCORE>
-42.062

>  <SCORE.INTER>
-42.8603

>  <SCORE.INTER.CONST>
1

>  <SCORE.INTER.POLAR>
-5.99742

>  <SCORE.INTER.ROT>
9

>  <SCORE.INTER.SOLV>
37.5685

>  <SCORE.INTER.VDW>
-30.705

>  <SCORE.INTER.norm>
-1.02048

>  <SCORE.INTRA>
0.798277

>  <SCORE.INTRA.DIHEDRAL>
1.94714

>  <SCORE.INTRA.DIHEDRAL.0>
29.7866

>  <SCORE.INTRA.POLAR>
-0.226342

>  <SCORE.INTRA.POLAR.0>
-0.984091

>  <SCORE.INTRA.REPUL>
-0.274115

>  <SCORE.INTRA.REPUL.0>
0.274115

>  <SCORE.INTRA.SOLV>
2.17661

>  <SCORE.INTRA.SOLV.lig_0>
-152.978

>  <SCORE.INTRA.VDW>
0.876539

>  <SCORE.INTRA.VDW.0>
-6.10719

>  <SCORE.INTRA.norm>
0.0190066

>  <SCORE.RESTR>
0

>  <SCORE.RESTR.CAVITY>
0

>  <SCORE.RESTR.norm>
0

>  <SCORE.SYSTEM>
0

>  <SCORE.SYSTEM.CONST>
0

>  <SCORE.SYSTEM.DIHEDRAL>
0

>  <SCORE.SYSTEM.SOLV>
0

>  <SCORE.SYSTEM.norm>
0

>  <SCORE.heavy>
42

>  <SCORE.norm>
-1.00148

>  <RMSD>
8.244

$$$$
1pbr
 OpenBabel11021811403D
libRbt.so/2013.1/901 2013/11/27
 42 45  0  0  0  0  0  0  0  0999 V2000
    4.0176   -0.1599   45.9673 C   0  0  2  0  0  0  0  0  0  0  0  0
    4.1441   -1.6012   46.0668 O   0  0  0  0  0  0  0  0  0  0  0  0
    2.9138    0.3741   46.9547 C   0  0  2  0  0  0  0  0  0  0  0  0
    2.9214   -0.2699   48.2939 N   0  3  0  0  0  0  0  0  0  0  0  0
    1.4970    0.1694   46.3859 C   0  0  1  0  0  0  0  0  0  0  0  0
    0.5343    0.8863   47.1556 O   0  0  0  0  0  0  0  0  0  0  0  0
    1.4198    0.6234   44.9205 C   0  0  2  0  0  0  0  0  0  0  0  0
    0.0935    0.4676   44.4256 O   0  0  0  0  0  0  0  0  0  0  0  0
    2.4638   -0.1229   44.0605 C   0  0  2  0  0  0  0  0  0  0  0  0
    3.7630    0.2209   44.5869 O   0  0  0  0  0  0  0  0  0  0  0  0
    2.4421    0.2541   42.5802 C   0  0  0  0  0  0  0  0  0  0  0  0
    1.2445   -0.1865   41.9539 O   0  0  0  0  0  0  0  0  0  0  0  0
    6.9292   -1.9662   42.8546 C   0  0  1  0  0  0  0  0  0  0  0  0
    7.9882   -2.3715   41.9123 N   0  3  0  0  0  0  0  0  0  0  0  0
    5.7213   -2.9514   42.8446 C   0  0  2  0  0  0  0  0  0  0  0  0
    5.1531   -3.0288   41.5393 O   0  0  0  0  0  0  0  0  0  0  0  0
    4.6119   -2.4957   43.8372 C   0  0  1  0  0  0  0  0  0  0  0  0
    3.5941   -3.5377   43.9089 O   0  0  0  0  0  0  0  0  0  0  0  0
    5.1793   -2.2241   45.2688 C   0  0  1  0  0  0  0  0  0  0  0  0
    6.4232   -1.2788   45.2591 C   0  0  1  0  0  0  0  0  0  0  0  0
    6.9971   -1.1205   46.6137 N   0  3  0  0  0  0  0  0  0  0  0  0
    7.5096   -1.8147   44.2912 C   0  0  0  0  0  0  0  0  0  0  0  0
    3.8300   -4.7362   44.7149 C   0  0  1  0  0  0  0  0  0  0  0  0
    2.5420   -5.0705   45.4904 C   0  0  2  0  0  0  0  0  0  0  0  0
    2.8338   -5.8085   46.6738 O   0  0  0  0  0  0  0  0  0  0  0  0
    1.8372   -5.9283   44.4287 C   0  0  1  0  0  0  0  0  0  0  0  0
    2.9719   -6.7918   43.9029 C   0  0  2  0  0  0  0  0  0  0  0  0
    4.0544   -5.8745   43.8644 O   0  0  0  0  0  0  0  0  0  0  0  0
    2.7398   -7.4012   42.5142 C   0  0  0  0  0  0  0  0  0  0  0  0
    3.8400   -8.2229   42.1525 O   0  0  0  0  0  0  0  0  0  0  0  0
   -2.2974   -8.0858   42.1427 C   0  0  1  0  0  0  0  0  0  0  0  0
   -1.9259   -9.4622   42.1904 O   0  0  0  0  0  0  0  0  0  0  0  0
   -2.7835   -7.6342   43.5482 C   0  0  2  0  0  0  0  0  0  0  0  0
   -3.4899   -6.4036   43.4099 O   0  0  0  0  0  0  0  0  0  0  0  0
   -1.6587   -7.4510   44.6192 C   0  0  1  0  0  0  0  0  0  0  0  0
   -1.3463   -8.7457   45.2636 N   0  3  0  0  0  0  0  0  0  0  0  0
   -0.4041   -6.7570   44.0267 C   0  0  1  0  0  0  0  0  0  0  0  0
    0.7428   -6.7549   44.9120 O   0  0  0  0  0  0  0  0  0  0  0  0
   -1.0911   -7.2188   41.7024 C   0  0  1  0  0  0  0  0  0  0  0  0
   -0.0638   -7.3405   42.7239 O   0  0  0  0  0  0  0  0  0  0  0  0
   -0.5340   -7.5855   40.3141 C   0  0  0  0  0  0  0  0  0  0  0  0
    0.3153   -6.5226   39.7418 N   0  3  0  0  0  0  0  0  0  0  0  0
  1  2  1  6  0  0  0
  1  3  1  0  0  0  0
  1 10  1  0  0  0  0
  3  4  1  1  0  0  0
  3  5  1  0  0  0  0
  5  6  1  1  0  0  0
  5  7  1  0  0  0  0
  7  8  1  6  0  0  0
  7  9  1  0  0  0  0
  9 10  1  0  0  0  0
  9 11  1  6  0  0  0
 11 12  1  0  0  0  0
 13 14  1  6  0  0  0
 13 15  1  0  0  0  0
 13 22  1  0  0  0  0
 15 16  1  6  0  0  0
 15 17  1  0  0  0  0
 17 18  1  1  0  0  0
 17 19  1  0  0  0  0
 19  2  1  1  0  0  0
 19 20  1  0  0  0  0
 20 21  1  1  0  0  0
 20 22  1  0  0  0  0
 23 18  1  6  0  0  0
 23 24  1  0  0  0  0
 23 28  1  0  0  0  0
 24 25  1  1  0  0  0
 24 26  1  0  0  0  0
 26 27  1  0  0  0  0
 26 38  1  1  0  0  0
 27 28  1  0  0  0  0
 27 29  1  6  0  0  0
 29 30  1  0  0  0  0
 31 32  1  1  0  0  0
 31 33  1  0  0  0  0
 31 39  1  0  0  0  0
 33 34  1  6  0  0  0
 33 35  1  0  0  0  0
 35 36  1  6  0  0  0
 35 37  1  0  0  0  0
 37 38  1  1  0  0  0
 37 40  1  0  0  0  0
 39 40  1  0  0  0  0
 39 41  1  6  0  0  0
 41 42  1  0  0  0  0
M  CHG  5   4   1  14   1  21   1  36   1  42   1
M  END
>  <CHROM.1>
-176.54113966,-85.48652045,163.56413734,-66.26255223,60.44277993,-67.64820014
51.80406020,-64.73507634,-58.00438910,78.53852655,137.34057733,70.66796035
-57.82293108,138.01111222,-177.84726770,-177.71962851,64.72612043,64.50795783
42.85043759,-171.13878351,162.58419429,172.42390399,2.30744475,-3.87186501
44.04024858,0.93308276,0.19757619,0.44577407

>  <Name>
1pbr

>  <RI>
0

>  <Rbt.Current_Directory>
/home/itssahil/PROJECTS/Mol_Feturizer/New_Systems/rnas/1pbr

>  <Rbt.Executable>
rbdock ($Id: //depot/dev/client3/rdock/2013.1/src/exe/rbdock.cxx#4 $)

>  <Rbt.Library>
libRbt.so (2013.1, Build901 2013/11/27)

>  <Rbt.Parameter_File>
/export/apps/rDock/src/rDock_2013.1_src/data/scripts/dock_solv.prm

>  <Rbt.Receptor>
prm/pocket_docking_8.prm

>  <SCORE>
-37.0791

>  <SCORE.INTER>
-32.002

>  <SCORE.INTER.CONST>
1

>  <SCORE.INTER.POLAR>
-4.11443

>  <SCORE.INTER.ROT>
9

>  <SCORE.INTER.SOLV>
27.1548

>  <SCORE.INTER.VDW>
-26.2715

>  <SCORE.INTER.norm>
-0.761953

>  <SCORE.INTRA>
-5.07705

>  <SCORE.INTRA.DIHEDRAL>
-8.70474

>  <SCORE.INTRA.DIHEDRAL.0>
29.7866

>  <SCORE.INTRA.POLAR>
0.07691

>  <SCORE.INTRA.POLAR.0>
-0.984091

>  <SCORE.INTRA.REPUL>
-0.274115

>  <SCORE.INTRA.REPUL.0>
0.274115

>  <SCORE.INTRA.SOLV>
-3.61382

>  <SCORE.INTRA.SOLV.lig_0>
-152.978

>  <SCORE.INTRA.VDW>
2.19131

>  <SCORE.INTRA.VDW.0>
-6.10719

>  <SCORE.INTRA.norm>
-0.120882

>  <SCORE.RESTR>
0

>  <SCORE.RESTR.CAVITY>
0

>  <SCORE.RESTR.norm>
0

>  <SCORE.SYSTEM>
0

>  <SCORE.SYSTEM.CONST>
0

>  <SCORE.SYSTEM.DIHEDRAL>
0

>  <SCORE.SYSTEM.SOLV>
0

>  <SCORE.SYSTEM.norm>
0

>  <SCORE.heavy>
42

>  <SCORE.norm>
-0.882835

>  <RMSD>
8.248

$$$$
1pbr
 OpenBabel11021811403D
libRbt.so/2013.1/901 2013/11/27
 42 45  0  0  0  0  0  0  0  0999 V2000
    1.5026    2.7326   38.4622 C   0  0  2  0  0  0  0  0  0  0  0  0
    2.1784    1.5539   37.9554 O   0  0  0  0  0  0  0  0  0  0  0  0
    0.6040    2.3718   39.7034 C   0  0  2  0  0  0  0  0  0  0  0  0
    1.2255    1.4168   40.6573 N   0  3  0  0  0  0  0  0  0  0  0  0
   -0.7331    1.7408   39.2713 C   0  0  1  0  0  0  0  0  0  0  0  0
   -1.6360    1.6647   40.3724 O   0  0  0  0  0  0  0  0  0  0  0  0
   -1.3811    2.5452   38.1344 C   0  0  2  0  0  0  0  0  0  0  0  0
   -2.6356    1.9727   37.7784 O   0  0  0  0  0  0  0  0  0  0  0  0
   -0.4207    2.6617   36.9300 C   0  0  2  0  0  0  0  0  0  0  0  0
    0.7488    3.3693   37.3937 O   0  0  0  0  0  0  0  0  0  0  0  0
   -0.9950    3.4315   35.7419 C   0  0  0  0  0  0  0  0  0  0  0  0
    0.0271    4.1138   35.0276 O   0  0  0  0  0  0  0  0  0  0  0  0
    5.8876    0.7117   36.0212 C   0  0  1  0  0  0  0  0  0  0  0  0
    7.2818    0.6789   35.5427 N   0  3  0  0  0  0  0  0  0  0  0  0
    5.7646    0.2747   37.5123 C   0  0  2  0  0  0  0  0  0  0  0  0
    6.2661   -1.0485   37.6860 O   0  0  0  0  0  0  0  0  0  0  0  0
    4.2832    0.3053   37.9900 C   0  0  1  0  0  0  0  0  0  0  0  0
    4.2515    0.0545   39.4264 O   0  0  0  0  0  0  0  0  0  0  0  0
    3.5959    1.6767   37.6866 C   0  0  1  0  0  0  0  0  0  0  0  0
    3.7737    2.1290   36.2019 C   0  0  1  0  0  0  0  0  0  0  0  0
    3.2001    3.4732   35.9699 N   0  3  0  0  0  0  0  0  0  0  0  0
    5.2726    2.1254   35.8049 C   0  0  0  0  0  0  0  0  0  0  0  0
    5.1936    0.7429   40.3099 C   0  0  1  0  0  0  0  0  0  0  0  0
    4.5382    0.9128   41.6933 C   0  0  2  0  0  0  0  0  0  0  0  0
    5.0973    2.0216   42.3919 O   0  0  0  0  0  0  0  0  0  0  0  0
    4.9413   -0.4317   42.3177 C   0  0  1  0  0  0  0  0  0  0  0  0
    6.3893   -0.5729   41.8784 C   0  0  2  0  0  0  0  0  0  0  0  0
    6.3489   -0.0807   40.5477 O   0  0  0  0  0  0  0  0  0  0  0  0
    6.9424   -2.0037   41.9011 C   0  0  0  0  0  0  0  0  0  0  0  0
    6.9562   -2.4998   43.2315 O   0  0  0  0  0  0  0  0  0  0  0  0
    0.7573   -0.8039   45.1760 C   0  0  1  0  0  0  0  0  0  0  0  0
    0.7360   -2.2295   45.2231 O   0  0  0  0  0  0  0  0  0  0  0  0
    1.8092   -0.2705   46.1882 C   0  0  2  0  0  0  0  0  0  0  0  0
    1.5659    1.1173   46.4060 O   0  0  0  0  0  0  0  0  0  0  0  0
    3.3026   -0.4589   45.7641 C   0  0  1  0  0  0  0  0  0  0  0  0
    3.7797   -1.8064   46.1457 N   0  3  0  0  0  0  0  0  0  0  0  0
    3.5197   -0.1489   44.2596 C   0  0  1  0  0  0  0  0  0  0  0  0
    4.8326   -0.5113   43.7656 O   0  0  0  0  0  0  0  0  0  0  0  0
    1.1120   -0.3189   43.7478 C   0  0  1  0  0  0  0  0  0  0  0  0
    2.4627   -0.7683   43.4518 O   0  0  0  0  0  0  0  0  0  0  0  0
    0.1240   -0.7927   42.6655 C   0  0  0  0  0  0  0  0  0  0  0  0
    0.0976   -2.2614   42.5213 N   0  3  0  0  0  0  0  0  0  0  0  0
  1  2  1  6  0  0  0
  1  3  1  0  0  0  0
  1 10  1  0  0  0  0
  3  4  1  1  0  0  0
  3  5  1  0  0  0  0
  5  6  1  1  0  0  0
  5  7  1  0  0  0  0
  7  8  1  6  0  0  0
  7  9  1  0  0  0  0
  9 10  1  0  0  0  0
  9 11  1  6  0  0  0
 11 12  1  0  0  0  0
 13 14  1  1  0  0  0
 13 15  1  0  0  0  0
 13 22  1  0  0  0  0
 15 16  1  6  0  0  0
 15 17  1  0  0  0  0
 17 18  1  1  0  0  0
 17 19  1  0  0  0  0
 19  2  1  6  0  0  0
 19 20  1  0  0  0  0
 20 21  1  1  0  0  0
 20 22  1  0  0  0  0
 23 18  1  6  0  0  0
 23 24  1  0  0  0  0
 23 28  1  0  0  0  0
 24 25  1  1  0  0  0
 24 26  1  0  0  0  0
 26 27  1  0  0  0  0
 26 38  1  1  0  0  0
 27 28  1  0  0  0  0
 27 29  1  6  0  0  0
 29 30  1  0  0  0  0
 31 32  1  6  0  0  0
 31 33  1  0  0  0  0
 31 39  1  0  0  0  0
 33 34  1  6  0  0  0
 33 35  1  0  0  0  0
 35 36  1  6  0  0  0
 35 37  1  0  0  0  0
 37 38  1  6  0  0  0
 37 40  1  0  0  0  0
 39 40  1  0  0  0  0
 39 41  1  6  0  0  0
 41 42  1  0  0  0  0
M  CHG  5   4   1  14   1  21   1  36   1  42   1
M  END
>  <CHROM.1>
-132.56154633,146.56758151,37.19899870,174.87049130,172.31100370,148.70896465
81.43625858,169.52726834,71.18884797,45.26840106,150.59597989,-63.42779448
-137.49364472,53.87578325,-63.79510702,51.00789173,51.65098702,-64.65526943
-23.08084540,169.96043866,-63.09196942,-81.12899804,2.81262075,0.66513177
40.41713396,1.72004237,0.25797305,-1.21077842

>  <Name>
1pbr

>  <RI>
0

>  <Rbt.Current_Directory>
/home/itssahil/PROJECTS/Mol_Feturizer/New_Systems/rnas/1pbr

>  <Rbt.Executable>
rbdock ($Id: //depot/dev/client3/rdock/2013.1/src/exe/rbdock.cxx#4 $)

>  <Rbt.Library>
libRbt.so (2013.1, Build901 2013/11/27)

>  <Rbt.Parameter_File>
/export/apps/rDock/src/rDock_2013.1_src/data/scripts/dock_solv.prm

>  <Rbt.Receptor>
prm/pocket_docking_7.prm

>  <SCORE>
-53.3609

>  <SCORE.INTER>
-53.9722

>  <SCORE.INTER.CONST>
1

>  <SCORE.INTER.POLAR>
-7.25254

>  <SCORE.INTER.ROT>
9

>  <SCORE.INTER.SOLV>
24.7704

>  <SCORE.INTER.VDW>
-29.6632

>  <SCORE.INTER.norm>
-1.28505

>  <SCORE.INTRA>
0.611348

>  <SCORE.INTRA.DIHEDRAL>
3.74707

>  <SCORE.INTRA.DIHEDRAL.0>
29.7866

>  <SCORE.INTRA.POLAR>
-1.53977

>  <SCORE.INTRA.POLAR.0>
-0.984091

>  <SCORE.INTRA.REPUL>
-0.274115

>  <SCORE.INTRA.REPUL.0>
0.274115

>  <SCORE.INTRA.SOLV>
8.00888

>  <SCORE.INTRA.SOLV.lig_0>
-152.978

>  <SCORE.INTRA.VDW>
1.33916

>  <SCORE.INTRA.VDW.0>
-6.10719

>  <SCORE.INTRA.norm>
0.0145559

>  <SCORE.RESTR>
0

>  <SCORE.RESTR.CAVITY>
0

>  <SCORE.RESTR.norm>
0

>  <SCORE.SYSTEM>
0

>  <SCORE.SYSTEM.CONST>
0

>  <SCORE.SYSTEM.DIHEDRAL>
0

>  <SCORE.SYSTEM.SOLV>
0

>  <SCORE.SYSTEM.norm>
0

>  <SCORE.heavy>
42

>  <SCORE.norm>
-1.2705

>  <RMSD>
8.250

$$$$
1pbr
 OpenBabel11021811403D
libRbt.so/2013.1/901 2013/11/27
 42 45  0  0  0  0  0  0  0  0999 V2000
    2.2225    1.5155   36.0795 C   0  0  2  0  0  0  0  0  0  0  0  0
    3.5377    1.3480   36.6674 O   0  0  0  0  0  0  0  0  0  0  0  0
    2.2574    2.5877   34.9274 C   0  0  2  0  0  0  0  0  0  0  0  0
    3.4495    2.5044   34.0440 N   0  3  0  0  0  0  0  0  0  0  0  0
    2.2349    4.0226   35.4870 C   0  0  1  0  0  0  0  0  0  0  0  0
    2.0007    4.9682   34.4458 O   0  0  0  0  0  0  0  0  0  0  0  0
    1.1551    4.1761   36.5687 C   0  0  2  0  0  0  0  0  0  0  0  0
    1.1198    5.5186   37.0427 O   0  0  0  0  0  0  0  0  0  0  0  0
    1.3698    3.1525   37.7056 C   0  0  2  0  0  0  0  0  0  0  0  0
    1.2546    1.8405   37.1153 O   0  0  0  0  0  0  0  0  0  0  0  0
    0.3487    3.2493   38.8379 C   0  0  0  0  0  0  0  0  0  0  0  0
   -0.7123    2.3212   38.6554 O   0  0  0  0  0  0  0  0  0  0  0  0
    2.7612   -2.5922   38.1096 C   0  0  1  0  0  0  0  0  0  0  0  0
    2.7881   -3.9101   38.7703 N   0  3  0  0  0  0  0  0  0  0  0  0
    2.5605   -1.4267   39.1249 C   0  0  2  0  0  0  0  0  0  0  0  0
    1.3380   -1.5940   39.8392 O   0  0  0  0  0  0  0  0  0  0  0  0
    2.5228   -0.0481   38.4027 C   0  0  1  0  0  0  0  0  0  0  0  0
    2.5051    1.0057   39.4108 O   0  0  0  0  0  0  0  0  0  0  0  0
    3.7535    0.1554   37.4598 C   0  0  1  0  0  0  0  0  0  0  0  0
    3.9756   -1.0447   36.4846 C   0  0  1  0  0  0  0  0  0  0  0  0
    5.2022   -0.8692   35.6758 N   0  3  0  0  0  0  0  0  0  0  0  0
    4.0546   -2.3797   37.2696 C   0  0  0  0  0  0  0  0  0  0  0  0
    3.7519    1.4253   40.0521 C   0  0  1  0  0  0  0  0  0  0  0  0
    3.4647    1.7349   41.5333 C   0  0  2  0  0  0  0  0  0  0  0  0
    4.4142    2.6596   42.0564 O   0  0  0  0  0  0  0  0  0  0  0  0
    3.6456    0.3242   42.1138 C   0  0  1  0  0  0  0  0  0  0  0  0
    4.8881   -0.1681   41.3905 C   0  0  2  0  0  0  0  0  0  0  0  0
    4.6916    0.3363   40.0784 O   0  0  0  0  0  0  0  0  0  0  0  0
    5.0631   -1.6919   41.3552 C   0  0  0  0  0  0  0  0  0  0  0  0
    5.9224   -2.0592   40.2861 O   0  0  0  0  0  0  0  0  0  0  0  0
    0.8067   -0.4812   46.5576 C   0  0  1  0  0  0  0  0  0  0  0  0
    1.6521   -1.2528   47.4089 O   0  0  0  0  0  0  0  0  0  0  0  0
    1.3569    0.9693   46.4624 C   0  0  2  0  0  0  0  0  0  0  0  0
    0.3326    1.8091   45.9350 O   0  0  0  0  0  0  0  0  0  0  0  0
    2.6456    1.1413   45.5932 C   0  0  1  0  0  0  0  0  0  0  0  0
    3.8521    0.8532   46.3995 N   0  3  0  0  0  0  0  0  0  0  0  0
    2.5799    0.3021   44.2900 C   0  0  1  0  0  0  0  0  0  0  0  0
    3.8275    0.2548   43.5549 O   0  0  0  0  0  0  0  0  0  0  0  0
    0.7477   -1.1126   45.1439 C   0  0  1  0  0  0  0  0  0  0  0  0
    2.0846   -1.0493   44.5760 O   0  0  0  0  0  0  0  0  0  0  0  0
    0.2100   -2.5557   45.1281 C   0  0  0  0  0  0  0  0  0  0  0  0
   -1.0919   -2.6865   45.8112 N   0  3  0  0  0  0  0  0  0  0  0  0
  1  2  1  1  0  0  0
  1  3  1  0  0  0  0
  1 10  1  0  0  0  0
  3  4  1  1  0  0  0
  3  5  1  0  0  0  0
  5  6  1  6  0  0  0
  5  7  1  0  0  0  0
  7  8  1  1  0  0  0
  7  9  1  0  0  0  0
  9 10  1  0  0  0  0
  9 11  1  1  0  0  0
 11 12  1  0  0  0  0
 13 14  1  1  0  0  0
 13 15  1  0  0  0  0
 13 22  1  0  0  0  0
 15 16  1  6  0  0  0
 15 17  1  0  0  0  0
 17 18  1  1  0  0  0
 17 19  1  0  0  0  0
 19  2  1  6  0  0  0
 19 20  1  0  0  0  0
 20 21  1  1  0  0  0
 20 22  1  0  0  0  0
 23 18  1  6  0  0  0
 23 24  1  0  0  0  0
 23 28  1  0  0  0  0
 24 25  1  1  0  0  0
 24 26  1  0  0  0  0
 26 27  1  0  0  0  0
 26 38  1  1  0  0  0
 27 28  1  0  0  0  0
 27 29  1  6  0  0  0
 29 30  1  0  0  0  0
 31 32  1  1  0  0  0
 31 33  1  0  0  0  0
 31 39  1  0  0  0  0
 33 34  1  6  0  0  0
 33 35  1  0  0  0  0
 35 36  1  1  0  0  0
 35 37  1  0  0  0  0
 37 38  1  1  0  0  0
 37 40  1  0  0  0  0
 39 40  1  0  0  0  0
 39 41  1  1  0  0  0
 41 42  1  0  0  0  0
M  CHG  5   4   1  14   1  21   1  36   1  42   1
M  END
>  <CHROM.1>
-163.04405741,-44.87796698,78.13252078,-171.38869712,-36.65522427,95.78032487
170.99870703,66.20841781,175.87100957,80.90892450,-142.63691577,169.68245121
-55.33684735,82.37067318,158.51509908,-45.38826026,56.88401347,63.81296824
-141.59212922,-140.90700652,52.90495728,37.46200738,2.53492930,0.55533367
40.34698730,1.38238625,1.06690350,-1.12813780

>  <Name>
1pbr

>  <RI>
0

>  <Rbt.Current_Directory>
/home/itssahil/PROJECTS/Mol_Feturizer/New_Systems/rnas/1pbr

>  <Rbt.Executable>
rbdock ($Id: //depot/dev/client3/rdock/2013.1/src/exe/rbdock.cxx#4 $)

>  <Rbt.Library>
libRbt.so (2013.1, Build901 2013/11/27)

>  <Rbt.Parameter_File>
/export/apps/rDock/src/rDock_2013.1_src/data/scripts/dock_solv.prm

>  <Rbt.Receptor>
prm/blind_docking_60.prm

>  <SCORE>
-5.73749

>  <SCORE.INTER>
-13.5159

>  <SCORE.INTER.CONST>
1

>  <SCORE.INTER.POLAR>
-4.75974

>  <SCORE.INTER.ROT>
9

>  <SCORE.INTER.SOLV>
37.771

>  <SCORE.INTER.VDW>
-15.3351

>  <SCORE.INTER.norm>
-0.321807

>  <SCORE.INTRA>
3.78788

>  <SCORE.INTRA.DIHEDRAL>
1.63386

>  <SCORE.INTRA.DIHEDRAL.0>
29.7866

>  <SCORE.INTRA.POLAR>
0.707316

>  <SCORE.INTRA.POLAR.0>
-0.984091

>  <SCORE.INTRA.REPUL>
-0.274115

>  <SCORE.INTRA.REPUL.0>
0.274115

>  <SCORE.INTRA.SOLV>
-1.09711

>  <SCORE.INTRA.SOLV.lig_0>
-152.978

>  <SCORE.INTRA.VDW>
2.4852

>  <SCORE.INTRA.VDW.0>
-6.10719

>  <SCORE.INTRA.norm>
0.0901877

>  <SCORE.RESTR>
3.99052

>  <SCORE.RESTR.CAVITY>
3.99052

>  <SCORE.RESTR.norm>
0.0950124

>  <SCORE.SYSTEM>
0

>  <SCORE.SYSTEM.CONST>
0

>  <SCORE.SYSTEM.DIHEDRAL>
0

>  <SCORE.SYSTEM.SOLV>
0

>  <SCORE.SYSTEM.norm>
0

>  <SCORE.heavy>
42

>  <SCORE.norm>
-0.136607

>  <RMSD>
8.254

$$$$
1pbr
 OpenBabel11021811403D
libRbt.so/2013.1/901 2013/11/27
 42 45  0  0  0  0  0  0  0  0999 V2000
    4.0429   -1.4876   38.2754 C   0  0  2  0  0  0  0  0  0  0  0  0
    3.1731   -1.9004   37.1909 O   0  0  0  0  0  0  0  0  0  0  0  0
    5.4779   -2.1137   38.1107 C   0  0  2  0  0  0  0  0  0  0  0  0
    5.9940   -2.1134   36.7171 N   0  3  0  0  0  0  0  0  0  0  0  0
    5.5152   -3.5790   38.5839 C   0  0  1  0  0  0  0  0  0  0  0  0
    6.8591   -4.0463   38.6784 O   0  0  0  0  0  0  0  0  0  0  0  0
    4.8228   -3.7368   39.9460 C   0  0  2  0  0  0  0  0  0  0  0  0
    4.9054   -5.0884   40.3872 O   0  0  0  0  0  0  0  0  0  0  0  0
    3.3673   -3.2229   39.8829 C   0  0  2  0  0  0  0  0  0  0  0  0
    3.4327   -1.8192   39.5533 O   0  0  0  0  0  0  0  0  0  0  0  0
    2.5956   -3.3620   41.1941 C   0  0  0  0  0  0  0  0  0  0  0  0
    3.1335   -2.5147   42.2007 O   0  0  0  0  0  0  0  0  0  0  0  0
    3.0377    1.9202   35.2955 C   0  0  1  0  0  0  0  0  0  0  0  0
    2.7208    3.1086   34.4823 N   0  3  0  0  0  0  0  0  0  0  0  0
    1.9560    1.6436   36.3833 C   0  0  2  0  0  0  0  0  0  0  0  0
    1.8313    2.7632   37.2570 O   0  0  0  0  0  0  0  0  0  0  0  0
    2.3191    0.3928   37.2361 C   0  0  1  0  0  0  0  0  0  0  0  0
    1.1965    0.0866   38.1154 O   0  0  0  0  0  0  0  0  0  0  0  0
    2.6374   -0.8531   36.3465 C   0  0  1  0  0  0  0  0  0  0  0  0
    3.6821   -0.5475   35.2260 C   0  0  1  0  0  0  0  0  0  0  0  0
    3.8881   -1.7151   34.3406 N   0  3  0  0  0  0  0  0  0  0  0  0
    3.2373    0.6752   34.3825 C   0  0  0  0  0  0  0  0  0  0  0  0
    0.5837    1.1477   38.9156 C   0  0  1  0  0  0  0  0  0  0  0  0
   -0.5960    0.5509   39.7057 C   0  0  2  0  0  0  0  0  0  0  0  0
   -1.5580    1.5526   40.0240 O   0  0  0  0  0  0  0  0  0  0  0  0
    0.1674    0.0621   40.9460 C   0  0  1  0  0  0  0  0  0  0  0  0
    1.1083    1.2221   41.2265 C   0  0  2  0  0  0  0  0  0  0  0  0
    1.5035    1.6111   39.9199 O   0  0  0  0  0  0  0  0  0  0  0  0
    2.3387    0.8750   42.0746 C   0  0  0  0  0  0  0  0  0  0  0  0
    3.3062    1.9096   41.9760 O   0  0  0  0  0  0  0  0  0  0  0  0
    0.5116   -1.1205   46.1803 C   0  0  1  0  0  0  0  0  0  0  0  0
   -0.7639   -0.8286   46.7483 O   0  0  0  0  0  0  0  0  0  0  0  0
    0.3802   -2.3294   45.2124 C   0  0  2  0  0  0  0  0  0  0  0  0
    1.6839   -2.8422   44.9478 O   0  0  0  0  0  0  0  0  0  0  0  0
   -0.3261   -2.0240   43.8510 C   0  0  1  0  0  0  0  0  0  0  0  0
   -1.7947   -2.1234   43.9997 N   0  3  0  0  0  0  0  0  0  0  0  0
    0.1265   -0.6639   43.2575 C   0  0  1  0  0  0  0  0  0  0  0  0
   -0.6493   -0.2319   42.1127 O   0  0  0  0  0  0  0  0  0  0  0  0
    1.0510    0.1108   45.4098 C   0  0  1  0  0  0  0  0  0  0  0  0
    0.1472    0.3681   44.3005 O   0  0  0  0  0  0  0  0  0  0  0  0
    1.2219    1.3671   46.2843 C   0  0  0  0  0  0  0  0  0  0  0  0
   -0.0124    1.7304   47.0075 N   0  3  0  0  0  0  0  0  0  0  0  0
  1  2  1  6  0  0  0
  1  3  1  0  0  0  0
  1 10  1  0  0  0  0
  3  4  1  6  0  0  0
  3  5  1  0  0  0  0
  5  6  1  1  0  0  0
  5  7  1  0  0  0  0
  7  8  1  6  0  0  0
  7  9  1  0  0  0  0
  9 10  1  0  0  0  0
  9 11  1  1  0  0  0
 11 12  1  0  0  0  0
 13 14  1  6  0  0  0
 13 15  1  0  0  0  0
 13 22  1  0  0  0  0
 15 16  1  1  0  0  0
 15 17  1  0  0  0  0
 17 18  1  1  0  0  0
 17 19  1  0  0  0  0
 19  2  1  1  0  0  0
 19 20  1  0  0  0  0
 20 21  1  6  0  0  0
 20 22  1  0  0  0  0
 23 18  1  6  0  0  0
 23 24  1  0  0  0  0
 23 28  1  0  0  0  0
 24 25  1  1  0  0  0
 24 26  1  0  0  0  0
 26 27  1  0  0  0  0
 26 38  1  1  0  0  0
 27 28  1  0  0  0  0
 27 29  1  1  0  0  0
 29 30  1  0  0  0  0
 31 32  1  6  0  0  0
 31 33  1  0  0  0  0
 31 39  1  0  0  0  0
 33 34  1  6  0  0  0
 33 35  1  0  0  0  0
 35 36  1  1  0  0  0
 35 37  1  0  0  0  0
 37 38  1  6  0  0  0
 37 40  1  0  0  0  0
 39 40  1  0  0  0  0
 39 41  1  1  0  0  0
 41 42  1  0  0  0  0
M  CHG  5   4   1  14   1  21   1  36   1  42   1
M  END
>  <CHROM.1>
-118.92017253,-37.01546234,-53.68278001,169.53399380,175.26866712,66.71982529
81.29987276,164.69125740,-59.11988679,-48.83231481,178.17597121,-9.63480039
130.62909919,-178.90637757,164.52967850,81.67706611,-73.61858374,64.92896915
50.59814908,-125.51429952,-54.03485212,65.33038837,2.09836092,-0.64386703
40.36008127,-0.94965925,-0.85657865,2.05714972

>  <Name>
1pbr

>  <RI>
0

>  <Rbt.Current_Directory>
/home/itssahil/PROJECTS/Mol_Feturizer/New_Systems/rnas/1pbr

>  <Rbt.Executable>
rbdock ($Id: //depot/dev/client3/rdock/2013.1/src/exe/rbdock.cxx#4 $)

>  <Rbt.Library>
libRbt.so (2013.1, Build901 2013/11/27)

>  <Rbt.Parameter_File>
/export/apps/rDock/src/rDock_2013.1_src/data/scripts/dock_solv.prm

>  <Rbt.Receptor>
prm/pocket_docking_7.prm

>  <SCORE>
-32.1801

>  <SCORE.INTER>
-41.6815

>  <SCORE.INTER.CONST>
1

>  <SCORE.INTER.POLAR>
-7.65391

>  <SCORE.INTER.ROT>
9

>  <SCORE.INTER.SOLV>
45.1222

>  <SCORE.INTER.VDW>
-26.9154

>  <SCORE.INTER.norm>
-0.992416

>  <SCORE.INTRA>
9.5014

>  <SCORE.INTRA.DIHEDRAL>
5.39217

>  <SCORE.INTRA.DIHEDRAL.0>
29.7866

>  <SCORE.INTRA.POLAR>
0.695827

>  <SCORE.INTRA.POLAR.0>
-0.984091

>  <SCORE.INTRA.REPUL>
-0.274115

>  <SCORE.INTRA.REPUL.0>
0.274115

>  <SCORE.INTRA.SOLV>
5.52643

>  <SCORE.INTRA.SOLV.lig_0>
-152.978

>  <SCORE.INTRA.VDW>
3.04686

>  <SCORE.INTRA.VDW.0>
-6.10719

>  <SCORE.INTRA.norm>
0.226224

>  <SCORE.RESTR>
0

>  <SCORE.RESTR.CAVITY>
0

>  <SCORE.RESTR.norm>
0

>  <SCORE.SYSTEM>
0

>  <SCORE.SYSTEM.CONST>
0

>  <SCORE.SYSTEM.DIHEDRAL>
0

>  <SCORE.SYSTEM.SOLV>
0

>  <SCORE.SYSTEM.norm>
0

>  <SCORE.heavy>
42

>  <SCORE.norm>
-0.766192

>  <RMSD>
8.259

$$$$
1pbr
 OpenBabel11021811403D
libRbt.so/2013.1/901 2013/11/27
 42 45  0  0  0  0  0  0  0  0999 V2000
    3.2805    1.2947   36.7077 C   0  0  2  0  0  0  0  0  0  0  0  0
    3.7502    0.9445   38.0343 O   0  0  0  0  0  0  0  0  0  0  0  0
    3.9494    2.6309   36.2123 C   0  0  2  0  0  0  0  0  0  0  0  0
    5.3954    2.7521   36.5331 N   0  3  0  0  0  0  0  0  0  0  0  0
    3.2667    3.8682   36.8252 C   0  0  1  0  0  0  0  0  0  0  0  0
    3.7001    5.0602   36.1735 O   0  0  0  0  0  0  0  0  0  0  0  0
    1.7375    3.7599   36.7275 C   0  0  2  0  0  0  0  0  0  0  0  0
    1.1256    4.9309   37.2589 O   0  0  0  0  0  0  0  0  0  0  0  0
    1.2357    2.4681   37.4101 C   0  0  2  0  0  0  0  0  0  0  0  0
    1.8276    1.3609   36.6981 O   0  0  0  0  0  0  0  0  0  0  0  0
   -0.2813    2.2901   37.3775 C   0  0  0  0  0  0  0  0  0  0  0  0
   -0.9337    3.2879   38.1518 O   0  0  0  0  0  0  0  0  0  0  0  0
    3.9201   -3.2303   37.1681 C   0  0  1  0  0  0  0  0  0  0  0  0
    4.1410   -4.6880   37.1667 N   0  3  0  0  0  0  0  0  0  0  0  0
    2.9074   -2.7876   38.2673 C   0  0  2  0  0  0  0  0  0  0  0  0
    1.6498   -3.4305   38.0734 O   0  0  0  0  0  0  0  0  0  0  0  0
    2.6813   -1.2476   38.2404 C   0  0  1  0  0  0  0  0  0  0  0  0
    1.8646   -0.8763   39.3902 O   0  0  0  0  0  0  0  0  0  0  0  0
    4.0284   -0.4547   38.2821 C   0  0  1  0  0  0  0  0  0  0  0  0
    5.0545   -0.9453   37.2110 C   0  0  1  0  0  0  0  0  0  0  0  0
    6.3522   -0.2460   37.3399 N   0  3  0  0  0  0  0  0  0  0  0  0
    5.2730   -2.4763   37.3241 C   0  0  0  0  0  0  0  0  0  0  0  0
    1.5940    0.5345   39.6701 C   0  0  1  0  0  0  0  0  0  0  0  0
    0.3408    0.6292   40.5603 C   0  0  2  0  0  0  0  0  0  0  0  0
   -0.3064    1.8885   40.4010 O   0  0  0  0  0  0  0  0  0  0  0  0
    1.0109    0.4891   41.9355 C   0  0  1  0  0  0  0  0  0  0  0  0
    2.2368    1.3757   41.7915 C   0  0  2  0  0  0  0  0  0  0  0  0
    2.6533    1.0989   40.4631 O   0  0  0  0  0  0  0  0  0  0  0  0
    3.3741    1.0834   42.7788 C   0  0  0  0  0  0  0  0  0  0  0  0
    3.7235   -0.2919   42.7265 O   0  0  0  0  0  0  0  0  0  0  0  0
    0.9299   -0.2969   47.1619 C   0  0  1  0  0  0  0  0  0  0  0  0
    0.8725    1.0232   47.6994 O   0  0  0  0  0  0  0  0  0  0  0  0
   -0.4539   -0.6689   46.5601 C   0  0  2  0  0  0  0  0  0  0  0  0
   -0.5018   -2.0813   46.3719 O   0  0  0  0  0  0  0  0  0  0  0  0
   -0.8059    0.0311   45.2066 C   0  0  1  0  0  0  0  0  0  0  0  0
   -1.3950    1.3653   45.4555 N   0  3  0  0  0  0  0  0  0  0  0  0
    0.4131    0.0824   44.2484 C   0  0  1  0  0  0  0  0  0  0  0  0
    0.2062    0.9044   43.0734 O   0  0  0  0  0  0  0  0  0  0  0  0
    2.0189   -0.3825   46.0630 C   0  0  1  0  0  0  0  0  0  0  0  0
    1.6187    0.4957   44.9756 O   0  0  0  0  0  0  0  0  0  0  0  0
    3.4344   -0.0345   46.5601 C   0  0  0  0  0  0  0  0  0  0  0  0
    4.4948   -0.6214   45.7177 N   0  3  0  0  0  0  0  0  0  0  0  0
  1  2  1  1  0  0  0
  1  3  1  0  0  0  0
  1 10  1  0  0  0  0
  3  4  1  1  0  0  0
  3  5  1  0  0  0  0
  5  6  1  6  0  0  0
  5  7  1  0  0  0  0
  7  8  1  1  0  0  0
  7  9  1  0  0  0  0
  9 10  1  0  0  0  0
  9 11  1  6  0  0  0
 11 12  1  0  0  0  0
 13 14  1  1  0  0  0
 13 15  1  0  0  0  0
 13 22  1  0  0  0  0
 15 16  1  6  0  0  0
 15 17  1  0  0  0  0
 17 18  1  1  0  0  0
 17 19  1  0  0  0  0
 19  2  1  6  0  0  0
 19 20  1  0  0  0  0
 20 21  1  1  0  0  0
 20 22  1  0  0  0  0
 23 18  1  1  0  0  0
 23 24  1  0  0  0  0
 23 28  1  0  0  0  0
 24 25  1  1  0  0  0
 24 26  1  0  0  0  0
 26 27  1  0  0  0  0
 26 38  1  1  0  0  0
 27 28  1  0  0  0  0
 27 29  1  1  0  0  0
 29 30  1  0  0  0  0
 31 32  1  6  0  0  0
 31 33  1  0  0  0  0
 31 39  1  0  0  0  0
 33 34  1  6  0  0  0
 33 35  1  0  0  0  0
 35 36  1  1  0  0  0
 35 37  1  0  0  0  0
 37 38  1  6  0  0  0
 37 40  1  0  0  0  0
 39 40  1  0  0  0  0
 39 41  1  1  0  0  0
 41 42  1  0  0  0  0
M  CHG  5   4   1  14   1  21   1  36   1  42   1
M  END
>  <CHROM.1>
-139.26576295,-67.33835376,-39.29279821,-41.21420097,-60.02533496,-65.98325589
-67.05525835,56.86884106,163.93359513,174.85418779,159.18350458,127.69954336
-157.57417448,143.91152209,53.18181745,75.43082347,-81.77933774,87.35444137
-59.07507882,-153.04384068,156.81702026,-96.15014654,2.18138808,0.51644222
40.54271725,1.06546259,0.98893943,-1.00414117

>  <Name>
1pbr

>  <RI>
0

>  <Rbt.Current_Directory>
/home/itssahil/PROJECTS/Mol_Feturizer/New_Systems/rnas/1pbr

>  <Rbt.Executable>
rbdock ($Id: //depot/dev/client3/rdock/2013.1/src/exe/rbdock.cxx#4 $)

>  <Rbt.Library>
libRbt.so (2013.1, Build901 2013/11/27)

>  <Rbt.Parameter_File>
/export/apps/rDock/src/rDock_2013.1_src/data/scripts/dock_solv.prm

>  <Rbt.Receptor>
prm/blind_docking_100.prm

>  <SCORE>
-40.8254

>  <SCORE.INTER>
-47.2315

>  <SCORE.INTER.CONST>
1

>  <SCORE.INTER.POLAR>
-8.35983

>  <SCORE.INTER.ROT>
9

>  <SCORE.INTER.SOLV>
41.5475

>  <SCORE.INTER.VDW>
-27.0708

>  <SCORE.INTER.norm>
-1.12456

>  <SCORE.INTRA>
4.6116

>  <SCORE.INTRA.DIHEDRAL>
6.50379

>  <SCORE.INTRA.DIHEDRAL.0>
29.7866

>  <SCORE.INTRA.POLAR>
-1.28463

>  <SCORE.INTRA.POLAR.0>
-0.984091

>  <SCORE.INTRA.REPUL>
-0.104508

>  <SCORE.INTRA.REPUL.0>
0.274115

>  <SCORE.INTRA.SOLV>
6.07396

>  <SCORE.INTRA.SOLV.lig_0>
-152.978

>  <SCORE.INTRA.VDW>
3.21302

>  <SCORE.INTRA.VDW.0>
-6.10719

>  <SCORE.INTRA.norm>
0.1098

>  <SCORE.RESTR>
1.79453

>  <SCORE.RESTR.CAVITY>
1.79453

>  <SCORE.RESTR.norm>
0.042727

>  <SCORE.SYSTEM>
0

>  <SCORE.SYSTEM.CONST>
0

>  <SCORE.SYSTEM.DIHEDRAL>
0

>  <SCORE.SYSTEM.SOLV>
0

>  <SCORE.SYSTEM.norm>
0

>  <SCORE.heavy>
42

>  <SCORE.norm>
-0.972033

>  <RMSD>
8.269

$$$$
1pbr
 OpenBabel11021811403D
libRbt.so/2013.1/901 2013/11/27
 42 45  0  0  0  0  0  0  0  0999 V2000
    3.9630    1.8231   38.5019 C   0  0  2  0  0  0  0  0  0  0  0  0
    2.8359    2.7316   38.4159 O   0  0  0  0  0  0  0  0  0  0  0  0
    5.0425    2.1661   37.4086 C   0  0  2  0  0  0  0  0  0  0  0  0
    5.2861    3.6196   37.2179 N   0  3  0  0  0  0  0  0  0  0  0  0
    4.6475    1.6103   36.0275 C   0  0  1  0  0  0  0  0  0  0  0  0
    5.7414    1.6940   35.1166 O   0  0  0  0  0  0  0  0  0  0  0  0
    4.1813    0.1504   36.1329 C   0  0  2  0  0  0  0  0  0  0  0  0
    3.8623   -0.3595   34.8420 O   0  0  0  0  0  0  0  0  0  0  0  0
    3.0060    0.0217   37.1271 C   0  0  2  0  0  0  0  0  0  0  0  0
    3.4983    0.4477   38.4152 O   0  0  0  0  0  0  0  0  0  0  0  0
    2.4646   -1.3990   37.2777 C   0  0  0  0  0  0  0  0  0  0  0  0
    1.6880   -1.5315   38.4608 O   0  0  0  0  0  0  0  0  0  0  0  0
   -1.3953    2.5303   37.9019 C   0  0  1  0  0  0  0  0  0  0  0  0
   -2.7821    2.1879   37.5365 N   0  3  0  0  0  0  0  0  0  0  0  0
   -0.7586    1.4753   38.8565 C   0  0  2  0  0  0  0  0  0  0  0  0
   -1.5225    1.3636   40.0551 O   0  0  0  0  0  0  0  0  0  0  0  0
    0.6996    1.8651   39.2377 C   0  0  1  0  0  0  0  0  0  0  0  0
    1.2954    0.7646   39.9867 O   0  0  0  0  0  0  0  0  0  0  0  0
    1.5747    2.1706   37.9784 C   0  0  1  0  0  0  0  0  0  0  0  0
    0.9003    3.1879   37.0032 C   0  0  1  0  0  0  0  0  0  0  0  0
    1.7044    3.3808   35.7762 N   0  3  0  0  0  0  0  0  0  0  0  0
   -0.5273    2.7168   36.6231 C   0  0  0  0  0  0  0  0  0  0  0  0
    1.0973    0.6730   41.4338 C   0  0  1  0  0  0  0  0  0  0  0  0
    1.4243   -0.7623   41.8865 C   0  0  2  0  0  0  0  0  0  0  0  0
    0.7339   -1.0896   43.0892 O   0  0  0  0  0  0  0  0  0  0  0  0
    2.9365   -0.6066   42.1076 C   0  0  1  0  0  0  0  0  0  0  0  0
    3.0253    0.7371   42.8120 C   0  0  2  0  0  0  0  0  0  0  0  0
    2.0495    1.5030   42.1223 O   0  0  0  0  0  0  0  0  0  0  0  0
    4.3944    1.4252   42.7365 C   0  0  0  0  0  0  0  0  0  0  0  0
    4.2985    2.6187   41.9731 O   0  0  0  0  0  0  0  0  0  0  0  0
    7.7613   -2.6519   43.1905 C   0  0  1  0  0  0  0  0  0  0  0  0
    7.5631   -4.0634   43.1354 O   0  0  0  0  0  0  0  0  0  0  0  0
    7.2869   -2.0124   41.8557 C   0  0  2  0  0  0  0  0  0  0  0  0
    7.8214   -0.6935   41.7695 O   0  0  0  0  0  0  0  0  0  0  0  0
    5.7368   -1.9407   41.6609 C   0  0  1  0  0  0  0  0  0  0  0  0
    5.2288   -3.2141   41.1047 N   0  3  0  0  0  0  0  0  0  0  0  0
    5.0091   -1.5229   42.9658 C   0  0  1  0  0  0  0  0  0  0  0  0
    3.5670   -1.6477   42.9034 O   0  0  0  0  0  0  0  0  0  0  0  0
    6.9672   -2.0437   44.3737 C   0  0  1  0  0  0  0  0  0  0  0  0
    5.5531   -2.2585   44.1131 O   0  0  0  0  0  0  0  0  0  0  0  0
    7.3665   -2.6106   45.7489 C   0  0  0  0  0  0  0  0  0  0  0  0
    8.7460   -2.2539   46.1339 N   0  3  0  0  0  0  0  0  0  0  0  0
  1  2  1  6  0  0  0
  1  3  1  0  0  0  0
  1 10  1  0  0  0  0
  3  4  1  6  0  0  0
  3  5  1  0  0  0  0
  5  6  1  6  0  0  0
  5  7  1  0  0  0  0
  7  8  1  6  0  0  0
  7  9  1  0  0  0  0
  9 10  1  0  0  0  0
  9 11  1  1  0  0  0
 11 12  1  0  0  0  0
 13 14  1  6  0  0  0
 13 15  1  0  0  0  0
 13 22  1  0  0  0  0
 15 16  1  1  0  0  0
 15 17  1  0  0  0  0
 17 18  1  6  0  0  0
 17 19  1  0  0  0  0
 19  2  1  1  0  0  0
 19 20  1  0  0  0  0
 20 21  1  6  0  0  0
 20 22  1  0  0  0  0
 23 18  1  6  0  0  0
 23 24  1  0  0  0  0
 23 28  1  0  0  0  0
 24 25  1  1  0  0  0
 24 26  1  0  0  0  0
 26 27  1  0  0  0  0
 26 38  1  1  0  0  0
 27 28  1  0  0  0  0
 27 29  1  6  0  0  0
 29 30  1  0  0  0  0
 31 32  1  6  0  0  0
 31 33  1  0  0  0  0
 31 39  1  0  0  0  0
 33 34  1  1  0  0  0
 33 35  1  0  0  0  0
 35 36  1  1  0  0  0
 35 37  1  0  0  0  0
 37 38  1  6  0  0  0
 37 40  1  0  0  0  0
 39 40  1  0  0  0  0
 39 41  1  1  0  0  0
 41 42  1  0  0  0  0
M  CHG  5   4   1  14   1  21   1  36   1  42   1
M  END
>  <CHROM.1>
111.91780115,98.17511427,-169.32700634,-178.79640118,-176.41178352,162.46134576
-18.42326450,-63.78103263,67.18253824,-85.80599495,162.10471881,139.37625933
70.22034417,174.14945129,113.86319653,67.11290650,-76.19210492,-55.82731121
54.36463319,-74.49466557,66.13997212,-52.17244015,3.43791216,0.23293983,40.07059408
-2.21899471,-0.26078694,1.94293702

>  <Name>
1pbr

>  <RI>
0

>  <Rbt.Current_Directory>
/home/itssahil/PROJECTS/Mol_Feturizer/New_Systems/rnas/1pbr

>  <Rbt.Executable>
rbdock ($Id: //depot/dev/client3/rdock/2013.1/src/exe/rbdock.cxx#4 $)

>  <Rbt.Library>
libRbt.so (2013.1, Build901 2013/11/27)

>  <Rbt.Parameter_File>
/export/apps/rDock/src/rDock_2013.1_src/data/scripts/dock_solv.prm

>  <Rbt.Receptor>
prm/pocket_docking_7.prm

>  <SCORE>
-44.609

>  <SCORE.INTER>
-48.7611

>  <SCORE.INTER.CONST>
1

>  <SCORE.INTER.POLAR>
-7.72654

>  <SCORE.INTER.ROT>
9

>  <SCORE.INTER.SOLV>
31.609

>  <SCORE.INTER.VDW>
-26.8886

>  <SCORE.INTER.norm>
-1.16098

>  <SCORE.INTRA>
4.15216

>  <SCORE.INTRA.DIHEDRAL>
6.10484

>  <SCORE.INTRA.DIHEDRAL.0>
29.7866

>  <SCORE.INTRA.POLAR>
-0.388137

>  <SCORE.INTRA.POLAR.0>
-0.984091

>  <SCORE.INTRA.REPUL>
-0.274115

>  <SCORE.INTRA.REPUL.0>
0.274115

>  <SCORE.INTRA.SOLV>
1.82051

>  <SCORE.INTRA.SOLV.lig_0>
-152.978

>  <SCORE.INTRA.VDW>
2.87972

>  <SCORE.INTRA.VDW.0>
-6.10719

>  <SCORE.INTRA.norm>
0.0988608

>  <SCORE.RESTR>
0

>  <SCORE.RESTR.CAVITY>
0

>  <SCORE.RESTR.norm>
0

>  <SCORE.SYSTEM>
0

>  <SCORE.SYSTEM.CONST>
0

>  <SCORE.SYSTEM.DIHEDRAL>
0

>  <SCORE.SYSTEM.SOLV>
0

>  <SCORE.SYSTEM.norm>
0

>  <SCORE.heavy>
42

>  <SCORE.norm>
-1.06212

>  <RMSD>
8.272

$$$$
1pbr
 OpenBabel11021811403D
libRbt.so/2013.1/901 2013/11/27
 42 45  0  0  0  0  0  0  0  0999 V2000
    4.8021   -1.4264   39.7650 C   0  0  2  0  0  0  0  0  0  0  0  0
    4.9732   -1.0777   38.3678 O   0  0  0  0  0  0  0  0  0  0  0  0
    6.1932   -1.4950   40.4987 C   0  0  2  0  0  0  0  0  0  0  0  0
    7.1414   -0.4137   40.1244 N   0  3  0  0  0  0  0  0  0  0  0  0
    6.9198   -2.8231   40.2140 C   0  0  1  0  0  0  0  0  0  0  0  0
    8.0390   -2.9840   41.0827 O   0  0  0  0  0  0  0  0  0  0  0  0
    5.9692   -4.0185   40.3789 C   0  0  2  0  0  0  0  0  0  0  0  0
    6.6685   -5.2387   40.1547 O   0  0  0  0  0  0  0  0  0  0  0  0
    4.7349   -3.8667   39.4624 C   0  0  2  0  0  0  0  0  0  0  0  0
    4.0499   -2.6661   39.8777 O   0  0  0  0  0  0  0  0  0  0  0  0
    3.7438   -5.0263   39.5480 C   0  0  0  0  0  0  0  0  0  0  0  0
    4.3312   -6.2401   39.0983 O   0  0  0  0  0  0  0  0  0  0  0  0
    2.0755    0.8128   35.8703 C   0  0  1  0  0  0  0  0  0  0  0  0
    0.9439    1.1530   34.9884 N   0  3  0  0  0  0  0  0  0  0  0  0
    1.6089    0.4208   37.3049 C   0  0  2  0  0  0  0  0  0  0  0  0
    0.8827    1.4924   37.9022 O   0  0  0  0  0  0  0  0  0  0  0  0
    2.8212    0.0787   38.2198 C   0  0  1  0  0  0  0  0  0  0  0  0
    2.3174   -0.4409   39.4860 O   0  0  0  0  0  0  0  0  0  0  0  0
    3.7715   -0.9771   37.5662 C   0  0  1  0  0  0  0  0  0  0  0  0
    4.1875   -0.5988   36.1086 C   0  0  1  0  0  0  0  0  0  0  0  0
    5.0037   -1.6622   35.4821 N   0  3  0  0  0  0  0  0  0  0  0  0
    2.9353   -0.3203   35.2375 C   0  0  0  0  0  0  0  0  0  0  0  0
    1.2875    0.2951   40.2205 C   0  0  1  0  0  0  0  0  0  0  0  0
    0.3805   -0.7168   40.9454 C   0  0  2  0  0  0  0  0  0  0  0  0
   -0.9142   -0.1691   41.1778 O   0  0  0  0  0  0  0  0  0  0  0  0
    1.1864   -0.8761   42.2434 C   0  0  1  0  0  0  0  0  0  0  0  0
    1.5819    0.5570   42.5584 C   0  0  2  0  0  0  0  0  0  0  0  0
    1.8841    1.0749   41.2719 O   0  0  0  0  0  0  0  0  0  0  0  0
    2.7892    0.7115   43.4924 C   0  0  0  0  0  0  0  0  0  0  0  0
    3.9583    0.2049   42.8656 O   0  0  0  0  0  0  0  0  0  0  0  0
    1.1345   -5.5766   44.5332 C   0  0  1  0  0  0  0  0  0  0  0  0
    1.6170   -5.2647   45.8388 O   0  0  0  0  0  0  0  0  0  0  0  0
   -0.3452   -5.1178   44.4074 C   0  0  2  0  0  0  0  0  0  0  0  0
   -0.9218   -5.7535   43.2690 O   0  0  0  0  0  0  0  0  0  0  0  0
   -0.5595   -3.5737   44.2837 C   0  0  1  0  0  0  0  0  0  0  0  0
   -0.5946   -2.9501   45.6250 N   0  3  0  0  0  0  0  0  0  0  0  0
    0.4867   -2.9184   43.3442 C   0  0  1  0  0  0  0  0  0  0  0  0
    0.4697   -1.4697   43.3608 O   0  0  0  0  0  0  0  0  0  0  0  0
    1.9958   -4.8670   43.4585 C   0  0  1  0  0  0  0  0  0  0  0  0
    1.8296   -3.4335   43.6353 O   0  0  0  0  0  0  0  0  0  0  0  0
    3.4851   -5.2578   43.4958 C   0  0  0  0  0  0  0  0  0  0  0  0
    4.1603   -4.8136   44.7309 N   0  3  0  0  0  0  0  0  0  0  0  0
  1  2  1  6  0  0  0
  1  3  1  0  0  0  0
  1 10  1  0  0  0  0
  3  4  1  6  0  0  0
  3  5  1  0  0  0  0
  5  6  1  1  0  0  0
  5  7  1  0  0  0  0
  7  8  1  6  0  0  0
  7  9  1  0  0  0  0
  9 10  1  0  0  0  0
  9 11  1  1  0  0  0
 11 12  1  0  0  0  0
 13 14  1  6  0  0  0
 13 15  1  0  0  0  0
 13 22  1  0  0  0  0
 15 16  1  1  0  0  0
 15 17  1  0  0  0  0
 17 18  1  1  0  0  0
 17 19  1  0  0  0  0
 19  2  1  1  0  0  0
 19 20  1  0  0  0  0
 20 21  1  6  0  0  0
 20 22  1  0  0  0  0
 23 18  1  1  0  0  0
 23 24  1  0  0  0  0
 23 28  1  0  0  0  0
 24 25  1  1  0  0  0
 24 26  1  0  0  0  0
 26 27  1  0  0  0  0
 26 38  1  1  0  0  0
 27 28  1  0  0  0  0
 27 29  1  1  0  0  0
 29 30  1  0  0  0  0
 31 32  1  1  0  0  0
 31 33  1  0  0  0  0
 31 39  1  0  0  0  0
 33 34  1  6  0  0  0
 33 35  1  0  0  0  0
 35 36  1  1  0  0  0
 35 37  1  0  0  0  0
 37 38  1  1  0  0  0
 37 40  1  0  0  0  0
 39 40  1  0  0  0  0
 39 41  1  1  0  0  0
 41 42  1  0  0  0  0
M  CHG  5   4   1  14   1  21   1  36   1  42   1
M  END
>  <CHROM.1>
-179.95871315,57.28625589,41.04553373,-61.29123303,65.05287108,-63.80682760
-58.99560234,41.93451474,63.51048486,-50.39898774,146.73024355,-47.88146522
131.07656117,85.13922481,64.94751914,62.48918575,67.89521517,-58.02205925
-157.27952279,-164.70864321,-65.89582504,47.04087108,2.85391722,-2.09195574
40.76889773,-1.23386597,-0.50267295,2.22993870

>  <Name>
1pbr

>  <RI>
0

>  <Rbt.Current_Directory>
/home/itssahil/PROJECTS/Mol_Feturizer/New_Systems/rnas/1pbr

>  <Rbt.Executable>
rbdock ($Id: //depot/dev/client3/rdock/2013.1/src/exe/rbdock.cxx#4 $)

>  <Rbt.Library>
libRbt.so (2013.1, Build901 2013/11/27)

>  <Rbt.Parameter_File>
/export/apps/rDock/src/rDock_2013.1_src/data/scripts/dock_solv.prm

>  <Rbt.Receptor>
prm/pocket_docking_4.prm

>  <SCORE>
-28.5348

>  <SCORE.INTER>
-24.1006

>  <SCORE.INTER.CONST>
1

>  <SCORE.INTER.POLAR>
-3.78307

>  <SCORE.INTER.ROT>
9

>  <SCORE.INTER.SOLV>
26.8514

>  <SCORE.INTER.VDW>
-22.0073

>  <SCORE.INTER.norm>
-0.573824

>  <SCORE.INTRA>
-4.43417

>  <SCORE.INTRA.DIHEDRAL>
-10.1889

>  <SCORE.INTRA.DIHEDRAL.0>
29.7866

>  <SCORE.INTRA.POLAR>
0.18817

>  <SCORE.INTRA.POLAR.0>
-0.984091

>  <SCORE.INTRA.REPUL>
-0.265979

>  <SCORE.INTRA.REPUL.0>
0.274115

>  <SCORE.INTRA.SOLV>
-1.34543

>  <SCORE.INTRA.SOLV.lig_0>
-152.978

>  <SCORE.INTRA.VDW>
2.0231

>  <SCORE.INTRA.VDW.0>
-6.10719

>  <SCORE.INTRA.norm>
-0.105575

>  <SCORE.RESTR>
0

>  <SCORE.RESTR.CAVITY>
0

>  <SCORE.RESTR.norm>
0

>  <SCORE.SYSTEM>
0

>  <SCORE.SYSTEM.CONST>
0

>  <SCORE.SYSTEM.DIHEDRAL>
0

>  <SCORE.SYSTEM.SOLV>
0

>  <SCORE.SYSTEM.norm>
0

>  <SCORE.heavy>
42

>  <SCORE.norm>
-0.6794

>  <RMSD>
8.285

$$$$
1pbr
 OpenBabel11021811403D
libRbt.so/2013.1/901 2013/11/27
 42 45  0  0  0  0  0  0  0  0999 V2000
    2.0534    2.7697   36.6399 C   0  0  2  0  0  0  0  0  0  0  0  0
    3.2337    2.8800   37.4753 O   0  0  0  0  0  0  0  0  0  0  0  0
    1.6060    4.1846   36.1143 C   0  0  2  0  0  0  0  0  0  0  0  0
    2.7245    5.0659   35.6893 N   0  3  0  0  0  0  0  0  0  0  0  0
    0.8242    4.9668   37.1864 C   0  0  1  0  0  0  0  0  0  0  0  0
    0.2035    6.1189   36.6203 O   0  0  0  0  0  0  0  0  0  0  0  0
   -0.2453    4.0821   37.8448 C   0  0  2  0  0  0  0  0  0  0  0  0
   -0.9860    4.8337   38.8011 O   0  0  0  0  0  0  0  0  0  0  0  0
    0.3927    2.8140   38.4542 C   0  0  2  0  0  0  0  0  0  0  0  0
    0.9956    2.0836   37.3650 O   0  0  0  0  0  0  0  0  0  0  0  0
   -0.6004    1.8847   39.1500 C   0  0  0  0  0  0  0  0  0  0  0  0
   -1.7960    1.7490   38.3933 O   0  0  0  0  0  0  0  0  0  0  0  0
    4.4829   -1.1425   36.7918 C   0  0  1  0  0  0  0  0  0  0  0  0
    5.1452   -2.4598   36.7941 N   0  3  0  0  0  0  0  0  0  0  0  0
    3.7068   -0.8696   38.1157 C   0  0  2  0  0  0  0  0  0  0  0  0
    2.7126   -1.8698   38.3251 O   0  0  0  0  0  0  0  0  0  0  0  0
    3.0063    0.5203   38.0841 C   0  0  1  0  0  0  0  0  0  0  0  0
    2.4446    0.7893   39.4029 O   0  0  0  0  0  0  0  0  0  0  0  0
    3.9948    1.6682   37.6964 C   0  0  1  0  0  0  0  0  0  0  0  0
    4.8058    1.3576   36.3977 C   0  0  1  0  0  0  0  0  0  0  0  0
    5.8016    2.4141   36.1119 N   0  3  0  0  0  0  0  0  0  0  0  0
    5.5189   -0.0145   36.5135 C   0  0  0  0  0  0  0  0  0  0  0  0
    3.0207    1.8404   40.2426 C   0  0  1  0  0  0  0  0  0  0  0  0
    2.4540    1.6992   41.6677 C   0  0  2  0  0  0  0  0  0  0  0  0
    2.4853    2.9459   42.3570 O   0  0  0  0  0  0  0  0  0  0  0  0
    3.4706    0.6960   42.2331 C   0  0  1  0  0  0  0  0  0  0  0  0
    4.7886    1.2344   41.7015 C   0  0  2  0  0  0  0  0  0  0  0  0
    4.4383    1.6432   40.3882 O   0  0  0  0  0  0  0  0  0  0  0  0
    5.9380    0.2193   41.6552 C   0  0  0  0  0  0  0  0  0  0  0  0
    7.1769    0.8753   41.8813 O   0  0  0  0  0  0  0  0  0  0  0  0
   -0.0425   -0.5585   45.8679 C   0  0  1  0  0  0  0  0  0  0  0  0
    0.4822   -1.8017   46.3305 O   0  0  0  0  0  0  0  0  0  0  0  0
    0.7964    0.6077   46.4612 C   0  0  2  0  0  0  0  0  0  0  0  0
    0.0605    1.8192   46.3085 O   0  0  0  0  0  0  0  0  0  0  0  0
    2.2158    0.7989   45.8333 C   0  0  1  0  0  0  0  0  0  0  0  0
    3.1942   -0.0947   46.4916 N   0  3  0  0  0  0  0  0  0  0  0  0
    2.1929    0.6316   44.2911 C   0  0  1  0  0  0  0  0  0  0  0  0
    3.5070    0.5855   43.6827 O   0  0  0  0  0  0  0  0  0  0  0  0
    0.0005   -0.4998   44.3202 C   0  0  1  0  0  0  0  0  0  0  0  0
    1.3962   -0.5422   43.9155 O   0  0  0  0  0  0  0  0  0  0  0  0
   -0.8071   -1.6160   43.6318 C   0  0  0  0  0  0  0  0  0  0  0  0
   -1.9001   -2.1337   44.4779 N   0  3  0  0  0  0  0  0  0  0  0  0
  1  2  1  1  0  0  0
  1  3  1  0  0  0  0
  1 10  1  0  0  0  0
  3  4  1  1  0  0  0
  3  5  1  0  0  0  0
  5  6  1  6  0  0  0
  5  7  1  0  0  0  0
  7  8  1  1  0  0  0
  7  9  1  0  0  0  0
  9 10  1  0  0  0  0
  9 11  1  6  0  0  0
 11 12  1  0  0  0  0
 13 14  1  1  0  0  0
 13 15  1  0  0  0  0
 13 22  1  0  0  0  0
 15 16  1  6  0  0  0
 15 17  1  0  0  0  0
 17 18  1  1  0  0  0
 17 19  1  0  0  0  0
 19  2  1  6  0  0  0
 19 20  1  0  0  0  0
 20 21  1  1  0  0  0
 20 22  1  0  0  0  0
 23 18  1  6  0  0  0
 23 24  1  0  0  0  0
 23 28  1  0  0  0  0
 24 25  1  1  0  0  0
 24 26  1  0  0  0  0
 26 27  1  0  0  0  0
 26 38  1  1  0  0  0
 27 28  1  0  0  0  0
 27 29  1  6  0  0  0
 29 30  1  0  0  0  0
 31 32  1  1  0  0  0
 31 33  1  0  0  0  0
 31 39  1  0  0  0  0
 33 34  1  6  0  0  0
 33 35  1  0  0  0  0
 35 36  1  1  0  0  0
 35 37  1  0  0  0  0
 37 38  1  1  0  0  0
 37 40  1  0  0  0  0
 39 40  1  0  0  0  0
 39 41  1  6  0  0  0
 41 42  1  0  0  0  0
M  CHG  5   4   1  14   1  21   1  36   1  42   1
M  END
>  <CHROM.1>
-161.76345104,-47.38785517,-77.20686933,68.90969206,57.98843031,42.37889004
53.50447038,-45.17551029,-173.02920914,110.89946525,-167.62202511,-52.79714889
64.71740219,39.77463967,-147.71579056,65.59871092,-51.36273335,166.35732718
90.88535959,-168.50684497,25.29546604,49.60297500,2.24912734,1.24540146,40.43904924
1.36472943,0.50263571,-1.14182614

>  <Name>
1pbr

>  <RI>
0

>  <Rbt.Current_Directory>
/home/itssahil/PROJECTS/Mol_Feturizer/New_Systems/rnas/1pbr

>  <Rbt.Executable>
rbdock ($Id: //depot/dev/client3/rdock/2013.1/src/exe/rbdock.cxx#4 $)

>  <Rbt.Library>
libRbt.so (2013.1, Build901 2013/11/27)

>  <Rbt.Parameter_File>
/export/apps/rDock/src/rDock_2013.1_src/data/scripts/dock_solv.prm

>  <Rbt.Receptor>
prm/blind_docking_100.prm

>  <SCORE>
8.37916

>  <SCORE.INTER>
3.3764

>  <SCORE.INTER.CONST>
1

>  <SCORE.INTER.POLAR>
-4.73522

>  <SCORE.INTER.ROT>
9

>  <SCORE.INTER.SOLV>
42.1736

>  <SCORE.INTER.VDW>
-5.62286

>  <SCORE.INTER.norm>
0.0803905

>  <SCORE.INTRA>
3.63993

>  <SCORE.INTRA.DIHEDRAL>
-3.80932

>  <SCORE.INTRA.DIHEDRAL.0>
29.7866

>  <SCORE.INTRA.POLAR>
0.863844

>  <SCORE.INTRA.POLAR.0>
-0.984091

>  <SCORE.INTRA.REPUL>
-0.22898

>  <SCORE.INTRA.REPUL.0>
0.274115

>  <SCORE.INTRA.SOLV>
-1.55388

>  <SCORE.INTRA.SOLV.lig_0>
-152.978

>  <SCORE.INTRA.VDW>
4.52936

>  <SCORE.INTRA.VDW.0>
-6.10719

>  <SCORE.INTRA.norm>
0.0866649

>  <SCORE.RESTR>
1.36283

>  <SCORE.RESTR.CAVITY>
1.36283

>  <SCORE.RESTR.norm>
0.0324483

>  <SCORE.SYSTEM>
0

>  <SCORE.SYSTEM.CONST>
0

>  <SCORE.SYSTEM.DIHEDRAL>
0

>  <SCORE.SYSTEM.SOLV>
0

>  <SCORE.SYSTEM.norm>
0

>  <SCORE.heavy>
42

>  <SCORE.norm>
0.199504

>  <RMSD>
8.291

$$$$
1pbr
 OpenBabel11021811403D
libRbt.so/2013.1/901 2013/11/27
 42 45  0  0  0  0  0  0  0  0999 V2000
    4.9630   -0.7638   38.6988 C   0  0  2  0  0  0  0  0  0  0  0  0
    4.6732   -0.2255   37.3837 O   0  0  0  0  0  0  0  0  0  0  0  0
    6.3372   -1.5318   38.6984 C   0  0  2  0  0  0  0  0  0  0  0  0
    7.4166   -0.8631   37.9265 N   0  3  0  0  0  0  0  0  0  0  0  0
    6.1961   -2.9465   38.1056 C   0  0  1  0  0  0  0  0  0  0  0  0
    7.3701   -3.7176   38.3514 O   0  0  0  0  0  0  0  0  0  0  0  0
    4.9763   -3.6720   38.6932 C   0  0  2  0  0  0  0  0  0  0  0  0
    4.8874   -4.9923   38.1668 O   0  0  0  0  0  0  0  0  0  0  0  0
    3.6873   -2.8534   38.4589 C   0  0  2  0  0  0  0  0  0  0  0  0
    3.8583   -1.5965   39.1476 O   0  0  0  0  0  0  0  0  0  0  0  0
    2.4185   -3.5141   38.9953 C   0  0  0  0  0  0  0  0  0  0  0  0
    1.2574   -2.7950   38.6014 O   0  0  0  0  0  0  0  0  0  0  0  0
    1.4119    2.2831   36.2529 C   0  0  1  0  0  0  0  0  0  0  0  0
    0.1070    2.8614   35.8833 N   0  3  0  0  0  0  0  0  0  0  0  0
    1.4539    1.8241   37.7419 C   0  0  2  0  0  0  0  0  0  0  0  0
    1.1903    2.9243   38.6094 O   0  0  0  0  0  0  0  0  0  0  0  0
    2.8444    1.2293   38.1111 C   0  0  1  0  0  0  0  0  0  0  0  0
    2.7686    0.6661   39.4542 O   0  0  0  0  0  0  0  0  0  0  0  0
    3.2944    0.1188   37.1064 C   0  0  1  0  0  0  0  0  0  0  0  0
    3.1954    0.5736   35.6151 C   0  0  1  0  0  0  0  0  0  0  0  0
    3.5317   -0.5283   34.6865 N   0  3  0  0  0  0  0  0  0  0  0  0
    1.7741    1.1070   35.2994 C   0  0  0  0  0  0  0  0  0  0  0  0
    3.7661    1.0353   40.4594 C   0  0  1  0  0  0  0  0  0  0  0  0
    3.0724    1.8514   41.5661 C   0  0  2  0  0  0  0  0  0  0  0  0
    3.9995    2.7062   42.2295 O   0  0  0  0  0  0  0  0  0  0  0  0
    2.6045    0.6941   42.4615 C   0  0  1  0  0  0  0  0  0  0  0  0
    3.8171   -0.2219   42.4689 C   0  0  2  0  0  0  0  0  0  0  0  0
    4.2643   -0.1391   41.1244 O   0  0  0  0  0  0  0  0  0  0  0  0
    3.5315   -1.6810   42.8470 C   0  0  0  0  0  0  0  0  0  0  0  0
    4.7507   -2.3937   42.9950 O   0  0  0  0  0  0  0  0  0  0  0  0
   -1.1045   -0.8911   45.7605 C   0  0  1  0  0  0  0  0  0  0  0  0
   -0.3177   -1.5235   46.7683 O   0  0  0  0  0  0  0  0  0  0  0  0
   -1.0078    0.6515   45.9234 C   0  0  2  0  0  0  0  0  0  0  0  0
   -2.0631    1.2534   45.1774 O   0  0  0  0  0  0  0  0  0  0  0  0
    0.3495    1.2884   45.4785 C   0  0  1  0  0  0  0  0  0  0  0  0
    1.3353    1.2199   46.5796 N   0  3  0  0  0  0  0  0  0  0  0  0
    0.8770    0.6625   44.1606 C   0  0  1  0  0  0  0  0  0  0  0  0
    2.2274    1.0598   43.8175 O   0  0  0  0  0  0  0  0  0  0  0  0
   -0.6044   -1.3012   44.3525 C   0  0  1  0  0  0  0  0  0  0  0  0
    0.7517   -0.7990   44.2021 O   0  0  0  0  0  0  0  0  0  0  0  0
   -0.6632   -2.8173   44.0876 C   0  0  0  0  0  0  0  0  0  0  0  0
    0.4544   -3.5494   44.7151 N   0  3  0  0  0  0  0  0  0  0  0  0
  1  2  1  6  0  0  0
  1  3  1  0  0  0  0
  1 10  1  0  0  0  0
  3  4  1  6  0  0  0
  3  5  1  0  0  0  0
  5  6  1  1  0  0  0
  5  7  1  0  0  0  0
  7  8  1  6  0  0  0
  7  9  1  0  0  0  0
  9 10  1  0  0  0  0
  9 11  1  1  0  0  0
 11 12  1  0  0  0  0
 13 14  1  6  0  0  0
 13 15  1  0  0  0  0
 13 22  1  0  0  0  0
 15 16  1  1  0  0  0
 15 17  1  0  0  0  0
 17 18  1  1  0  0  0
 17 19  1  0  0  0  0
 19  2  1  1  0  0  0
 19 20  1  0  0  0  0
 20 21  1  6  0  0  0
 20 22  1  0  0  0  0
 23 18  1  6  0  0  0
 23 24  1  0  0  0  0
 23 28  1  0  0  0  0
 24 25  1  1  0  0  0
 24 26  1  0  0  0  0
 26 27  1  0  0  0  0
 26 38  1  1  0  0  0
 27 28  1  0  0  0  0
 27 29  1  6  0  0  0
 29 30  1  0  0  0  0
 31 32  1  1  0  0  0
 31 33  1  0  0  0  0
 31 39  1  0  0  0  0
 33 34  1  6  0  0  0
 33 35  1  0  0  0  0
 35 36  1  1  0  0  0
 35 37  1  0  0  0  0
 37 38  1  1  0  0  0
 37 40  1  0  0  0  0
 39 40  1  0  0  0  0
 39 41  1  1  0  0  0
 41 42  1  0  0  0  0
M  CHG  5   4   1  14   1  21   1  36   1  42   1
M  END
>  <CHROM.1>
160.63094859,61.27476438,175.11113272,-143.04986512,174.95222859,-172.67304416
62.74072118,68.72408316,-51.39178762,-128.91911799,112.99218637,164.76783124
160.56484426,123.56374527,-172.20559395,178.58704965,160.19506916,159.76005399
-48.68266050,-168.06828872,-78.58965124,41.20725451,2.61967280,-0.48333092
40.66373221,-0.85578561,-0.82670047,2.06387786

>  <Name>
1pbr

>  <RI>
0

>  <Rbt.Current_Directory>
/home/itssahil/PROJECTS/Mol_Feturizer/New_Systems/rnas/1pbr

>  <Rbt.Executable>
rbdock ($Id: //depot/dev/client3/rdock/2013.1/src/exe/rbdock.cxx#4 $)

>  <Rbt.Library>
libRbt.so (2013.1, Build901 2013/11/27)

>  <Rbt.Parameter_File>
/export/apps/rDock/src/rDock_2013.1_src/data/scripts/dock_solv.prm

>  <Rbt.Receptor>
prm/blind_docking_60.prm

>  <SCORE>
-22.6064

>  <SCORE.INTER>
-36.5935

>  <SCORE.INTER.CONST>
1

>  <SCORE.INTER.POLAR>
-6.0069

>  <SCORE.INTER.ROT>
9

>  <SCORE.INTER.SOLV>
33.5435

>  <SCORE.INTER.VDW>
-25.1539

>  <SCORE.INTER.norm>
-0.871275

>  <SCORE.INTRA>
7.76947

>  <SCORE.INTRA.DIHEDRAL>
8.08527

>  <SCORE.INTRA.DIHEDRAL.0>
29.7866

>  <SCORE.INTRA.POLAR>
0.94646

>  <SCORE.INTRA.POLAR.0>
-0.984091

>  <SCORE.INTRA.REPUL>
-0.155611

>  <SCORE.INTRA.REPUL.0>
0.274115

>  <SCORE.INTRA.SOLV>
-2.6899

>  <SCORE.INTRA.SOLV.lig_0>
-152.978

>  <SCORE.INTRA.VDW>
2.63187

>  <SCORE.INTRA.VDW.0>
-6.10719

>  <SCORE.INTRA.norm>
0.184987

>  <SCORE.RESTR>
6.21764

>  <SCORE.RESTR.CAVITY>
6.21764

>  <SCORE.RESTR.norm>
0.148039

>  <SCORE.SYSTEM>
0

>  <SCORE.SYSTEM.CONST>
0

>  <SCORE.SYSTEM.DIHEDRAL>
0

>  <SCORE.SYSTEM.SOLV>
0

>  <SCORE.SYSTEM.norm>
0

>  <SCORE.heavy>
42

>  <SCORE.norm>
-0.538248

>  <RMSD>
8.298

$$$$
1pbr
 OpenBabel11021811403D
libRbt.so/2013.1/901 2013/11/27
 42 45  0  0  0  0  0  0  0  0999 V2000
    1.9788    1.6295   38.7212 C   0  0  2  0  0  0  0  0  0  0  0  0
    1.9946    0.5627   37.7390 O   0  0  0  0  0  0  0  0  0  0  0  0
    0.5360    2.2446   38.8557 C   0  0  2  0  0  0  0  0  0  0  0  0
   -0.5637    1.2452   38.8420 N   0  3  0  0  0  0  0  0  0  0  0  0
    0.2329    3.2346   37.7152 C   0  0  1  0  0  0  0  0  0  0  0  0
   -0.9544    3.9750   37.9900 O   0  0  0  0  0  0  0  0  0  0  0  0
    1.4032    4.2067   37.5028 C   0  0  2  0  0  0  0  0  0  0  0  0
    1.0874    5.1410   36.4753 O   0  0  0  0  0  0  0  0  0  0  0  0
    2.7111    3.4350   37.2194 C   0  0  2  0  0  0  0  0  0  0  0  0
    2.9819    2.6275   38.3847 O   0  0  0  0  0  0  0  0  0  0  0  0
    3.9260    4.3284   36.9745 C   0  0  0  0  0  0  0  0  0  0  0  0
    5.1210    3.5626   36.8957 O   0  0  0  0  0  0  0  0  0  0  0  0
    4.5393   -2.5862   36.3910 C   0  0  1  0  0  0  0  0  0  0  0  0
    5.6604   -3.4916   36.0787 N   0  3  0  0  0  0  0  0  0  0  0  0
    4.2041   -2.5648   37.9131 C   0  0  2  0  0  0  0  0  0  0  0  0
    3.8623   -3.8728   38.3658 O   0  0  0  0  0  0  0  0  0  0  0  0
    3.0103   -1.6125   38.2157 C   0  0  1  0  0  0  0  0  0  0  0  0
    2.8558   -1.5039   39.6619 O   0  0  0  0  0  0  0  0  0  0  0  0
    3.2258   -0.1881   37.6077 C   0  0  1  0  0  0  0  0  0  0  0  0
    3.6147   -0.2266   36.0951 C   0  0  1  0  0  0  0  0  0  0  0  0
    3.9088    1.1267   35.5739 N   0  3  0  0  0  0  0  0  0  0  0  0
    4.8393   -1.1506   35.8688 C   0  0  0  0  0  0  0  0  0  0  0  0
    2.1905   -2.5725   40.4085 C   0  0  1  0  0  0  0  0  0  0  0  0
    3.0054   -2.8654   41.6821 C   0  0  2  0  0  0  0  0  0  0  0  0
    2.7877   -4.1991   42.1338 O   0  0  0  0  0  0  0  0  0  0  0  0
    2.3732   -1.8237   42.6176 C   0  0  1  0  0  0  0  0  0  0  0  0
    0.8939   -1.9514   42.2938 C   0  0  2  0  0  0  0  0  0  0  0  0
    0.9087   -2.1261   40.8852 O   0  0  0  0  0  0  0  0  0  0  0  0
    0.0351   -0.7376   42.6715 C   0  0  0  0  0  0  0  0  0  0  0  0
    0.4045    0.3848   41.8840 O   0  0  0  0  0  0  0  0  0  0  0  0
    1.6514    0.6770   47.2708 C   0  0  1  0  0  0  0  0  0  0  0  0
    1.2676   -0.3451   48.1888 O   0  0  0  0  0  0  0  0  0  0  0  0
    3.1567    0.5151   46.9192 C   0  0  2  0  0  0  0  0  0  0  0  0
    3.6148    1.7245   46.3191 O   0  0  0  0  0  0  0  0  0  0  0  0
    3.4980   -0.6788   45.9685 C   0  0  1  0  0  0  0  0  0  0  0  0
    3.6580   -1.9267   46.7471 N   0  3  0  0  0  0  0  0  0  0  0  0
    2.4646   -0.8164   44.8196 C   0  0  1  0  0  0  0  0  0  0  0  0
    2.6086   -2.0278   44.0380 O   0  0  0  0  0  0  0  0  0  0  0  0
    0.7996    0.5870   45.9797 C   0  0  1  0  0  0  0  0  0  0  0  0
    1.0992   -0.6842   45.3409 O   0  0  0  0  0  0  0  0  0  0  0  0
   -0.7140    0.7398   46.2200 C   0  0  0  0  0  0  0  0  0  0  0  0
   -1.0277    1.7307   47.2680 N   0  3  0  0  0  0  0  0  0  0  0  0
  1  2  1  6  0  0  0
  1  3  1  0  0  0  0
  1 10  1  0  0  0  0
  3  4  1  6  0  0  0
  3  5  1  0  0  0  0
  5  6  1  1  0  0  0
  5  7  1  0  0  0  0
  7  8  1  6  0  0  0
  7  9  1  0  0  0  0
  9 10  1  0  0  0  0
  9 11  1  1  0  0  0
 11 12  1  0  0  0  0
 13 14  1  1  0  0  0
 13 15  1  0  0  0  0
 13 22  1  0  0  0  0
 15 16  1  6  0  0  0
 15 17  1  0  0  0  0
 17 18  1  1  0  0  0
 17 19  1  0  0  0  0
 19  2  1  6  0  0  0
 19 20  1  0  0  0  0
 20 21  1  1  0  0  0
 20 22  1  0  0  0  0
 23 18  1  1  0  0  0
 23 24  1  0  0  0  0
 23 28  1  0  0  0  0
 24 25  1  1  0  0  0
 24 26  1  0  0  0  0
 26 27  1  0  0  0  0
 26 38  1  1  0  0  0
 27 28  1  0  0  0  0
 27 29  1  6  0  0  0
 29 30  1  0  0  0  0
 31 32  1  1  0  0  0
 31 33  1  0  0  0  0
 31 39  1  0  0  0  0
 33 34  1  6  0  0  0
 33 35  1  0  0  0  0
 35 36  1  1  0  0  0
 35 37  1  0  0  0  0
 37 38  1  1  0  0  0
 37 40  1  0  0  0  0
 39 40  1  0  0  0  0
 39 41  1  1  0  0  0
 41 42  1  0  0  0  0
M  CHG  5   4   1  14   1  21   1  36   1  42   1
M  END
>  <CHROM.1>
-173.87081033,107.96583708,31.95325653,-62.81734690,72.29650287,172.32595210
173.80674083,71.51662364,-52.86841955,-78.86294578,135.94683996,45.58184071
-175.93651278,157.57381252,65.85308189,-164.02867743,-173.86872655,158.41088345
73.66034475,-141.65187098,37.41020502,-77.10612895,2.24626877,0.10147932
40.84538410,1.22523498,1.10169541,-1.10402250

>  <Name>
1pbr

>  <RI>
0

>  <Rbt.Current_Directory>
/home/itssahil/PROJECTS/Mol_Feturizer/New_Systems/rnas/1pbr

>  <Rbt.Executable>
rbdock ($Id: //depot/dev/client3/rdock/2013.1/src/exe/rbdock.cxx#4 $)

>  <Rbt.Library>
libRbt.so (2013.1, Build901 2013/11/27)

>  <Rbt.Parameter_File>
/export/apps/rDock/src/rDock_2013.1_src/data/scripts/dock_solv.prm

>  <Rbt.Receptor>
prm/pocket_docking_6.prm

>  <SCORE>
-42.7471

>  <SCORE.INTER>
-44.0294

>  <SCORE.INTER.CONST>
1

>  <SCORE.INTER.POLAR>
-5.83055

>  <SCORE.INTER.ROT>
9

>  <SCORE.INTER.SOLV>
42.9486

>  <SCORE.INTER.VDW>
-33.834

>  <SCORE.INTER.norm>
-1.04832

>  <SCORE.INTRA>
1.2823

>  <SCORE.INTRA.DIHEDRAL>
2.69506

>  <SCORE.INTRA.DIHEDRAL.0>
29.7866

>  <SCORE.INTRA.POLAR>
-0.0561432

>  <SCORE.INTRA.POLAR.0>
-0.984091

>  <SCORE.INTRA.REPUL>
-0.274115

>  <SCORE.INTRA.REPUL.0>
0.274115

>  <SCORE.INTRA.SOLV>
4.22704

>  <SCORE.INTRA.SOLV.lig_0>
-152.978

>  <SCORE.INTRA.VDW>
-0.617293

>  <SCORE.INTRA.VDW.0>
-6.10719

>  <SCORE.INTRA.norm>
0.0305309

>  <SCORE.RESTR>
0

>  <SCORE.RESTR.CAVITY>
0

>  <SCORE.RESTR.norm>
0

>  <SCORE.SYSTEM>
0

>  <SCORE.SYSTEM.CONST>
0

>  <SCORE.SYSTEM.DIHEDRAL>
0

>  <SCORE.SYSTEM.SOLV>
0

>  <SCORE.SYSTEM.norm>
0

>  <SCORE.heavy>
42

>  <SCORE.norm>
-1.01779

>  <RMSD>
8.326

$$$$
1pbr
 OpenBabel11021811403D
libRbt.so/2013.1/901 2013/11/27
 42 45  0  0  0  0  0  0  0  0999 V2000
    2.7925    1.4803   37.2454 C   0  0  2  0  0  0  0  0  0  0  0  0
    3.9455    1.4673   38.1251 O   0  0  0  0  0  0  0  0  0  0  0  0
    2.4621    2.9469   36.7782 C   0  0  2  0  0  0  0  0  0  0  0  0
    3.6528    3.7681   36.4375 N   0  3  0  0  0  0  0  0  0  0  0  0
    1.6953    3.7281   37.8619 C   0  0  1  0  0  0  0  0  0  0  0  0
    1.1757    4.9470   37.3348 O   0  0  0  0  0  0  0  0  0  0  0  0
    0.5445    2.8888   38.4371 C   0  0  2  0  0  0  0  0  0  0  0  0
   -0.1791    3.6424   39.4050 O   0  0  0  0  0  0  0  0  0  0  0  0
    1.0718    1.5512   39.0020 C   0  0  2  0  0  0  0  0  0  0  0  0
    1.6643    0.8348   37.8979 O   0  0  0  0  0  0  0  0  0  0  0  0
   -0.0074    0.6602   39.6149 C   0  0  0  0  0  0  0  0  0  0  0  0
   -0.6929    1.3296   40.6648 O   0  0  0  0  0  0  0  0  0  0  0  0
    4.9599   -2.5672   37.1754 C   0  0  1  0  0  0  0  0  0  0  0  0
    5.5895   -3.8923   37.0282 N   0  3  0  0  0  0  0  0  0  0  0  0
    4.5028   -2.2901   38.6397 C   0  0  2  0  0  0  0  0  0  0  0  0
    3.5682   -3.2792   39.0648 O   0  0  0  0  0  0  0  0  0  0  0  0
    3.8304   -0.8918   38.7669 C   0  0  1  0  0  0  0  0  0  0  0  0
    3.5811   -0.6212   40.1781 O   0  0  0  0  0  0  0  0  0  0  0  0
    4.7215    0.2457   38.1692 C   0  0  1  0  0  0  0  0  0  0  0  0
    5.2177   -0.0697   36.7217 C   0  0  1  0  0  0  0  0  0  0  0  0
    6.1376    0.9760   36.2217 N   0  3  0  0  0  0  0  0  0  0  0  0
    5.9216   -1.4505   36.6737 C   0  0  0  0  0  0  0  0  0  0  0  0
    4.2847    0.4732   40.8483 C   0  0  1  0  0  0  0  0  0  0  0  0
    4.3198    0.1840   42.3607 C   0  0  2  0  0  0  0  0  0  0  0  0
    4.4412    1.3899   43.1098 O   0  0  0  0  0  0  0  0  0  0  0  0
    5.5987   -0.6654   42.4140 C   0  0  1  0  0  0  0  0  0  0  0  0
    6.5353    0.0992   41.4933 C   0  0  2  0  0  0  0  0  0  0  0  0
    5.6655    0.5004   40.4458 O   0  0  0  0  0  0  0  0  0  0  0  0
    7.7074   -0.7152   40.9307 C   0  0  0  0  0  0  0  0  0  0  0  0
    7.2270   -1.7027   40.0305 O   0  0  0  0  0  0  0  0  0  0  0  0
    4.5310   -2.8972   47.1441 C   0  0  1  0  0  0  0  0  0  0  0  0
    4.8004   -1.8516   48.0762 O   0  0  0  0  0  0  0  0  0  0  0  0
    3.5215   -2.3891   46.0772 C   0  0  2  0  0  0  0  0  0  0  0  0
    2.9801   -3.5161   45.3920 O   0  0  0  0  0  0  0  0  0  0  0  0
    4.1058   -1.3925   45.0230 C   0  0  1  0  0  0  0  0  0  0  0  0
    4.0766   -0.0105   45.5503 N   0  3  0  0  0  0  0  0  0  0  0  0
    5.5168   -1.8219   44.5419 C   0  0  1  0  0  0  0  0  0  0  0  0
    6.1918   -0.8284   43.7317 O   0  0  0  0  0  0  0  0  0  0  0  0
    5.8409   -3.3501   46.4516 C   0  0  1  0  0  0  0  0  0  0  0  0
    6.3464   -2.2239   45.6835 O   0  0  0  0  0  0  0  0  0  0  0  0
    6.9108   -3.8772   47.4260 C   0  0  0  0  0  0  0  0  0  0  0  0
    6.5977   -5.2240   47.9423 N   0  3  0  0  0  0  0  0  0  0  0  0
  1  2  1  1  0  0  0
  1  3  1  0  0  0  0
  1 10  1  0  0  0  0
  3  4  1  1  0  0  0
  3  5  1  0  0  0  0
  5  6  1  6  0  0  0
  5  7  1  0  0  0  0
  7  8  1  1  0  0  0
  7  9  1  0  0  0  0
  9 10  1  0  0  0  0
  9 11  1  6  0  0  0
 11 12  1  0  0  0  0
 13 14  1  1  0  0  0
 13 15  1  0  0  0  0
 13 22  1  0  0  0  0
 15 16  1  6  0  0  0
 15 17  1  0  0  0  0
 17 18  1  1  0  0  0
 17 19  1  0  0  0  0
 19  2  1  6  0  0  0
 19 20  1  0  0  0  0
 20 21  1  1  0  0  0
 20 22  1  0  0  0  0
 23 18  1  6  0  0  0
 23 24  1  0  0  0  0
 23 28  1  0  0  0  0
 24 25  1  1  0  0  0
 24 26  1  0  0  0  0
 26 27  1  0  0  0  0
 26 38  1  1  0  0  0
 27 28  1  0  0  0  0
 27 29  1  6  0  0  0
 29 30  1  0  0  0  0
 31 32  1  1  0  0  0
 31 33  1  0  0  0  0
 31 39  1  0  0  0  0
 33 34  1  6  0  0  0
 33 35  1  0  0  0  0
 35 36  1  1  0  0  0
 35 37  1  0  0  0  0
 37 38  1  1  0  0  0
 37 40  1  0  0  0  0
 39 40  1  0  0  0  0
 39 41  1  1  0  0  0
 41 42  1  0  0  0  0
M  CHG  5   4   1  14   1  21   1  36   1  42   1
M  END
>  <CHROM.1>
-153.61152955,-64.83848001,118.27566714,-165.09315562,53.98915499,-57.94125611
-62.08025074,101.99510874,-53.42038548,114.60707159,-156.31210770,30.55075168
-77.69516583,78.88532914,67.84178495,62.59117287,-62.47199238,176.60517011
25.36993688,-70.42100573,74.51399541,66.93632464,4.12175930,-0.33128123,41.02216868
-1.94624200,-0.73201643,1.80181873

>  <Name>
1pbr

>  <RI>
0

>  <Rbt.Current_Directory>
/home/itssahil/PROJECTS/Mol_Feturizer/New_Systems/rnas/1pbr

>  <Rbt.Executable>
rbdock ($Id: //depot/dev/client3/rdock/2013.1/src/exe/rbdock.cxx#4 $)

>  <Rbt.Library>
libRbt.so (2013.1, Build901 2013/11/27)

>  <Rbt.Parameter_File>
/export/apps/rDock/src/rDock_2013.1_src/data/scripts/dock_solv.prm

>  <Rbt.Receptor>
prm/pocket_docking_7.prm

>  <SCORE>
-28.2324

>  <SCORE.INTER>
-38.2584

>  <SCORE.INTER.CONST>
1

>  <SCORE.INTER.POLAR>
-6.46753

>  <SCORE.INTER.ROT>
9

>  <SCORE.INTER.SOLV>
24.4719

>  <SCORE.INTER.VDW>
-21.7045

>  <SCORE.INTER.norm>
-0.910914

>  <SCORE.INTRA>
10.0107

>  <SCORE.INTRA.DIHEDRAL>
0.144759

>  <SCORE.INTRA.DIHEDRAL.0>
29.7866

>  <SCORE.INTRA.POLAR>
0.83637

>  <SCORE.INTRA.POLAR.0>
-0.984091

>  <SCORE.INTRA.REPUL>
-0.246911

>  <SCORE.INTRA.REPUL.0>
0.274115

>  <SCORE.INTRA.SOLV>
3.77976

>  <SCORE.INTRA.SOLV.lig_0>
-152.978

>  <SCORE.INTRA.VDW>
6.4393

>  <SCORE.INTRA.VDW.0>
-6.10719

>  <SCORE.INTRA.norm>
0.238349

>  <SCORE.RESTR>
0.0153384

>  <SCORE.RESTR.CAVITY>
0.0153384

>  <SCORE.RESTR.norm>
0.000365201

>  <SCORE.SYSTEM>
0

>  <SCORE.SYSTEM.CONST>
0

>  <SCORE.SYSTEM.DIHEDRAL>
0

>  <SCORE.SYSTEM.SOLV>
0

>  <SCORE.SYSTEM.norm>
0

>  <SCORE.heavy>
42

>  <SCORE.norm>
-0.6722

>  <RMSD>
8.330

$$$$
1pbr
 OpenBabel11021811403D
libRbt.so/2013.1/901 2013/11/27
 42 45  0  0  0  0  0  0  0  0999 V2000
    4.3397   -0.5079   39.4422 C   0  0  2  0  0  0  0  0  0  0  0  0
    4.9899    0.4162   38.5331 O   0  0  0  0  0  0  0  0  0  0  0  0
    5.3045   -0.9048   40.6211 C   0  0  2  0  0  0  0  0  0  0  0  0
    6.1035    0.2219   41.1693 N   0  3  0  0  0  0  0  0  0  0  0  0
    6.3177   -1.9808   40.1871 C   0  0  1  0  0  0  0  0  0  0  0  0
    7.0016   -2.5172   41.3175 O   0  0  0  0  0  0  0  0  0  0  0  0
    5.6219   -3.1181   39.4243 C   0  0  2  0  0  0  0  0  0  0  0  0
    6.5662   -4.1235   39.0697 O   0  0  0  0  0  0  0  0  0  0  0  0
    4.8557   -2.5680   38.2009 C   0  0  2  0  0  0  0  0  0  0  0  0
    3.8510   -1.6641   38.7076 O   0  0  0  0  0  0  0  0  0  0  0  0
    4.1488   -3.6380   37.3704 C   0  0  0  0  0  0  0  0  0  0  0  0
    3.0389   -4.1839   38.0709 O   0  0  0  0  0  0  0  0  0  0  0  0
    3.1845    3.8589   36.7736 C   0  0  1  0  0  0  0  0  0  0  0  0
    2.4322    4.8215   35.9482 N   0  3  0  0  0  0  0  0  0  0  0  0
    2.2452    2.9200   37.5896 C   0  0  2  0  0  0  0  0  0  0  0  0
    1.4027    3.6840   38.4493 O   0  0  0  0  0  0  0  0  0  0  0  0
    3.0621    1.9224   38.4619 C   0  0  1  0  0  0  0  0  0  0  0  0
    2.1397    0.9669   39.0647 O   0  0  0  0  0  0  0  0  0  0  0  0
    4.1351    1.1519   37.6251 C   0  0  1  0  0  0  0  0  0  0  0  0
    5.0340    2.1013   36.7700 C   0  0  1  0  0  0  0  0  0  0  0  0
    5.9714    1.3396   35.9151 N   0  3  0  0  0  0  0  0  0  0  0  0
    4.1622    3.0322   35.8881 C   0  0  0  0  0  0  0  0  0  0  0  0
    1.1693    1.4175   40.0632 C   0  0  1  0  0  0  0  0  0  0  0  0
    0.1669    0.2781   40.3261 C   0  0  2  0  0  0  0  0  0  0  0  0
   -1.0772    0.7891   40.7963 O   0  0  0  0  0  0  0  0  0  0  0  0
    0.9385   -0.4738   41.4212 C   0  0  1  0  0  0  0  0  0  0  0  0
    1.4549    0.6599   42.2916 C   0  0  2  0  0  0  0  0  0  0  0  0
    1.8186    1.6367   41.3281 O   0  0  0  0  0  0  0  0  0  0  0  0
    2.6586    0.3088   43.1755 C   0  0  0  0  0  0  0  0  0  0  0  0
    2.4229    0.7319   44.5104 O   0  0  0  0  0  0  0  0  0  0  0  0
    1.2826   -5.5850   42.3283 C   0  0  1  0  0  0  0  0  0  0  0  0
    1.6507   -5.5833   43.7065 O   0  0  0  0  0  0  0  0  0  0  0  0
   -0.2350   -5.2752   42.1999 C   0  0  2  0  0  0  0  0  0  0  0  0
   -0.6635   -5.6420   40.8905 O   0  0  0  0  0  0  0  0  0  0  0  0
   -0.6397   -3.7877   42.4634 C   0  0  1  0  0  0  0  0  0  0  0  0
   -0.8262   -3.5543   43.9124 N   0  3  0  0  0  0  0  0  0  0  0  0
    0.3619   -2.7935   41.8191 C   0  0  1  0  0  0  0  0  0  0  0  0
    0.1574   -1.4133   42.2097 O   0  0  0  0  0  0  0  0  0  0  0  0
    2.1013   -4.5229   41.5523 C   0  0  1  0  0  0  0  0  0  0  0  0
    1.7425   -3.2166   42.0803 O   0  0  0  0  0  0  0  0  0  0  0  0
    3.6244   -4.7429   41.6141 C   0  0  0  0  0  0  0  0  0  0  0  0
    4.1042   -5.6981   40.5963 N   0  3  0  0  0  0  0  0  0  0  0  0
  1  2  1  6  0  0  0
  1  3  1  0  0  0  0
  1 10  1  0  0  0  0
  3  4  1  6  0  0  0
  3  5  1  0  0  0  0
  5  6  1  1  0  0  0
  5  7  1  0  0  0  0
  7  8  1  6  0  0  0
  7  9  1  0  0  0  0
  9 10  1  0  0  0  0
  9 11  1  1  0  0  0
 11 12  1  0  0  0  0
 13 14  1  6  0  0  0
 13 15  1  0  0  0  0
 13 22  1  0  0  0  0
 15 16  1  1  0  0  0
 15 17  1  0  0  0  0
 17 18  1  6  0  0  0
 17 19  1  0  0  0  0
 19  2  1  1  0  0  0
 19 20  1  0  0  0  0
 20 21  1  6  0  0  0
 20 22  1  0  0  0  0
 23 18  1  6  0  0  0
 23 24  1  0  0  0  0
 23 28  1  0  0  0  0
 24 25  1  1  0  0  0
 24 26  1  0  0  0  0
 26 27  1  0  0  0  0
 26 38  1  1  0  0  0
 27 28  1  0  0  0  0
 27 29  1  6  0  0  0
 29 30  1  0  0  0  0
 31 32  1  1  0  0  0
 31 33  1  0  0  0  0
 31 39  1  0  0  0  0
 33 34  1  6  0  0  0
 33 35  1  0  0  0  0
 35 36  1  1  0  0  0
 35 37  1  0  0  0  0
 37 38  1  1  0  0  0
 37 40  1  0  0  0  0
 39 40  1  0  0  0  0
 39 41  1  1  0  0  0
 41 42  1  0  0  0  0
M  CHG  5   4   1  14   1  21   1  36   1  42   1
M  END
>  <CHROM.1>
-163.38085909,55.89852218,75.51915561,-173.53113091,65.00881194,70.15425423
59.14305569,-16.43571619,-20.58023489,-66.85549822,169.47759911,-156.81904241
57.89132290,102.15962975,-131.04710480,49.69728162,-68.00300441,59.13217867
28.39460670,-169.57753796,84.36943492,65.16089717,2.81876904,-1.09746986
40.11561106,-1.25161373,-0.56844795,2.71489286

>  <Name>
1pbr

>  <RI>
0

>  <Rbt.Current_Directory>
/home/itssahil/PROJECTS/Mol_Feturizer/New_Systems/rnas/1pbr

>  <Rbt.Executable>
rbdock ($Id: //depot/dev/client3/rdock/2013.1/src/exe/rbdock.cxx#4 $)

>  <Rbt.Library>
libRbt.so (2013.1, Build901 2013/11/27)

>  <Rbt.Parameter_File>
/export/apps/rDock/src/rDock_2013.1_src/data/scripts/dock_solv.prm

>  <Rbt.Receptor>
prm/pocket_docking_4.prm

>  <SCORE>
-34.1388

>  <SCORE.INTER>
-33.0197

>  <SCORE.INTER.CONST>
1

>  <SCORE.INTER.POLAR>
-5.88138

>  <SCORE.INTER.ROT>
9

>  <SCORE.INTER.SOLV>
22.5415

>  <SCORE.INTER.VDW>
-19.5224

>  <SCORE.INTER.norm>
-0.786184

>  <SCORE.INTRA>
-1.18124

>  <SCORE.INTRA.DIHEDRAL>
-0.540212

>  <SCORE.INTRA.DIHEDRAL.0>
29.7866

>  <SCORE.INTRA.POLAR>
-0.363341

>  <SCORE.INTRA.POLAR.0>
-0.984091

>  <SCORE.INTRA.REPUL>
-0.274115

>  <SCORE.INTRA.REPUL.0>
0.274115

>  <SCORE.INTRA.SOLV>
1.04211

>  <SCORE.INTRA.SOLV.lig_0>
-152.978

>  <SCORE.INTRA.VDW>
1.17375

>  <SCORE.INTRA.VDW.0>
-6.10719

>  <SCORE.INTRA.norm>
-0.0281247

>  <SCORE.RESTR>
0.0621759

>  <SCORE.RESTR.CAVITY>
0.0621759

>  <SCORE.RESTR.norm>
0.00148038

>  <SCORE.SYSTEM>
0

>  <SCORE.SYSTEM.CONST>
0

>  <SCORE.SYSTEM.DIHEDRAL>
0

>  <SCORE.SYSTEM.SOLV>
0

>  <SCORE.SYSTEM.norm>
0

>  <SCORE.heavy>
42

>  <SCORE.norm>
-0.812829

>  <RMSD>
8.341

$$$$
1pbr
 OpenBabel11021811403D
libRbt.so/2013.1/901 2013/11/27
 42 45  0  0  0  0  0  0  0  0999 V2000
    5.0863   -1.1598   38.5618 C   0  0  2  0  0  0  0  0  0  0  0  0
    4.9831   -0.7727   37.1680 O   0  0  0  0  0  0  0  0  0  0  0  0
    6.3657   -2.0447   38.8032 C   0  0  2  0  0  0  0  0  0  0  0  0
    7.5789   -1.5845   38.0789 N   0  3  0  0  0  0  0  0  0  0  0  0
    6.1346   -3.5054   38.3723 C   0  0  1  0  0  0  0  0  0  0  0  0
    7.1917   -4.3429   38.8352 O   0  0  0  0  0  0  0  0  0  0  0  0
    4.7942   -4.0328   38.9062 C   0  0  2  0  0  0  0  0  0  0  0  0
    4.6182   -5.3964   38.5352 O   0  0  0  0  0  0  0  0  0  0  0  0
    3.6271   -3.1363   38.4364 C   0  0  2  0  0  0  0  0  0  0  0  0
    3.8620   -1.8217   38.9841 O   0  0  0  0  0  0  0  0  0  0  0  0
    2.2501   -3.6017   38.9067 C   0  0  0  0  0  0  0  0  0  0  0  0
    2.0422   -4.9764   38.6107 O   0  0  0  0  0  0  0  0  0  0  0  0
    3.1299    2.6798   35.4787 C   0  0  1  0  0  0  0  0  0  0  0  0
    2.2027    3.7125   34.9808 N   0  3  0  0  0  0  0  0  0  0  0  0
    3.1114    2.5698   37.0334 C   0  0  2  0  0  0  0  0  0  0  0  0
    3.4707    3.8162   37.6248 O   0  0  0  0  0  0  0  0  0  0  0  0
    4.1067    1.4829   37.5350 C   0  0  1  0  0  0  0  0  0  0  0  0
    3.9215    1.3085   38.9711 O   0  0  0  0  0  0  0  0  0  0  0  0
    3.8932    0.1122   36.8133 C   0  0  1  0  0  0  0  0  0  0  0  0
    3.8592    0.2448   35.2570 C   0  0  1  0  0  0  0  0  0  0  0  0
    3.5570   -1.0495   34.6068 N   0  3  0  0  0  0  0  0  0  0  0  0
    2.8142    1.3044   34.8214 C   0  0  0  0  0  0  0  0  0  0  0  0
    2.7876    1.9431   39.6445 C   0  0  1  0  0  0  0  0  0  0  0  0
    1.5815    0.9870   39.5865 C   0  0  2  0  0  0  0  0  0  0  0  0
    0.3541    1.7052   39.6753 O   0  0  0  0  0  0  0  0  0  0  0  0
    1.8662    0.1629   40.8513 C   0  0  1  0  0  0  0  0  0  0  0  0
    2.2817    1.2316   41.8488 C   0  0  2  0  0  0  0  0  0  0  0  0
    3.0647    2.1027   41.0471 O   0  0  0  0  0  0  0  0  0  0  0  0
    3.1004    0.7268   43.0440 C   0  0  0  0  0  0  0  0  0  0  0  0
    4.1912    1.6016   43.2918 O   0  0  0  0  0  0  0  0  0  0  0  0
   -0.0944   -2.0993   45.3334 C   0  0  1  0  0  0  0  0  0  0  0  0
   -1.4279   -2.5118   45.0398 O   0  0  0  0  0  0  0  0  0  0  0  0
    0.9021   -2.9273   44.4749 C   0  0  2  0  0  0  0  0  0  0  0  0
    2.2073   -2.7837   45.0302 O   0  0  0  0  0  0  0  0  0  0  0  0
    0.9560   -2.5479   42.9587 C   0  0  1  0  0  0  0  0  0  0  0  0
   -0.1066   -3.2576   42.2128 N   0  3  0  0  0  0  0  0  0  0  0  0
    0.9156   -1.0118   42.7456 C   0  0  1  0  0  0  0  0  0  0  0  0
    0.7472   -0.6118   41.3633 O   0  0  0  0  0  0  0  0  0  0  0  0
    0.0804   -0.5902   45.0286 C   0  0  1  0  0  0  0  0  0  0  0  0
   -0.1110   -0.4035   43.5996 O   0  0  0  0  0  0  0  0  0  0  0  0
   -0.8632    0.3216   45.8349 C   0  0  0  0  0  0  0  0  0  0  0  0
   -0.3888    0.5572   47.2126 N   0  3  0  0  0  0  0  0  0  0  0  0
  1  2  1  6  0  0  0
  1  3  1  0  0  0  0
  1 10  1  0  0  0  0
  3  4  1  6  0  0  0
  3  5  1  0  0  0  0
  5  6  1  1  0  0  0
  5  7  1  0  0  0  0
  7  8  1  6  0  0  0
  7  9  1  0  0  0  0
  9 10  1  0  0  0  0
  9 11  1  1  0  0  0
 11 12  1  0  0  0  0
 13 14  1  1  0  0  0
 13 15  1  0  0  0  0
 13 22  1  0  0  0  0
 15 16  1  1  0  0  0
 15 17  1  0  0  0  0
 17 18  1  1  0  0  0
 17 19  1  0  0  0  0
 19  2  1  6  0  0  0
 19 20  1  0  0  0  0
 20 21  1  6  0  0  0
 20 22  1  0  0  0  0
 23 18  1  6  0  0  0
 23 24  1  0  0  0  0
 23 28  1  0  0  0  0
 24 25  1  1  0  0  0
 24 26  1  0  0  0  0
 26 27  1  0  0  0  0
 26 38  1  1  0  0  0
 27 28  1  0  0  0  0
 27 29  1  1  0  0  0
 29 30  1  0  0  0  0
 31 32  1  6  0  0  0
 31 33  1  0  0  0  0
 31 39  1  0  0  0  0
 33 34  1  1  0  0  0
 33 35  1  0  0  0  0
 35 36  1  6  0  0  0
 35 37  1  0  0  0  0
 37 38  1  6  0  0  0
 37 40  1  0  0  0  0
 39 40  1  0  0  0  0
 39 41  1  1  0  0  0
 41 42  1  0  0  0  0
M  CHG  5   4   1  14   1  21   1  36   1  42   1
M  END
>  <CHROM.1>
-176.45887536,64.48827811,27.81315181,-72.75916493,-165.82081468,-50.88047502
-99.62953008,3.37477216,-51.19703506,9.54382183,88.36592852,176.87378944
71.02611974,-161.26659969,136.01951805,-176.41754870,71.13222560,60.22819908
-19.28643347,-118.10911243,79.88491859,76.79145143,2.72423550,-0.67705815
40.13934686,-0.63777890,-0.98045772,2.54703850

>  <Name>
1pbr

>  <RI>
0

>  <Rbt.Current_Directory>
/home/itssahil/PROJECTS/Mol_Feturizer/New_Systems/rnas/1pbr

>  <Rbt.Executable>
rbdock ($Id: //depot/dev/client3/rdock/2013.1/src/exe/rbdock.cxx#4 $)

>  <Rbt.Library>
libRbt.so (2013.1, Build901 2013/11/27)

>  <Rbt.Parameter_File>
/export/apps/rDock/src/rDock_2013.1_src/data/scripts/dock_solv.prm

>  <Rbt.Receptor>
prm/pocket_docking_4.prm

>  <SCORE>
-38.3475

>  <SCORE.INTER>
-49.0129

>  <SCORE.INTER.CONST>
1

>  <SCORE.INTER.POLAR>
-7.21462

>  <SCORE.INTER.ROT>
9

>  <SCORE.INTER.SOLV>
32.5794

>  <SCORE.INTER.VDW>
-29.0863

>  <SCORE.INTER.norm>
-1.16697

>  <SCORE.INTRA>
10.6654

>  <SCORE.INTRA.DIHEDRAL>
13.4993

>  <SCORE.INTRA.DIHEDRAL.0>
29.7866

>  <SCORE.INTRA.POLAR>
0.0791767

>  <SCORE.INTRA.POLAR.0>
-0.984091

>  <SCORE.INTRA.REPUL>
-0.274115

>  <SCORE.INTRA.REPUL.0>
0.274115

>  <SCORE.INTRA.SOLV>
-3.89939

>  <SCORE.INTRA.SOLV.lig_0>
-152.978

>  <SCORE.INTRA.VDW>
6.9668

>  <SCORE.INTRA.VDW.0>
-6.10719

>  <SCORE.INTRA.norm>
0.253937

>  <SCORE.RESTR>
0

>  <SCORE.RESTR.CAVITY>
0

>  <SCORE.RESTR.norm>
0

>  <SCORE.SYSTEM>
0

>  <SCORE.SYSTEM.CONST>
0

>  <SCORE.SYSTEM.DIHEDRAL>
0

>  <SCORE.SYSTEM.SOLV>
0

>  <SCORE.SYSTEM.norm>
0

>  <SCORE.heavy>
42

>  <SCORE.norm>
-0.913036

>  <RMSD>
8.348

$$$$
1pbr
 OpenBabel11021811403D
libRbt.so/2013.1/901 2013/11/27
 42 45  0  0  0  0  0  0  0  0999 V2000
    4.2925   -2.3112   39.7382 C   0  0  2  0  0  0  0  0  0  0  0  0
    4.9025   -1.9948   38.4611 O   0  0  0  0  0  0  0  0  0  0  0  0
    5.3143   -3.0545   40.6772 C   0  0  2  0  0  0  0  0  0  0  0  0
    6.6954   -2.5072   40.6406 N   0  3  0  0  0  0  0  0  0  0  0  0
    5.4326   -4.5476   40.3174 C   0  0  1  0  0  0  0  0  0  0  0  0
    6.1471   -5.2564   41.3276 O   0  0  0  0  0  0  0  0  0  0  0  0
    4.0460   -5.1821   40.1321 C   0  0  2  0  0  0  0  0  0  0  0  0
    4.1741   -6.5708   39.8434 O   0  0  0  0  0  0  0  0  0  0  0  0
    3.2376   -4.4258   39.0547 C   0  0  2  0  0  0  0  0  0  0  0  0
    3.0712   -3.0727   39.5288 O   0  0  0  0  0  0  0  0  0  0  0  0
    1.8488   -5.0050   38.7908 C   0  0  0  0  0  0  0  0  0  0  0  0
    1.8571   -6.4237   38.8792 O   0  0  0  0  0  0  0  0  0  0  0  0
    4.5241    2.0423   37.1320 C   0  0  1  0  0  0  0  0  0  0  0  0
    4.1559    3.3064   36.4683 N   0  3  0  0  0  0  0  0  0  0  0  0
    3.3814    1.4986   38.0421 C   0  0  2  0  0  0  0  0  0  0  0  0
    3.0503    2.4525   39.0486 O   0  0  0  0  0  0  0  0  0  0  0  0
    3.7984    0.1715   38.7410 C   0  0  1  0  0  0  0  0  0  0  0  0
    2.6383   -0.3730   39.4372 O   0  0  0  0  0  0  0  0  0  0  0  0
    4.3364   -0.8856   37.7222 C   0  0  1  0  0  0  0  0  0  0  0  0
    5.4427   -0.3119   36.7800 C   0  0  1  0  0  0  0  0  0  0  0  0
    5.8605   -1.3033   35.7641 N   0  3  0  0  0  0  0  0  0  0  0  0
    4.9470    0.9784   36.0772 C   0  0  0  0  0  0  0  0  0  0  0  0
    1.8558    0.4802   40.3326 C   0  0  1  0  0  0  0  0  0  0  0  0
    0.9376   -0.4131   41.1876 C   0  0  2  0  0  0  0  0  0  0  0  0
   -0.2103    0.3065   41.6289 O   0  0  0  0  0  0  0  0  0  0  0  0
    1.9071   -0.7242   42.3379 C   0  0  1  0  0  0  0  0  0  0  0  0
    2.5517    0.6280   42.5942 C   0  0  2  0  0  0  0  0  0  0  0  0
    2.7185    1.1355   41.2792 O   0  0  0  0  0  0  0  0  0  0  0  0
    3.9011    0.5809   43.3227 C   0  0  0  0  0  0  0  0  0  0  0  0
    4.8821   -0.0233   42.4928 O   0  0  0  0  0  0  0  0  0  0  0  0
   -0.1998   -5.1697   44.5606 C   0  0  1  0  0  0  0  0  0  0  0  0
   -0.7965   -4.7709   45.7933 O   0  0  0  0  0  0  0  0  0  0  0  0
   -0.9039   -4.4351   43.3857 C   0  0  2  0  0  0  0  0  0  0  0  0
   -0.5714   -5.1013   42.1699 O   0  0  0  0  0  0  0  0  0  0  0  0
   -0.5552   -2.9176   43.2394 C   0  0  1  0  0  0  0  0  0  0  0  0
   -1.4196   -2.1037   44.1223 N   0  3  0  0  0  0  0  0  0  0  0  0
    0.9559   -2.6475   43.4639 C   0  0  1  0  0  0  0  0  0  0  0  0
    1.2977   -1.2424   43.5523 O   0  0  0  0  0  0  0  0  0  0  0  0
    1.3117   -4.8289   44.5604 C   0  0  1  0  0  0  0  0  0  0  0  0
    1.4381   -3.3827   44.6387 O   0  0  0  0  0  0  0  0  0  0  0  0
    2.1048   -5.5135   45.6893 C   0  0  0  0  0  0  0  0  0  0  0  0
    3.2959   -4.7431   46.0973 N   0  3  0  0  0  0  0  0  0  0  0  0
  1  2  1  6  0  0  0
  1  3  1  0  0  0  0
  1 10  1  0  0  0  0
  3  4  1  6  0  0  0
  3  5  1  0  0  0  0
  5  6  1  1  0  0  0
  5  7  1  0  0  0  0
  7  8  1  6  0  0  0
  7  9  1  0  0  0  0
  9 10  1  0  0  0  0
  9 11  1  1  0  0  0
 11 12  1  0  0  0  0
 13 14  1  6  0  0  0
 13 15  1  0  0  0  0
 13 22  1  0  0  0  0
 15 16  1  1  0  0  0
 15 17  1  0  0  0  0
 17 18  1  6  0  0  0
 17 19  1  0  0  0  0
 19  2  1  1  0  0  0
 19 20  1  0  0  0  0
 20 21  1  6  0  0  0
 20 22  1  0  0  0  0
 23 18  1  6  0  0  0
 23 24  1  0  0  0  0
 23 28  1  0  0  0  0
 24 25  1  1  0  0  0
 24 26  1  0  0  0  0
 26 27  1  0  0  0  0
 26 38  1  1  0  0  0
 27 28  1  0  0  0  0
 27 29  1  6  0  0  0
 29 30  1  0  0  0  0
 31 32  1  1  0  0  0
 31 33  1  0  0  0  0
 31 39  1  0  0  0  0
 33 34  1  6  0  0  0
 33 35  1  0  0  0  0
 35 36  1  1  0  0  0
 35 37  1  0  0  0  0
 37 38  1  1  0  0  0
 37 40  1  0  0  0  0
 39 40  1  0  0  0  0
 39 41  1  1  0  0  0
 41 42  1  0  0  0  0
M  CHG  5   4   1  14   1  21   1  36   1  42   1
M  END
>  <CHROM.1>
-155.57935746,32.13679902,59.86112858,63.20418192,-57.41912937,-36.41915548
-75.46067180,-69.43734203,-74.97453179,-50.22218782,-165.86829383,-95.10188188
-53.85360004,78.26063020,67.12536630,-59.34654371,67.44051405,-179.53019241
-177.53696886,-103.01367985,-152.13198253,67.16229663,2.80669434,-2.10468653
40.94891447,-0.83235667,-0.88481478,2.82365260

>  <Name>
1pbr

>  <RI>
0

>  <Rbt.Current_Directory>
/home/itssahil/PROJECTS/Mol_Feturizer/New_Systems/rnas/1pbr

>  <Rbt.Executable>
rbdock ($Id: //depot/dev/client3/rdock/2013.1/src/exe/rbdock.cxx#4 $)

>  <Rbt.Library>
libRbt.so (2013.1, Build901 2013/11/27)

>  <Rbt.Parameter_File>
/export/apps/rDock/src/rDock_2013.1_src/data/scripts/dock_solv.prm

>  <Rbt.Receptor>
prm/pocket_docking_4.prm

>  <SCORE>
-25.2109

>  <SCORE.INTER>
-29.7611

>  <SCORE.INTER.CONST>
1

>  <SCORE.INTER.POLAR>
-4.80157

>  <SCORE.INTER.ROT>
9

>  <SCORE.INTER.SOLV>
25.0094

>  <SCORE.INTER.VDW>
-21.772

>  <SCORE.INTER.norm>
-0.708599

>  <SCORE.INTRA>
4.55019

>  <SCORE.INTRA.DIHEDRAL>
-4.58213

>  <SCORE.INTRA.DIHEDRAL.0>
29.7866

>  <SCORE.INTRA.POLAR>
0.984091

>  <SCORE.INTRA.POLAR.0>
-0.984091

>  <SCORE.INTRA.REPUL>
-0.232403

>  <SCORE.INTRA.REPUL.0>
0.274115

>  <SCORE.INTRA.SOLV>
-1.29123

>  <SCORE.INTRA.SOLV.lig_0>
-152.978

>  <SCORE.INTRA.VDW>
5.30298

>  <SCORE.INTRA.VDW.0>
-6.10719

>  <SCORE.INTRA.norm>
0.108338

>  <SCORE.RESTR>
0

>  <SCORE.RESTR.CAVITY>
0

>  <SCORE.RESTR.norm>
0

>  <SCORE.SYSTEM>
0

>  <SCORE.SYSTEM.CONST>
0

>  <SCORE.SYSTEM.DIHEDRAL>
0

>  <SCORE.SYSTEM.SOLV>
0

>  <SCORE.SYSTEM.norm>
0

>  <SCORE.heavy>
42

>  <SCORE.norm>
-0.600261

>  <RMSD>
8.357

$$$$
1pbr
 OpenBabel11021811403D
libRbt.so/2013.1/901 2013/11/27
 42 45  0  0  0  0  0  0  0  0999 V2000
    2.6038    1.0008   36.2119 C   0  0  2  0  0  0  0  0  0  0  0  0
    3.8979    1.0188   36.8661 O   0  0  0  0  0  0  0  0  0  0  0  0
    2.4971    2.1594   35.1514 C   0  0  2  0  0  0  0  0  0  0  0  0
    3.7250    2.3676   34.3406 N   0  3  0  0  0  0  0  0  0  0  0  0
    2.1866    3.5125   35.8188 C   0  0  1  0  0  0  0  0  0  0  0  0
    1.8335    4.4894   34.8419 O   0  0  0  0  0  0  0  0  0  0  0  0
    1.0467    3.3756   36.8394 C   0  0  2  0  0  0  0  0  0  0  0  0
    0.7446    4.6434   37.4136 O   0  0  0  0  0  0  0  0  0  0  0  0
    1.3903    2.3105   37.9042 C   0  0  2  0  0  0  0  0  0  0  0  0
    1.5447    1.0560   37.2072 O   0  0  0  0  0  0  0  0  0  0  0  0
    0.3161    2.1240   38.9743 C   0  0  0  0  0  0  0  0  0  0  0  0
   -0.9843    2.1023   38.4006 O   0  0  0  0  0  0  0  0  0  0  0  0
    4.2719   -3.2199   37.1852 C   0  0  1  0  0  0  0  0  0  0  0  0
    4.6365   -4.6068   37.5276 N   0  3  0  0  0  0  0  0  0  0  0  0
    3.5420   -2.4949   38.3562 C   0  0  2  0  0  0  0  0  0  0  0  0
    2.3522   -3.1957   38.7109 O   0  0  0  0  0  0  0  0  0  0  0  0
    3.1564   -1.0379   37.9663 C   0  0  1  0  0  0  0  0  0  0  0  0
    2.6352   -0.3615   39.1487 O   0  0  0  0  0  0  0  0  0  0  0  0
    4.3766   -0.2370   37.4050 C   0  0  1  0  0  0  0  0  0  0  0  0
    5.1318   -0.9991   36.2694 C   0  0  1  0  0  0  0  0  0  0  0  0
    6.3370   -0.2629   35.8280 N   0  3  0  0  0  0  0  0  0  0  0  0
    5.5317   -2.4221   36.7380 C   0  0  0  0  0  0  0  0  0  0  0  0
    3.5301   -0.0399   40.2611 C   0  0  1  0  0  0  0  0  0  0  0  0
    2.7097    0.6399   41.3733 C   0  0  2  0  0  0  0  0  0  0  0  0
    3.5356    1.4724   42.1827 O   0  0  0  0  0  0  0  0  0  0  0  0
    2.2348   -0.6139   42.1231 C   0  0  1  0  0  0  0  0  0  0  0  0
    3.4898   -1.4706   42.1513 C   0  0  2  0  0  0  0  0  0  0  0  0
    4.0359   -1.2458   40.8606 O   0  0  0  0  0  0  0  0  0  0  0  0
    3.2528   -2.9695   42.3764 C   0  0  0  0  0  0  0  0  0  0  0  0
    4.4767   -3.6796   42.2574 O   0  0  0  0  0  0  0  0  0  0  0  0
   -1.1798   -3.1534   45.0696 C   0  0  1  0  0  0  0  0  0  0  0  0
   -0.2856   -3.7657   45.9970 O   0  0  0  0  0  0  0  0  0  0  0  0
   -1.3615   -1.6552   45.4413 C   0  0  2  0  0  0  0  0  0  0  0  0
   -2.5127   -1.1563   44.7641 O   0  0  0  0  0  0  0  0  0  0  0  0
   -0.1440   -0.7307   45.1116 C   0  0  1  0  0  0  0  0  0  0  0  0
    0.8449   -0.7707   46.2114 N   0  3  0  0  0  0  0  0  0  0  0  0
    0.4794   -1.0664   43.7312 C   0  0  1  0  0  0  0  0  0  0  0  0
    1.7339   -0.3903   43.4699 O   0  0  0  0  0  0  0  0  0  0  0  0
   -0.6228   -3.2714   43.6285 C   0  0  1  0  0  0  0  0  0  0  0  0
    0.6196   -2.5184   43.5725 O   0  0  0  0  0  0  0  0  0  0  0  0
   -0.4092   -4.7229   43.1601 C   0  0  0  0  0  0  0  0  0  0  0  0
   -1.6780   -5.4296   42.8970 N   0  3  0  0  0  0  0  0  0  0  0  0
  1  2  1  1  0  0  0
  1  3  1  0  0  0  0
  1 10  1  0  0  0  0
  3  4  1  1  0  0  0
  3  5  1  0  0  0  0
  5  6  1  6  0  0  0
  5  7  1  0  0  0  0
  7  8  1  1  0  0  0
  7  9  1  0  0  0  0
  9 10  1  0  0  0  0
  9 11  1  1  0  0  0
 11 12  1  0  0  0  0
 13 14  1  1  0  0  0
 13 15  1  0  0  0  0
 13 22  1  0  0  0  0
 15 16  1  6  0  0  0
 15 17  1  0  0  0  0
 17 18  1  1  0  0  0
 17 19  1  0  0  0  0
 19  2  1  6  0  0  0
 19 20  1  0  0  0  0
 20 21  1  1  0  0  0
 20 22  1  0  0  0  0
 23 18  1  6  0  0  0
 23 24  1  0  0  0  0
 23 28  1  0  0  0  0
 24 25  1  1  0  0  0
 24 26  1  0  0  0  0
 26 27  1  0  0  0  0
 26 38  1  1  0  0  0
 27 28  1  0  0  0  0
 27 29  1  6  0  0  0
 29 30  1  0  0  0  0
 31 32  1  1  0  0  0
 31 33  1  0  0  0  0
 31 39  1  0  0  0  0
 33 34  1  6  0  0  0
 33 35  1  0  0  0  0
 35 36  1  1  0  0  0
 35 37  1  0  0  0  0
 37 38  1  1  0  0  0
 37 40  1  0  0  0  0
 39 40  1  0  0  0  0
 39 41  1  1  0  0  0
 41 42  1  0  0  0  0
M  CHG  5   4   1  14   1  21   1  36   1  42   1
M  END
>  <CHROM.1>
-154.21675010,-35.81382696,-179.94615863,-173.42018312,-82.44762674,43.15703194
56.81059951,-70.55638540,177.97209620,68.87661603,-178.90499995,102.40450810
173.07363924,133.09469408,174.51315042,-52.73235518,179.11958546,35.73284921
167.29424168,-174.29998816,71.83335162,96.18838606,2.02771138,-0.60567211
40.05399425,1.08299017,0.80740219,-0.73877209

>  <Name>
1pbr

>  <RI>
0

>  <Rbt.Current_Directory>
/home/itssahil/PROJECTS/Mol_Feturizer/New_Systems/rnas/1pbr

>  <Rbt.Executable>
rbdock ($Id: //depot/dev/client3/rdock/2013.1/src/exe/rbdock.cxx#4 $)

>  <Rbt.Library>
libRbt.so (2013.1, Build901 2013/11/27)

>  <Rbt.Parameter_File>
/export/apps/rDock/src/rDock_2013.1_src/data/scripts/dock_solv.prm

>  <Rbt.Receptor>
prm/pocket_docking_8.prm

>  <SCORE>
-47.2375

>  <SCORE.INTER>
-47.8911

>  <SCORE.INTER.CONST>
1

>  <SCORE.INTER.POLAR>
-7.98466

>  <SCORE.INTER.ROT>
9

>  <SCORE.INTER.SOLV>
30.9704

>  <SCORE.INTER.VDW>
-25.2353

>  <SCORE.INTER.norm>
-1.14026

>  <SCORE.INTRA>
0.653507

>  <SCORE.INTRA.DIHEDRAL>
-3.57254

>  <SCORE.INTRA.DIHEDRAL.0>
29.7866

>  <SCORE.INTRA.POLAR>
0.791369

>  <SCORE.INTRA.POLAR.0>
-0.984091

>  <SCORE.INTRA.REPUL>
-0.274115

>  <SCORE.INTRA.REPUL.0>
0.274115

>  <SCORE.INTRA.SOLV>
-3.27694

>  <SCORE.INTRA.SOLV.lig_0>
-152.978

>  <SCORE.INTRA.VDW>
2.75817

>  <SCORE.INTRA.VDW.0>
-6.10719

>  <SCORE.INTRA.norm>
0.0155597

>  <SCORE.RESTR>
0

>  <SCORE.RESTR.CAVITY>
0

>  <SCORE.RESTR.norm>
0

>  <SCORE.SYSTEM>
0

>  <SCORE.SYSTEM.CONST>
0

>  <SCORE.SYSTEM.DIHEDRAL>
0

>  <SCORE.SYSTEM.SOLV>
0

>  <SCORE.SYSTEM.norm>
0

>  <SCORE.heavy>
42

>  <SCORE.norm>
-1.1247

>  <RMSD>
8.361

$$$$
1pbr
 OpenBabel11021811403D
libRbt.so/2013.1/901 2013/11/27
 42 45  0  0  0  0  0  0  0  0999 V2000
    4.8017    0.0459   40.0918 C   0  0  2  0  0  0  0  0  0  0  0  0
    4.6816    1.2248   39.2559 O   0  0  0  0  0  0  0  0  0  0  0  0
    5.4680    0.4047   41.4723 C   0  0  2  0  0  0  0  0  0  0  0  0
    4.9982    1.6816   42.0699 N   0  3  0  0  0  0  0  0  0  0  0  0
    6.9988    0.5237   41.3494 C   0  0  1  0  0  0  0  0  0  0  0  0
    7.6068    0.5844   42.6378 O   0  0  0  0  0  0  0  0  0  0  0  0
    7.5831   -0.6604   40.5643 C   0  0  2  0  0  0  0  0  0  0  0  0
    9.0019   -0.5560   40.4986 O   0  0  0  0  0  0  0  0  0  0  0  0
    6.9321   -0.7654   39.1673 C   0  0  2  0  0  0  0  0  0  0  0  0
    5.5230   -0.9961   39.3781 O   0  0  0  0  0  0  0  0  0  0  0  0
    7.4716   -1.9078   38.3082 C   0  0  0  0  0  0  0  0  0  0  0  0
    6.9171   -1.8745   36.9998 O   0  0  0  0  0  0  0  0  0  0  0  0
    2.7290    1.3826   35.4651 C   0  0  1  0  0  0  0  0  0  0  0  0
    2.3480    1.3090   34.0426 N   0  3  0  0  0  0  0  0  0  0  0  0
    2.8919   -0.0287   36.1064 C   0  0  2  0  0  0  0  0  0  0  0  0
    1.6747   -0.7641   36.0068 O   0  0  0  0  0  0  0  0  0  0  0  0
    3.2815    0.0753   37.6101 C   0  0  1  0  0  0  0  0  0  0  0  0
    3.5844   -1.2621   38.1066 O   0  0  0  0  0  0  0  0  0  0  0  0
    4.5185    1.0053   37.8340 C   0  0  1  0  0  0  0  0  0  0  0  0
    4.3651    2.3965   37.1399 C   0  0  1  0  0  0  0  0  0  0  0  0
    5.5892    3.2151   37.2849 N   0  3  0  0  0  0  0  0  0  0  0  0
    4.0281    2.2232   35.6363 C   0  0  0  0  0  0  0  0  0  0  0  0
    2.5328   -2.2787   38.1577 C   0  0  1  0  0  0  0  0  0  0  0  0
    3.1925   -3.6704   38.1706 C   0  0  2  0  0  0  0  0  0  0  0  0
    2.3102   -4.6601   37.6488 O   0  0  0  0  0  0  0  0  0  0  0  0
    3.4065   -3.8216   39.6843 C   0  0  1  0  0  0  0  0  0  0  0  0
    2.0958   -3.3018   40.2513 C   0  0  2  0  0  0  0  0  0  0  0  0
    1.8189   -2.1973   39.4039 O   0  0  0  0  0  0  0  0  0  0  0  0
    2.1514   -2.8493   41.7162 C   0  0  0  0  0  0  0  0  0  0  0  0
    0.8657   -2.4251   42.1443 O   0  0  0  0  0  0  0  0  0  0  0  0
    7.2639   -7.5577   39.8749 C   0  0  1  0  0  0  0  0  0  0  0  0
    6.5850   -8.8057   39.7467 O   0  0  0  0  0  0  0  0  0  0  0  0
    6.9268   -6.6596   38.6520 C   0  0  2  0  0  0  0  0  0  0  0  0
    7.8755   -5.5969   38.5945 O   0  0  0  0  0  0  0  0  0  0  0  0
    5.4869   -6.0494   38.6457 C   0  0  1  0  0  0  0  0  0  0  0  0
    4.5231   -7.0111   38.0668 N   0  3  0  0  0  0  0  0  0  0  0  0
    5.0648   -5.5497   40.0525 C   0  0  1  0  0  0  0  0  0  0  0  0
    3.6692   -5.1735   40.1512 O   0  0  0  0  0  0  0  0  0  0  0  0
    6.8352   -6.8448   41.1820 C   0  0  1  0  0  0  0  0  0  0  0  0
    5.4174   -6.5415   41.0749 O   0  0  0  0  0  0  0  0  0  0  0  0
    7.1308   -7.6539   42.4588 C   0  0  0  0  0  0  0  0  0  0  0  0
    6.3971   -7.1495   43.6360 N   0  3  0  0  0  0  0  0  0  0  0  0
  1  2  1  6  0  0  0
  1  3  1  0  0  0  0
  1 10  1  0  0  0  0
  3  4  1  6  0  0  0
  3  5  1  0  0  0  0
  5  6  1  1  0  0  0
  5  7  1  0  0  0  0
  7  8  1  6  0  0  0
  7  9  1  0  0  0  0
  9 10  1  0  0  0  0
  9 11  1  6  0  0  0
 11 12  1  0  0  0  0
 13 14  1  6  0  0  0
 13 15  1  0  0  0  0
 13 22  1  0  0  0  0
 15 16  1  1  0  0  0
 15 17  1  0  0  0  0
 17 18  1  6  0  0  0
 17 19  1  0  0  0  0
 19  2  1  1  0  0  0
 19 20  1  0  0  0  0
 20 21  1  6  0  0  0
 20 22  1  0  0  0  0
 23 18  1  1  0  0  0
 23 24  1  0  0  0  0
 23 28  1  0  0  0  0
 24 25  1  1  0  0  0
 24 26  1  0  0  0  0
 26 27  1  0  0  0  0
 26 38  1  6  0  0  0
 27 28  1  0  0  0  0
 27 29  1  1  0  0  0
 29 30  1  0  0  0  0
 31 32  1  6  0  0  0
 31 33  1  0  0  0  0
 31 39  1  0  0  0  0
 33 34  1  1  0  0  0
 33 35  1  0  0  0  0
 35 36  1  1  0  0  0
 35 37  1  0  0  0  0
 37 38  1  6  0  0  0
 37 40  1  0  0  0  0
 39 40  1  0  0  0  0
 39 41  1  1  0  0  0
 41 42  1  0  0  0  0
M  CHG  5   4   1  14   1  21   1  36   1  42   1
M  END
>  <CHROM.1>
159.84454151,55.38990138,168.75129395,-170.45011520,-54.05945168,-174.85339927
-170.53727132,-54.82367773,54.24008243,-64.59489244,157.92377085,145.46956646
-179.93607902,84.61674649,-178.21731838,70.33226171,179.33586663,173.89325568
-92.59218489,-82.95803126,-164.12850897,-49.18340657,4.87244452,-2.36207329
39.20693551,-1.87778860,0.74193652,2.98132026

>  <Name>
1pbr

>  <RI>
0

>  <Rbt.Current_Directory>
/home/itssahil/PROJECTS/Mol_Feturizer/New_Systems/rnas/1pbr

>  <Rbt.Executable>
rbdock ($Id: //depot/dev/client3/rdock/2013.1/src/exe/rbdock.cxx#4 $)

>  <Rbt.Library>
libRbt.so (2013.1, Build901 2013/11/27)

>  <Rbt.Parameter_File>
/export/apps/rDock/src/rDock_2013.1_src/data/scripts/dock_solv.prm

>  <Rbt.Receptor>
prm/pocket_docking_8.prm

>  <SCORE>
-49.7474

>  <SCORE.INTER>
-49.4736

>  <SCORE.INTER.CONST>
1

>  <SCORE.INTER.POLAR>
-7.5623

>  <SCORE.INTER.ROT>
9

>  <SCORE.INTER.SOLV>
40.4479

>  <SCORE.INTER.VDW>
-30.8574

>  <SCORE.INTER.norm>
-1.17794

>  <SCORE.INTRA>
-0.273807

>  <SCORE.INTRA.DIHEDRAL>
-11.7171

>  <SCORE.INTRA.DIHEDRAL.0>
29.7866

>  <SCORE.INTRA.POLAR>
0.857935

>  <SCORE.INTRA.POLAR.0>
-0.984091

>  <SCORE.INTRA.REPUL>
0.0692245

>  <SCORE.INTRA.REPUL.0>
0.274115

>  <SCORE.INTRA.SOLV>
-2.42357

>  <SCORE.INTRA.SOLV.lig_0>
-152.978

>  <SCORE.INTRA.VDW>
3.53342

>  <SCORE.INTRA.VDW.0>
-6.10719

>  <SCORE.INTRA.norm>
-0.00651921

>  <SCORE.RESTR>
0

>  <SCORE.RESTR.CAVITY>
0

>  <SCORE.RESTR.norm>
0

>  <SCORE.SYSTEM>
0

>  <SCORE.SYSTEM.CONST>
0

>  <SCORE.SYSTEM.DIHEDRAL>
0

>  <SCORE.SYSTEM.SOLV>
0

>  <SCORE.SYSTEM.norm>
0

>  <SCORE.heavy>
42

>  <SCORE.norm>
-1.18446

>  <RMSD>
8.370

$$$$
1pbr
 OpenBabel11021811403D
libRbt.so/2013.1/901 2013/11/27
 42 45  0  0  0  0  0  0  0  0999 V2000
    2.1908    1.9115   39.1264 C   0  0  2  0  0  0  0  0  0  0  0  0
    2.5849    0.6619   38.5049 O   0  0  0  0  0  0  0  0  0  0  0  0
    1.2336    1.6509   40.3487 C   0  0  2  0  0  0  0  0  0  0  0  0
    1.6243    0.4992   41.2027 N   0  3  0  0  0  0  0  0  0  0  0  0
   -0.2109    1.3765   39.8894 C   0  0  1  0  0  0  0  0  0  0  0  0
   -1.1082    1.4056   40.9972 O   0  0  0  0  0  0  0  0  0  0  0  0
   -0.6611    2.4043   38.8404 C   0  0  2  0  0  0  0  0  0  0  0  0
   -2.0120    2.1614   38.4605 O   0  0  0  0  0  0  0  0  0  0  0  0
    0.3015    2.4107   37.6321 C   0  0  2  0  0  0  0  0  0  0  0  0
    1.5998    2.7941   38.1329 O   0  0  0  0  0  0  0  0  0  0  0  0
   -0.0847    3.3931   36.5277 C   0  0  0  0  0  0  0  0  0  0  0  0
   -1.2331    2.9460   35.8191 O   0  0  0  0  0  0  0  0  0  0  0  0
    5.6947   -0.7723   35.9593 C   0  0  1  0  0  0  0  0  0  0  0  0
    6.9402   -1.0022   35.2045 N   0  3  0  0  0  0  0  0  0  0  0  0
    5.8767   -1.0181   37.4878 C   0  0  2  0  0  0  0  0  0  0  0  0
    6.3055   -2.3562   37.7290 O   0  0  0  0  0  0  0  0  0  0  0  0
    4.5462   -0.7816   38.2607 C   0  0  1  0  0  0  0  0  0  0  0  0
    4.8183   -0.8591   39.6914 O   0  0  0  0  0  0  0  0  0  0  0  0
    3.9114    0.6079   37.9269 C   0  0  1  0  0  0  0  0  0  0  0  0
    3.7852    0.8639   36.3909 C   0  0  1  0  0  0  0  0  0  0  0  0
    3.2749    2.2233   36.1057 N   0  3  0  0  0  0  0  0  0  0  0  0
    5.1528    0.6618   35.6887 C   0  0  0  0  0  0  0  0  0  0  0  0
    5.6893    0.1319   40.3248 C   0  0  1  0  0  0  0  0  0  0  0  0
    5.3754    0.1728   41.8321 C   0  0  2  0  0  0  0  0  0  0  0  0
    5.7194    1.4368   42.3926 O   0  0  0  0  0  0  0  0  0  0  0  0
    6.3141   -0.9479   42.3042 C   0  0  1  0  0  0  0  0  0  0  0  0
    7.5799   -0.6670   41.5115 C   0  0  2  0  0  0  0  0  0  0  0  0
    7.0634   -0.2866   40.2454 O   0  0  0  0  0  0  0  0  0  0  0  0
    8.5349   -1.8583   41.3617 C   0  0  0  0  0  0  0  0  0  0  0  0
    7.8999   -2.9044   40.6415 O   0  0  0  0  0  0  0  0  0  0  0  0
    4.0347   -3.1326   46.4636 C   0  0  1  0  0  0  0  0  0  0  0  0
    5.0352   -4.0620   46.8759 O   0  0  0  0  0  0  0  0  0  0  0  0
    4.4570   -1.6985   46.8884 C   0  0  2  0  0  0  0  0  0  0  0  0
    3.3144   -0.8489   46.8153 O   0  0  0  0  0  0  0  0  0  0  0  0
    5.6112   -1.0628   46.0461 C   0  0  1  0  0  0  0  0  0  0  0  0
    6.9267   -1.4882   46.5727 N   0  3  0  0  0  0  0  0  0  0  0  0
    5.4485   -1.3535   44.5309 C   0  0  1  0  0  0  0  0  0  0  0  0
    6.5953   -0.9746   43.7307 O   0  0  0  0  0  0  0  0  0  0  0  0
    3.8491   -3.1900   44.9264 C   0  0  1  0  0  0  0  0  0  0  0  0
    5.0965   -2.7616   44.3148 O   0  0  0  0  0  0  0  0  0  0  0  0
    3.4247   -4.5743   44.4014 C   0  0  0  0  0  0  0  0  0  0  0  0
    4.4467   -5.6123   44.6398 N   0  3  0  0  0  0  0  0  0  0  0  0
  1  2  1  6  0  0  0
  1  3  1  0  0  0  0
  1 10  1  0  0  0  0
  3  4  1  6  0  0  0
  3  5  1  0  0  0  0
  5  6  1  1  0  0  0
  5  7  1  0  0  0  0
  7  8  1  6  0  0  0
  7  9  1  0  0  0  0
  9 10  1  0  0  0  0
  9 11  1  6  0  0  0
 11 12  1  0  0  0  0
 13 14  1  6  0  0  0
 13 15  1  0  0  0  0
 13 22  1  0  0  0  0
 15 16  1  6  0  0  0
 15 17  1  0  0  0  0
 17 18  1  1  0  0  0
 17 19  1  0  0  0  0
 19  2  1  1  0  0  0
 19 20  1  0  0  0  0
 20 21  1  1  0  0  0
 20 22  1  0  0  0  0
 23 18  1  6  0  0  0
 23 24  1  0  0  0  0
 23 28  1  0  0  0  0
 24 25  1  1  0  0  0
 24 26  1  0  0  0  0
 26 27  1  0  0  0  0
 26 38  1  1  0  0  0
 27 28  1  0  0  0  0
 27 29  1  6  0  0  0
 29 30  1  0  0  0  0
 31 32  1  6  0  0  0
 31 33  1  0  0  0  0
 31 39  1  0  0  0  0
 33 34  1  6  0  0  0
 33 35  1  0  0  0  0
 35 36  1  1  0  0  0
 35 37  1  0  0  0  0
 37 38  1  6  0  0  0
 37 40  1  0  0  0  0
 39 40  1  0  0  0  0
 39 41  1  6  0  0  0
 41 42  1  0  0  0  0
M  CHG  5   4   1  14   1  21   1  36   1  42   1
M  END
>  <CHROM.1>
-147.11611228,139.21879025,-175.53198021,52.24874408,-64.43169276,-71.93356783
-64.30748792,86.01742368,50.40306729,64.71863504,157.95755161,74.05057508
-163.53345722,69.25186515,62.66223700,-62.56547609,61.90810562,53.47802373
-168.07818440,-165.98740500,-63.72550772,159.79842328,3.97016579,-0.36843230
40.79621808,2.02206314,0.41755482,-1.26669595

>  <Name>
1pbr

>  <RI>
0

>  <Rbt.Current_Directory>
/home/itssahil/PROJECTS/Mol_Feturizer/New_Systems/rnas/1pbr

>  <Rbt.Executable>
rbdock ($Id: //depot/dev/client3/rdock/2013.1/src/exe/rbdock.cxx#4 $)

>  <Rbt.Library>
libRbt.so (2013.1, Build901 2013/11/27)

>  <Rbt.Parameter_File>
/export/apps/rDock/src/rDock_2013.1_src/data/scripts/dock_solv.prm

>  <Rbt.Receptor>
prm/pocket_docking_8.prm

>  <SCORE>
-41.8254

>  <SCORE.INTER>
-36.3698

>  <SCORE.INTER.CONST>
1

>  <SCORE.INTER.POLAR>
-5.57329

>  <SCORE.INTER.ROT>
9

>  <SCORE.INTER.SOLV>
21.8773

>  <SCORE.INTER.VDW>
-22.5613

>  <SCORE.INTER.norm>
-0.865947

>  <SCORE.INTRA>
-5.45562

>  <SCORE.INTRA.DIHEDRAL>
-9.93695

>  <SCORE.INTRA.DIHEDRAL.0>
29.7866

>  <SCORE.INTRA.POLAR>
-0.70655

>  <SCORE.INTRA.POLAR.0>
-0.984091

>  <SCORE.INTRA.REPUL>
-0.269626

>  <SCORE.INTRA.REPUL.0>
0.274115

>  <SCORE.INTRA.SOLV>
4.79676

>  <SCORE.INTRA.SOLV.lig_0>
-152.978

>  <SCORE.INTRA.VDW>
0.864871

>  <SCORE.INTRA.VDW.0>
-6.10719

>  <SCORE.INTRA.norm>
-0.129896

>  <SCORE.RESTR>
0

>  <SCORE.RESTR.CAVITY>
0

>  <SCORE.RESTR.norm>
0

>  <SCORE.SYSTEM>
0

>  <SCORE.SYSTEM.CONST>
0

>  <SCORE.SYSTEM.DIHEDRAL>
0

>  <SCORE.SYSTEM.SOLV>
0

>  <SCORE.SYSTEM.norm>
0

>  <SCORE.heavy>
42

>  <SCORE.norm>
-0.995843

>  <RMSD>
8.372

$$$$
1pbr
 OpenBabel11021811403D
libRbt.so/2013.1/901 2013/11/27
 42 45  0  0  0  0  0  0  0  0999 V2000
    5.4628   -1.7649   39.0230 C   0  0  2  0  0  0  0  0  0  0  0  0
    5.3595   -1.2293   37.6793 O   0  0  0  0  0  0  0  0  0  0  0  0
    6.9689   -1.9959   39.4187 C   0  0  2  0  0  0  0  0  0  0  0  0
    7.8920   -0.9137   38.9885 N   0  3  0  0  0  0  0  0  0  0  0  0
    7.5211   -3.2998   38.8125 C   0  0  1  0  0  0  0  0  0  0  0  0
    8.7840   -3.6297   39.3865 O   0  0  0  0  0  0  0  0  0  0  0  0
    6.5432   -4.4650   39.0260 C   0  0  2  0  0  0  0  0  0  0  0  0
    7.0893   -5.6698   38.4983 O   0  0  0  0  0  0  0  0  0  0  0  0
    5.1573   -4.1327   38.4299 C   0  0  2  0  0  0  0  0  0  0  0  0
    4.6640   -2.9749   39.1368 O   0  0  0  0  0  0  0  0  0  0  0  0
    4.1256   -5.2494   38.5801 C   0  0  0  0  0  0  0  0  0  0  0  0
    4.7418   -6.4717   38.9634 O   0  0  0  0  0  0  0  0  0  0  0  0
    2.4364    1.4385   36.0836 C   0  0  1  0  0  0  0  0  0  0  0  0
    1.2244    2.0879   35.5512 N   0  3  0  0  0  0  0  0  0  0  0  0
    2.2963    1.0735   37.5925 C   0  0  2  0  0  0  0  0  0  0  0  0
    2.0394    2.2435   38.3657 O   0  0  0  0  0  0  0  0  0  0  0  0
    3.5919    0.4015   38.1341 C   0  0  1  0  0  0  0  0  0  0  0  0
    3.3409   -0.0678   39.4919 O   0  0  0  0  0  0  0  0  0  0  0  0
    4.0463   -0.8014   37.2443 C   0  0  1  0  0  0  0  0  0  0  0  0
    4.1297   -0.4366   35.7275 C   0  0  1  0  0  0  0  0  0  0  0  0
    4.4646   -1.6174   34.9011 N   0  3  0  0  0  0  0  0  0  0  0  0
    2.7934    0.1802   35.2393 C   0  0  0  0  0  0  0  0  0  0  0  0
    2.2310   -0.9847   39.7553 C   0  0  1  0  0  0  0  0  0  0  0  0
    2.1963   -1.2969   41.2631 C   0  0  2  0  0  0  0  0  0  0  0  0
    1.5768   -2.5558   41.5112 O   0  0  0  0  0  0  0  0  0  0  0  0
    1.3294   -0.1190   41.7331 C   0  0  1  0  0  0  0  0  0  0  0  0
    0.2444   -0.0695   40.6701 C   0  0  2  0  0  0  0  0  0  0  0  0
    0.9743   -0.3397   39.4831 O   0  0  0  0  0  0  0  0  0  0  0  0
   -0.4919    1.2710   40.5498 C   0  0  0  0  0  0  0  0  0  0  0  0
   -1.2940    1.2831   39.3781 O   0  0  0  0  0  0  0  0  0  0  0  0
    2.8579    0.3229   46.7846 C   0  0  1  0  0  0  0  0  0  0  0  0
    2.6272   -0.9971   47.2734 O   0  0  0  0  0  0  0  0  0  0  0  0
    3.7238    0.2513   45.4959 C   0  0  2  0  0  0  0  0  0  0  0  0
    4.2543    1.5483   45.2333 O   0  0  0  0  0  0  0  0  0  0  0  0
    2.9807   -0.2566   44.2170 C   0  0  1  0  0  0  0  0  0  0  0  0
    2.9867   -1.7355   44.1719 N   0  3  0  0  0  0  0  0  0  0  0  0
    1.5541    0.3418   44.1015 C   0  0  1  0  0  0  0  0  0  0  0  0
    0.7459   -0.2559   43.0581 O   0  0  0  0  0  0  0  0  0  0  0  0
    1.5114    1.0231   46.4725 C   0  0  1  0  0  0  0  0  0  0  0  0
    0.8686    0.2845   45.3977 O   0  0  0  0  0  0  0  0  0  0  0  0
    0.5773    1.1484   47.6905 C   0  0  0  0  0  0  0  0  0  0  0  0
   -0.7271    1.7489   47.3492 N   0  3  0  0  0  0  0  0  0  0  0  0
  1  2  1  6  0  0  0
  1  3  1  0  0  0  0
  1 10  1  0  0  0  0
  3  4  1  6  0  0  0
  3  5  1  0  0  0  0
  5  6  1  1  0  0  0
  5  7  1  0  0  0  0
  7  8  1  6  0  0  0
  7  9  1  0  0  0  0
  9 10  1  0  0  0  0
  9 11  1  1  0  0  0
 11 12  1  0  0  0  0
 13 14  1  6  0  0  0
 13 15  1  0  0  0  0
 13 22  1  0  0  0  0
 15 16  1  1  0  0  0
 15 17  1  0  0  0  0
 17 18  1  1  0  0  0
 17 19  1  0  0  0  0
 19  2  1  1  0  0  0
 19 20  1  0  0  0  0
 20 21  1  6  0  0  0
 20 22  1  0  0  0  0
 23 18  1  1  0  0  0
 23 24  1  0  0  0  0
 23 28  1  0  0  0  0
 24 25  1  6  0  0  0
 24 26  1  0  0  0  0
 26 27  1  0  0  0  0
 26 38  1  1  0  0  0
 27 28  1  0  0  0  0
 27 29  1  6  0  0  0
 29 30  1  0  0  0  0
 31 32  1  6  0  0  0
 31 33  1  0  0  0  0
 31 39  1  0  0  0  0
 33 34  1  6  0  0  0
 33 35  1  0  0  0  0
 35 36  1  1  0  0  0
 35 37  1  0  0  0  0
 37 38  1  6  0  0  0
 37 40  1  0  0  0  0
 39 40  1  0  0  0  0
 39 41  1  1  0  0  0
 41 42  1  0  0  0  0
M  CHG  5   4   1  14   1  21   1  36   1  42   1
M  END
>  <CHROM.1>
-172.10452908,64.25553044,169.76786892,-177.12885301,-179.34739249,-13.40590214
-173.96503447,60.55780571,-57.24485040,56.11081894,-179.42076064,92.44130166
-39.53538581,93.55939155,169.11942295,82.11914982,69.10332963,52.23241409
-64.72809598,-59.57469497,-176.73447995,153.59030693,3.21962003,-0.89384078
40.62541300,-0.99137789,-0.72886967,1.64421302

>  <Name>
1pbr

>  <RI>
0

>  <Rbt.Current_Directory>
/home/itssahil/PROJECTS/Mol_Feturizer/New_Systems/rnas/1pbr

>  <Rbt.Executable>
rbdock ($Id: //depot/dev/client3/rdock/2013.1/src/exe/rbdock.cxx#4 $)

>  <Rbt.Library>
libRbt.so (2013.1, Build901 2013/11/27)

>  <Rbt.Parameter_File>
/export/apps/rDock/src/rDock_2013.1_src/data/scripts/dock_solv.prm

>  <Rbt.Receptor>
prm/pocket_docking_4.prm

>  <SCORE>
-41.1376

>  <SCORE.INTER>
-35.8161

>  <SCORE.INTER.CONST>
1

>  <SCORE.INTER.POLAR>
-5.05446

>  <SCORE.INTER.ROT>
9

>  <SCORE.INTER.SOLV>
34.5311

>  <SCORE.INTER.VDW>
-28.1396

>  <SCORE.INTER.norm>
-0.852765

>  <SCORE.INTRA>
-5.50552

>  <SCORE.INTRA.DIHEDRAL>
-10.4196

>  <SCORE.INTRA.DIHEDRAL.0>
29.7866

>  <SCORE.INTRA.POLAR>
-0.767911

>  <SCORE.INTRA.POLAR.0>
-0.984091

>  <SCORE.INTRA.REPUL>
-0.274115

>  <SCORE.INTRA.REPUL.0>
0.274115

>  <SCORE.INTRA.SOLV>
-0.740535

>  <SCORE.INTRA.SOLV.lig_0>
-152.978

>  <SCORE.INTRA.VDW>
4.05604

>  <SCORE.INTRA.VDW.0>
-6.10719

>  <SCORE.INTRA.norm>
-0.131084

>  <SCORE.RESTR>
0.184014

>  <SCORE.RESTR.CAVITY>
0.184014

>  <SCORE.RESTR.norm>
0.00438127

>  <SCORE.SYSTEM>
0

>  <SCORE.SYSTEM.CONST>
0

>  <SCORE.SYSTEM.DIHEDRAL>
0

>  <SCORE.SYSTEM.SOLV>
0

>  <SCORE.SYSTEM.norm>
0

>  <SCORE.heavy>
42

>  <SCORE.norm>
-0.979467

>  <RMSD>
8.373

$$$$
1pbr
 OpenBabel11021811403D
libRbt.so/2013.1/901 2013/11/27
 42 45  0  0  0  0  0  0  0  0999 V2000
    5.2366   -2.7239   40.9145 C   0  0  2  0  0  0  0  0  0  0  0  0
    6.3376   -2.9198   39.9911 O   0  0  0  0  0  0  0  0  0  0  0  0
    3.8552   -2.9471   40.1932 C   0  0  2  0  0  0  0  0  0  0  0  0
    3.8287   -4.0998   39.2558 N   0  3  0  0  0  0  0  0  0  0  0  0
    3.4388   -1.7130   39.3709 C   0  0  1  0  0  0  0  0  0  0  0  0
    2.0824   -1.8228   38.9450 O   0  0  0  0  0  0  0  0  0  0  0  0
    3.6155   -0.4222   40.1848 C   0  0  2  0  0  0  0  0  0  0  0  0
    3.1849    0.7025   39.4246 O   0  0  0  0  0  0  0  0  0  0  0  0
    5.0730   -0.2808   40.6771 C   0  0  2  0  0  0  0  0  0  0  0  0
    5.3372   -1.4118   41.5340 O   0  0  0  0  0  0  0  0  0  0  0  0
    5.3432    0.9903   41.4804 C   0  0  0  0  0  0  0  0  0  0  0  0
    5.0844    2.1538   40.7059 O   0  0  0  0  0  0  0  0  0  0  0  0
   10.2929   -4.3369   40.7357 C   0  0  1  0  0  0  0  0  0  0  0  0
   11.6949   -4.5277   41.1504 N   0  3  0  0  0  0  0  0  0  0  0  0
    9.3134   -4.3364   41.9483 C   0  0  2  0  0  0  0  0  0  0  0  0
    9.4052   -5.5668   42.6626 O   0  0  0  0  0  0  0  0  0  0  0  0
    7.8396   -4.1464   41.4842 C   0  0  1  0  0  0  0  0  0  0  0  0
    6.9970   -3.9841   42.6635 O   0  0  0  0  0  0  0  0  0  0  0  0
    7.6727   -2.9028   40.5512 C   0  0  1  0  0  0  0  0  0  0  0  0
    8.6966   -2.8879   39.3713 C   0  0  1  0  0  0  0  0  0  0  0  0
    8.5804   -1.6524   38.5652 N   0  3  0  0  0  0  0  0  0  0  0  0
   10.1461   -3.0296   39.9034 C   0  0  0  0  0  0  0  0  0  0  0  0
    7.5553   -3.4080   43.8875 C   0  0  1  0  0  0  0  0  0  0  0  0
    6.5192   -2.4448   44.4965 C   0  0  2  0  0  0  0  0  0  0  0  0
    7.1526   -1.4518   45.2983 O   0  0  0  0  0  0  0  0  0  0  0  0
    5.7209   -3.4510   45.3391 C   0  0  1  0  0  0  0  0  0  0  0  0
    6.8188   -4.3013   45.9565 C   0  0  2  0  0  0  0  0  0  0  0  0
    7.7383   -4.4303   44.8830 O   0  0  0  0  0  0  0  0  0  0  0  0
    6.3751   -5.6852   46.4478 C   0  0  0  0  0  0  0  0  0  0  0  0
    6.0806   -6.5241   45.3406 O   0  0  0  0  0  0  0  0  0  0  0  0
    1.8237    0.1366   45.8164 C   0  0  1  0  0  0  0  0  0  0  0  0
    0.8786   -0.4688   46.6967 O   0  0  0  0  0  0  0  0  0  0  0  0
    3.0828    0.5592   46.6237 C   0  0  2  0  0  0  0  0  0  0  0  0
    3.8392    1.4764   45.8370 O   0  0  0  0  0  0  0  0  0  0  0  0
    4.0181   -0.6128   47.0682 C   0  0  1  0  0  0  0  0  0  0  0  0
    3.5367   -1.2022   48.3370 N   0  3  0  0  0  0  0  0  0  0  0  0
    4.1955   -1.6682   45.9451 C   0  0  1  0  0  0  0  0  0  0  0  0
    4.8736   -2.8756   46.3714 O   0  0  0  0  0  0  0  0  0  0  0  0
    2.2280   -0.8559   44.6975 C   0  0  1  0  0  0  0  0  0  0  0  0
    2.9018   -1.9801   45.3269 O   0  0  0  0  0  0  0  0  0  0  0  0
    1.0469   -1.3351   43.8330 C   0  0  0  0  0  0  0  0  0  0  0  0
    0.5220   -0.2769   42.9480 N   0  3  0  0  0  0  0  0  0  0  0  0
  1  2  1  6  0  0  0
  1  3  1  0  0  0  0
  1 10  1  0  0  0  0
  3  4  1  6  0  0  0
  3  5  1  0  0  0  0
  5  6  1  1  0  0  0
  5  7  1  0  0  0  0
  7  8  1  6  0  0  0
  7  9  1  0  0  0  0
  9 10  1  0  0  0  0
  9 11  1  1  0  0  0
 11 12  1  0  0  0  0
 13 14  1  1  0  0  0
 13 15  1  0  0  0  0
 13 22  1  0  0  0  0
 15 16  1  6  0  0  0
 15 17  1  0  0  0  0
 17 18  1  1  0  0  0
 17 19  1  0  0  0  0
 19  2  1  6  0  0  0
 19 20  1  0  0  0  0
 20 21  1  1  0  0  0
 20 22  1  0  0  0  0
 23 18  1  6  0  0  0
 23 24  1  0  0  0  0
 23 28  1  0  0  0  0
 24 25  1  1  0  0  0
 24 26  1  0  0  0  0
 26 27  1  0  0  0  0
 26 38  1  1  0  0  0
 27 28  1  0  0  0  0
 27 29  1  6  0  0  0
 29 30  1  0  0  0  0
 31 32  1  1  0  0  0
 31 33  1  0  0  0  0
 31 39  1  0  0  0  0
 33 34  1  6  0  0  0
 33 35  1  0  0  0  0
 35 36  1  1  0  0  0
 35 37  1  0  0  0  0
 37 38  1  1  0  0  0
 37 40  1  0  0  0  0
 39 40  1  0  0  0  0
 39 41  1  1  0  0  0
 41 42  1  0  0  0  0
M  CHG  5   4   1  14   1  21   1  36   1  42   1
M  END
>  <CHROM.1>
-172.90386037,66.56532774,-173.32938062,-167.81901197,-56.06607406,-60.44164352
-59.55561892,146.94307720,177.99391834,28.39400707,138.85541129,-166.47617476
148.15445250,40.03962015,70.59915271,-174.13732574,-61.60633219,175.34288730
-150.16927967,-145.20203549,70.95274601,-176.19412182,5.45062179,-2.19188560
42.92067965,0.46399057,0.59222801,-1.34626676

>  <Name>
1pbr

>  <RI>
0

>  <Rbt.Current_Directory>
/home/itssahil/PROJECTS/Mol_Feturizer/New_Systems/rnas/1pbr

>  <Rbt.Executable>
rbdock ($Id: //depot/dev/client3/rdock/2013.1/src/exe/rbdock.cxx#4 $)

>  <Rbt.Library>
libRbt.so (2013.1, Build901 2013/11/27)

>  <Rbt.Parameter_File>
/export/apps/rDock/src/rDock_2013.1_src/data/scripts/dock_solv.prm

>  <Rbt.Receptor>
prm/pocket_docking_8.prm

>  <SCORE>
-32.4304

>  <SCORE.INTER>
-29.8042

>  <SCORE.INTER.CONST>
1

>  <SCORE.INTER.POLAR>
-5.15497

>  <SCORE.INTER.ROT>
9

>  <SCORE.INTER.SOLV>
24.8451

>  <SCORE.INTER.VDW>
-20.5679

>  <SCORE.INTER.norm>
-0.709624

>  <SCORE.INTRA>
-2.6262

>  <SCORE.INTRA.DIHEDRAL>
-3.01675

>  <SCORE.INTRA.DIHEDRAL.0>
29.7866

>  <SCORE.INTRA.POLAR>
-0.0334168

>  <SCORE.INTRA.POLAR.0>
-0.984091

>  <SCORE.INTRA.REPUL>
-0.274115

>  <SCORE.INTRA.REPUL.0>
0.274115

>  <SCORE.INTRA.SOLV>
-3.50131

>  <SCORE.INTRA.SOLV.lig_0>
-152.978

>  <SCORE.INTRA.VDW>
2.11702

>  <SCORE.INTRA.VDW.0>
-6.10719

>  <SCORE.INTRA.norm>
-0.0625285

>  <SCORE.RESTR>
0

>  <SCORE.RESTR.CAVITY>
0

>  <SCORE.RESTR.norm>
0

>  <SCORE.SYSTEM>
0

>  <SCORE.SYSTEM.CONST>
0

>  <SCORE.SYSTEM.DIHEDRAL>
0

>  <SCORE.SYSTEM.SOLV>
0

>  <SCORE.SYSTEM.norm>
0

>  <SCORE.heavy>
42

>  <SCORE.norm>
-0.772152

>  <RMSD>
8.376

$$$$
1pbr
 OpenBabel11021811403D
libRbt.so/2013.1/901 2013/11/27
 42 45  0  0  0  0  0  0  0  0999 V2000
    4.5790   -0.5319   41.8505 C   0  0  2  0  0  0  0  0  0  0  0  0
    5.1587   -1.4590   42.8032 O   0  0  0  0  0  0  0  0  0  0  0  0
    3.5132    0.3932   42.5479 C   0  0  2  0  0  0  0  0  0  0  0  0
    3.9067    0.8788   43.8961 N   0  3  0  0  0  0  0  0  0  0  0  0
    2.1649   -0.3298   42.7268 C   0  0  1  0  0  0  0  0  0  0  0  0
    1.1446    0.5896   43.1102 O   0  0  0  0  0  0  0  0  0  0  0  0
    1.7471   -1.0461   41.4337 C   0  0  2  0  0  0  0  0  0  0  0  0
    0.4790   -1.6715   41.6045 O   0  0  0  0  0  0  0  0  0  0  0  0
    2.8403   -2.0390   40.9803 C   0  0  2  0  0  0  0  0  0  0  0  0
    4.0290   -1.2628   40.7197 O   0  0  0  0  0  0  0  0  0  0  0  0
    2.4965   -2.8127   39.7086 C   0  0  0  0  0  0  0  0  0  0  0  0
    3.5462   -3.7001   39.3460 O   0  0  0  0  0  0  0  0  0  0  0  0
    7.8596   -3.1238   39.9498 C   0  0  1  0  0  0  0  0  0  0  0  0
    8.9268   -3.8498   39.2371 N   0  3  0  0  0  0  0  0  0  0  0  0
    6.7744   -4.0839   40.5245 C   0  0  2  0  0  0  0  0  0  0  0  0
    6.1762   -4.8430   39.4764 O   0  0  0  0  0  0  0  0  0  0  0  0
    5.6531   -3.2938   41.2606 C   0  0  1  0  0  0  0  0  0  0  0  0
    4.7660   -4.2467   41.9177 O   0  0  0  0  0  0  0  0  0  0  0  0
    6.2322   -2.3043   42.3239 C   0  0  1  0  0  0  0  0  0  0  0  0
    7.3570   -1.3854   41.7485 C   0  0  1  0  0  0  0  0  0  0  0  0
    7.9532   -0.5314   42.7995 N   0  3  0  0  0  0  0  0  0  0  0  0
    8.4657   -2.2348   41.0748 C   0  0  0  0  0  0  0  0  0  0  0  0
    5.2273   -4.9835   43.0950 C   0  0  1  0  0  0  0  0  0  0  0  0
    4.2059   -4.7875   44.2310 C   0  0  2  0  0  0  0  0  0  0  0  0
    4.8198   -4.9543   45.5059 O   0  0  0  0  0  0  0  0  0  0  0  0
    3.2454   -5.9376   43.8927 C   0  0  1  0  0  0  0  0  0  0  0  0
    4.2009   -7.0704   43.5558 C   0  0  2  0  0  0  0  0  0  0  0  0
    5.2212   -6.3981   42.8336 O   0  0  0  0  0  0  0  0  0  0  0  0
    3.6022   -8.1995   42.7069 C   0  0  0  0  0  0  0  0  0  0  0  0
    2.5430   -8.8300   43.4118 O   0  0  0  0  0  0  0  0  0  0  0  0
   -1.8873   -5.5267   44.5005 C   0  0  1  0  0  0  0  0  0  0  0  0
   -2.2652   -6.8926   44.3389 O   0  0  0  0  0  0  0  0  0  0  0  0
   -1.2874   -5.3224   45.9197 C   0  0  2  0  0  0  0  0  0  0  0  0
   -1.2635   -3.9258   46.2052 O   0  0  0  0  0  0  0  0  0  0  0  0
    0.1493   -5.9034   46.1296 C   0  0  1  0  0  0  0  0  0  0  0  0
    0.0772   -7.3376   46.4858 N   0  3  0  0  0  0  0  0  0  0  0  0
    1.0661   -5.6337   44.9075 C   0  0  1  0  0  0  0  0  0  0  0  0
    2.3350   -6.3312   44.9561 O   0  0  0  0  0  0  0  0  0  0  0  0
   -0.8426   -5.1279   43.4281 C   0  0  1  0  0  0  0  0  0  0  0  0
    0.3523   -5.9234   43.6585 O   0  0  0  0  0  0  0  0  0  0  0  0
   -1.3424   -5.2908   41.9804 C   0  0  0  0  0  0  0  0  0  0  0  0
   -0.4888   -4.5910   41.0005 N   0  3  0  0  0  0  0  0  0  0  0  0
  1  2  1  1  0  0  0
  1  3  1  0  0  0  0
  1 10  1  0  0  0  0
  3  4  1  1  0  0  0
  3  5  1  0  0  0  0
  5  6  1  6  0  0  0
  5  7  1  0  0  0  0
  7  8  1  1  0  0  0
  7  9  1  0  0  0  0
  9 10  1  0  0  0  0
  9 11  1  6  0  0  0
 11 12  1  0  0  0  0
 13 14  1  1  0  0  0
 13 15  1  0  0  0  0
 13 22  1  0  0  0  0
 15 16  1  6  0  0  0
 15 17  1  0  0  0  0
 17 18  1  1  0  0  0
 17 19  1  0  0  0  0
 19  2  1  6  0  0  0
 19 20  1  0  0  0  0
 20 21  1  1  0  0  0
 20 22  1  0  0  0  0
 23 18  1  6  0  0  0
 23 24  1  0  0  0  0
 23 28  1  0  0  0  0
 24 25  1  1  0  0  0
 24 26  1  0  0  0  0
 26 27  1  0  0  0  0
 26 38  1  1  0  0  0
 27 28  1  0  0  0  0
 27 29  1  6  0  0  0
 29 30  1  0  0  0  0
 31 32  1  6  0  0  0
 31 33  1  0  0  0  0
 31 39  1  0  0  0  0
 33 34  1  6  0  0  0
 33 35  1  0  0  0  0
 35 36  1  6  0  0  0
 35 37  1  0  0  0  0
 37 38  1  1  0  0  0
 37 40  1  0  0  0  0
 39 40  1  0  0  0  0
 39 41  1  6  0  0  0
 41 42  1  0  0  0  0
M  CHG  5   4   1  14   1  21   1  36   1  42   1
M  END
>  <CHROM.1>
-175.34300184,-66.65604152,44.91272102,-62.03869634,164.06020812,179.68720739
-63.09738024,78.78402270,169.80301430,71.39611632,126.88565367,178.97777177
57.26796299,91.66756461,-62.36211259,178.28788108,68.73322203,62.41629217
-69.49472022,-172.71221522,165.12168057,-171.17313481,3.15605091,-3.86767871
42.71282153,0.54445874,0.36049185,-0.21066549

>  <Name>
1pbr

>  <RI>
0

>  <Rbt.Current_Directory>
/home/itssahil/PROJECTS/Mol_Feturizer/New_Systems/rnas/1pbr

>  <Rbt.Executable>
rbdock ($Id: //depot/dev/client3/rdock/2013.1/src/exe/rbdock.cxx#4 $)

>  <Rbt.Library>
libRbt.so (2013.1, Build901 2013/11/27)

>  <Rbt.Parameter_File>
/export/apps/rDock/src/rDock_2013.1_src/data/scripts/dock_solv.prm

>  <Rbt.Receptor>
prm/pocket_docking_5.prm

>  <SCORE>
-32.2275

>  <SCORE.INTER>
-25.7302

>  <SCORE.INTER.CONST>
1

>  <SCORE.INTER.POLAR>
-4.7144

>  <SCORE.INTER.ROT>
9

>  <SCORE.INTER.SOLV>
22.632

>  <SCORE.INTER.VDW>
-18.5828

>  <SCORE.INTER.norm>
-0.612625

>  <SCORE.INTRA>
-6.49729

>  <SCORE.INTRA.DIHEDRAL>
-11.9842

>  <SCORE.INTRA.DIHEDRAL.0>
29.7866

>  <SCORE.INTRA.POLAR>
-0.0611887

>  <SCORE.INTRA.POLAR.0>
-0.984091

>  <SCORE.INTRA.REPUL>
-0.268935

>  <SCORE.INTRA.REPUL.0>
0.274115

>  <SCORE.INTRA.SOLV>
1.4407

>  <SCORE.INTRA.SOLV.lig_0>
-152.978

>  <SCORE.INTRA.VDW>
0.327189

>  <SCORE.INTRA.VDW.0>
-6.10719

>  <SCORE.INTRA.norm>
-0.154697

>  <SCORE.RESTR>
0

>  <SCORE.RESTR.CAVITY>
0

>  <SCORE.RESTR.norm>
0

>  <SCORE.SYSTEM>
0

>  <SCORE.SYSTEM.CONST>
0

>  <SCORE.SYSTEM.DIHEDRAL>
0

>  <SCORE.SYSTEM.SOLV>
0

>  <SCORE.SYSTEM.norm>
0

>  <SCORE.heavy>
42

>  <SCORE.norm>
-0.767322

>  <RMSD>
8.379

$$$$
1pbr
 OpenBabel11021811403D
libRbt.so/2013.1/901 2013/11/27
 42 45  0  0  0  0  0  0  0  0999 V2000
    6.3973   -3.3772   39.2667 C   0  0  2  0  0  0  0  0  0  0  0  0
    6.5952   -2.5698   38.0783 O   0  0  0  0  0  0  0  0  0  0  0  0
    7.4604   -4.5360   39.3390 C   0  0  2  0  0  0  0  0  0  0  0  0
    8.8364   -4.1353   38.9465 N   0  3  0  0  0  0  0  0  0  0  0  0
    7.0773   -5.7149   38.4245 C   0  0  1  0  0  0  0  0  0  0  0  0
    7.8941   -6.8519   38.6958 O   0  0  0  0  0  0  0  0  0  0  0  0
    5.5993   -6.0938   38.6025 C   0  0  2  0  0  0  0  0  0  0  0  0
    5.2751   -7.2121   37.7825 O   0  0  0  0  0  0  0  0  0  0  0  0
    4.6862   -4.8774   38.3325 C   0  0  2  0  0  0  0  0  0  0  0  0
    5.0298   -3.8708   39.3081 O   0  0  0  0  0  0  0  0  0  0  0  0
    3.1931   -5.1717   38.4674 C   0  0  0  0  0  0  0  0  0  0  0  0
    2.8287   -5.3741   39.8263 O   0  0  0  0  0  0  0  0  0  0  0  0
    4.6622    0.8056   36.3240 C   0  0  1  0  0  0  0  0  0  0  0  0
    3.7128    1.7904   35.7738 N   0  3  0  0  0  0  0  0  0  0  0  0
    4.5175    0.6445   37.8676 C   0  0  2  0  0  0  0  0  0  0  0  0
    4.7383    1.8922   38.5211 O   0  0  0  0  0  0  0  0  0  0  0  0
    5.5381   -0.3900   38.4261 C   0  0  1  0  0  0  0  0  0  0  0  0
    5.2422   -0.6224   39.8352 O   0  0  0  0  0  0  0  0  0  0  0  0
    5.4819   -1.7478   37.6525 C   0  0  1  0  0  0  0  0  0  0  0  0
    5.5730   -1.5675   36.1033 C   0  0  1  0  0  0  0  0  0  0  0  0
    5.4174   -2.8574   35.3951 N   0  3  0  0  0  0  0  0  0  0  0  0
    4.4993   -0.5657   35.6054 C   0  0  0  0  0  0  0  0  0  0  0  0
    5.7901    0.2731   40.8548 C   0  0  1  0  0  0  0  0  0  0  0  0
    4.6371    0.7671   41.7484 C   0  0  2  0  0  0  0  0  0  0  0  0
    4.9545    2.0202   42.3478 O   0  0  0  0  0  0  0  0  0  0  0  0
    4.6171   -0.3787   42.7714 C   0  0  1  0  0  0  0  0  0  0  0  0
    6.0966   -0.6039   43.0361 C   0  0  2  0  0  0  0  0  0  0  0  0
    6.6598   -0.4521   41.7421 O   0  0  0  0  0  0  0  0  0  0  0  0
    6.4549   -1.9785   43.6156 C   0  0  0  0  0  0  0  0  0  0  0  0
    5.9184   -2.1107   44.9237 O   0  0  0  0  0  0  0  0  0  0  0  0
   -0.0564   -1.7584   44.4855 C   0  0  1  0  0  0  0  0  0  0  0  0
    0.3304   -2.7612   45.4232 O   0  0  0  0  0  0  0  0  0  0  0  0
    0.1915   -0.3533   45.1019 C   0  0  2  0  0  0  0  0  0  0  0  0
   -0.5276    0.6110   44.3365 O   0  0  0  0  0  0  0  0  0  0  0  0
    1.6899    0.0867   45.1855 C   0  0  1  0  0  0  0  0  0  0  0  0
    2.3137   -0.4436   46.4178 N   0  3  0  0  0  0  0  0  0  0  0  0
    2.4761   -0.2932   43.9032 C   0  0  1  0  0  0  0  0  0  0  0  0
    3.9085   -0.1038   44.0112 O   0  0  0  0  0  0  0  0  0  0  0  0
    0.7569   -1.9061   43.1750 C   0  0  1  0  0  0  0  0  0  0  0  0
    2.1548   -1.6652   43.4935 O   0  0  0  0  0  0  0  0  0  0  0  0
    0.5768   -3.2688   42.4802 C   0  0  0  0  0  0  0  0  0  0  0  0
   -0.7807   -3.8218   42.6529 N   0  3  0  0  0  0  0  0  0  0  0  0
  1  2  1  6  0  0  0
  1  3  1  0  0  0  0
  1 10  1  0  0  0  0
  3  4  1  6  0  0  0
  3  5  1  0  0  0  0
  5  6  1  1  0  0  0
  5  7  1  0  0  0  0
  7  8  1  6  0  0  0
  7  9  1  0  0  0  0
  9 10  1  0  0  0  0
  9 11  1  1  0  0  0
 11 12  1  0  0  0  0
 13 14  1  6  0  0  0
 13 15  1  0  0  0  0
 13 22  1  0  0  0  0
 15 16  1  1  0  0  0
 15 17  1  0  0  0  0
 17 18  1  1  0  0  0
 17 19  1  0  0  0  0
 19  2  1  1  0  0  0
 19 20  1  0  0  0  0
 20 21  1  6  0  0  0
 20 22  1  0  0  0  0
 23 18  1  6  0  0  0
 23 24  1  0  0  0  0
 23 28  1  0  0  0  0
 24 25  1  1  0  0  0
 24 26  1  0  0  0  0
 26 27  1  0  0  0  0
 26 38  1  1  0  0  0
 27 28  1  0  0  0  0
 27 29  1  6  0  0  0
 29 30  1  0  0  0  0
 31 32  1  1  0  0  0
 31 33  1  0  0  0  0
 31 39  1  0  0  0  0
 33 34  1  6  0  0  0
 33 35  1  0  0  0  0
 35 36  1  1  0  0  0
 35 37  1  0  0  0  0
 37 38  1  1  0  0  0
 37 40  1  0  0  0  0
 39 40  1  0  0  0  0
 39 41  1  1  0  0  0
 41 42  1  0  0  0  0
M  CHG  5   4   1  14   1  21   1  36   1  42   1
M  END
>  <CHROM.1>
161.35630122,85.80934956,175.49568026,-79.88550018,-71.83824351,71.01367678
-179.75345973,-62.47798151,-66.35420454,-85.04355051,127.65690984,25.28852828
-65.36368348,82.39334850,-66.43622738,-61.42679030,-72.98621578,173.16305206
50.74097160,-176.07285330,33.64361700,172.25060557,4.24067868,-1.93795616
40.69519123,0.19695265,-1.01966883,3.01948360

>  <Name>
1pbr

>  <RI>
0

>  <Rbt.Current_Directory>
/home/itssahil/PROJECTS/Mol_Feturizer/New_Systems/rnas/1pbr

>  <Rbt.Executable>
rbdock ($Id: //depot/dev/client3/rdock/2013.1/src/exe/rbdock.cxx#4 $)

>  <Rbt.Library>
libRbt.so (2013.1, Build901 2013/11/27)

>  <Rbt.Parameter_File>
/export/apps/rDock/src/rDock_2013.1_src/data/scripts/dock_solv.prm

>  <Rbt.Receptor>
prm/pocket_docking_8.prm

>  <SCORE>
-49.9993

>  <SCORE.INTER>
-50.5344

>  <SCORE.INTER.CONST>
1

>  <SCORE.INTER.POLAR>
-7.50266

>  <SCORE.INTER.ROT>
9

>  <SCORE.INTER.SOLV>
29.9171

>  <SCORE.INTER.VDW>
-28.2531

>  <SCORE.INTER.norm>
-1.2032

>  <SCORE.INTRA>
0.5351

>  <SCORE.INTRA.DIHEDRAL>
-3.32187

>  <SCORE.INTRA.DIHEDRAL.0>
29.7866

>  <SCORE.INTRA.POLAR>
0.950052

>  <SCORE.INTRA.POLAR.0>
-0.984091

>  <SCORE.INTRA.REPUL>
-0.274115

>  <SCORE.INTRA.REPUL.0>
0.274115

>  <SCORE.INTRA.SOLV>
-2.10063

>  <SCORE.INTRA.SOLV.lig_0>
-152.978

>  <SCORE.INTRA.VDW>
1.38675

>  <SCORE.INTRA.VDW.0>
-6.10719

>  <SCORE.INTRA.norm>
0.0127405

>  <SCORE.RESTR>
0

>  <SCORE.RESTR.CAVITY>
0

>  <SCORE.RESTR.norm>
0

>  <SCORE.SYSTEM>
0

>  <SCORE.SYSTEM.CONST>
0

>  <SCORE.SYSTEM.DIHEDRAL>
0

>  <SCORE.SYSTEM.SOLV>
0

>  <SCORE.SYSTEM.norm>
0

>  <SCORE.heavy>
42

>  <SCORE.norm>
-1.19046

>  <RMSD>
8.383

$$$$
1pbr
 OpenBabel11021811403D
libRbt.so/2013.1/901 2013/11/27
 42 45  0  0  0  0  0  0  0  0999 V2000
    0.7595    1.7974   38.5428 C   0  0  2  0  0  0  0  0  0  0  0  0
    0.8416    0.8073   37.4864 O   0  0  0  0  0  0  0  0  0  0  0  0
   -0.7039    2.3647   38.6651 C   0  0  2  0  0  0  0  0  0  0  0  0
   -1.7741    1.3419   38.5349 N   0  3  0  0  0  0  0  0  0  0  0  0
   -0.9914    3.4289   37.5894 C   0  0  1  0  0  0  0  0  0  0  0  0
   -2.2082    4.1171   37.8708 O   0  0  0  0  0  0  0  0  0  0  0  0
    0.1586    4.4430   37.4951 C   0  0  2  0  0  0  0  0  0  0  0  0
   -0.1443    5.4429   36.5273 O   0  0  0  0  0  0  0  0  0  0  0  0
    1.4971    3.7273   37.2076 C   0  0  2  0  0  0  0  0  0  0  0  0
    1.7464    2.8423   38.3202 O   0  0  0  0  0  0  0  0  0  0  0  0
    2.6951    4.6664   37.0769 C   0  0  0  0  0  0  0  0  0  0  0  0
    3.9210    3.9509   37.1523 O   0  0  0  0  0  0  0  0  0  0  0  0
    3.7416   -2.0643   36.2406 C   0  0  1  0  0  0  0  0  0  0  0  0
    4.9555   -2.7915   35.8263 N   0  3  0  0  0  0  0  0  0  0  0  0
    3.8028   -1.6143   37.7317 C   0  0  2  0  0  0  0  0  0  0  0  0
    3.9608   -2.7444   38.5864 O   0  0  0  0  0  0  0  0  0  0  0  0
    2.5060   -0.8606   38.1484 C   0  0  1  0  0  0  0  0  0  0  0  0
    2.6918   -0.3202   39.4902 O   0  0  0  0  0  0  0  0  0  0  0  0
    2.1598    0.3029   37.1628 C   0  0  1  0  0  0  0  0  0  0  0  0
    2.1556   -0.1496   35.6675 C   0  0  1  0  0  0  0  0  0  0  0  0
    1.9237    0.9912   34.7541 N   0  3  0  0  0  0  0  0  0  0  0  0
    3.4921   -0.8465   35.3034 C   0  0  0  0  0  0  0  0  0  0  0  0
    3.7088    0.7042   39.7316 C   0  0  1  0  0  0  0  0  0  0  0  0
    3.7632    0.9988   41.2423 C   0  0  2  0  0  0  0  0  0  0  0  0
    4.2567    2.3122   41.4904 O   0  0  0  0  0  0  0  0  0  0  0  0
    4.7636   -0.0880   41.6639 C   0  0  1  0  0  0  0  0  0  0  0  0
    5.8103   -0.0102   40.5648 C   0  0  2  0  0  0  0  0  0  0  0  0
    5.0155    0.1975   39.4073 O   0  0  0  0  0  0  0  0  0  0  0  0
    6.6773   -1.2649   40.3982 C   0  0  0  0  0  0  0  0  0  0  0  0
    7.4275   -1.4995   41.5808 O   0  0  0  0  0  0  0  0  0  0  0  0
    4.0607   -1.5169   46.7611 C   0  0  1  0  0  0  0  0  0  0  0  0
    4.1843   -0.2886   47.4758 O   0  0  0  0  0  0  0  0  0  0  0  0
    2.9790   -1.3632   45.6556 C   0  0  2  0  0  0  0  0  0  0  0  0
    2.6002   -2.6628   45.2081 O   0  0  0  0  0  0  0  0  0  0  0  0
    3.4040   -0.5086   44.4167 C   0  0  1  0  0  0  0  0  0  0  0  0
    3.1801    0.9295   44.6826 N   0  3  0  0  0  0  0  0  0  0  0  0
    4.8580   -0.8178   43.9727 C   0  0  1  0  0  0  0  0  0  0  0  0
    5.3754    0.0920   42.9709 O   0  0  0  0  0  0  0  0  0  0  0  0
    5.4162   -1.9025   46.1173 C   0  0  1  0  0  0  0  0  0  0  0  0
    5.7469   -0.8795   45.1386 O   0  0  0  0  0  0  0  0  0  0  0  0
    6.5595   -2.0833   47.1334 C   0  0  0  0  0  0  0  0  0  0  0  0
    6.9542   -0.8160   47.7789 N   0  3  0  0  0  0  0  0  0  0  0  0
  1  2  1  6  0  0  0
  1  3  1  0  0  0  0
  1 10  1  0  0  0  0
  3  4  1  6  0  0  0
  3  5  1  0  0  0  0
  5  6  1  1  0  0  0
  5  7  1  0  0  0  0
  7  8  1  6  0  0  0
  7  9  1  0  0  0  0
  9 10  1  0  0  0  0
  9 11  1  1  0  0  0
 11 12  1  0  0  0  0
 13 14  1  6  0  0  0
 13 15  1  0  0  0  0
 13 22  1  0  0  0  0
 15 16  1  1  0  0  0
 15 17  1  0  0  0  0
 17 18  1  1  0  0  0
 17 19  1  0  0  0  0
 19  2  1  1  0  0  0
 19 20  1  0  0  0  0
 20 21  1  6  0  0  0
 20 22  1  0  0  0  0
 23 18  1  1  0  0  0
 23 24  1  0  0  0  0
 23 28  1  0  0  0  0
 24 25  1  6  0  0  0
 24 26  1  0  0  0  0
 26 27  1  0  0  0  0
 26 38  1  1  0  0  0
 27 28  1  0  0  0  0
 27 29  1  6  0  0  0
 29 30  1  0  0  0  0
 31 32  1  6  0  0  0
 31 33  1  0  0  0  0
 31 39  1  0  0  0  0
 33 34  1  6  0  0  0
 33 35  1  0  0  0  0
 35 36  1  1  0  0  0
 35 37  1  0  0  0  0
 37 38  1  6  0  0  0
 37 40  1  0  0  0  0
 39 40  1  0  0  0  0
 39 41  1  1  0  0  0
 41 42  1  0  0  0  0
M  CHG  5   4   1  14   1  21   1  36   1  42   1
M  END
>  <CHROM.1>
173.55385298,84.35101136,-93.28633258,-80.21171333,61.49581671,165.24404650
59.92436269,-173.71172213,-63.27515601,64.33393531,-175.28739754,69.77422496
-162.59293267,106.19118862,-62.44580761,-64.93648142,63.07707749,64.82373203
-170.10397002,-71.04686969,-67.87603308,-71.44828757,3.19199587,0.45331696
40.37304759,2.17079563,0.77732800,-1.65033466

>  <Name>
1pbr

>  <RI>
0

>  <Rbt.Current_Directory>
/home/itssahil/PROJECTS/Mol_Feturizer/New_Systems/rnas/1pbr

>  <Rbt.Executable>
rbdock ($Id: //depot/dev/client3/rdock/2013.1/src/exe/rbdock.cxx#4 $)

>  <Rbt.Library>
libRbt.so (2013.1, Build901 2013/11/27)

>  <Rbt.Parameter_File>
/export/apps/rDock/src/rDock_2013.1_src/data/scripts/dock_solv.prm

>  <Rbt.Receptor>
prm/pocket_docking_4.prm

>  <SCORE>
-41.5095

>  <SCORE.INTER>
-35.7561

>  <SCORE.INTER.CONST>
1

>  <SCORE.INTER.POLAR>
-4.24722

>  <SCORE.INTER.ROT>
9

>  <SCORE.INTER.SOLV>
36.6505

>  <SCORE.INTER.VDW>
-31.4968

>  <SCORE.INTER.norm>
-0.851336

>  <SCORE.INTRA>
-6.10878

>  <SCORE.INTRA.DIHEDRAL>
-11.6343

>  <SCORE.INTRA.DIHEDRAL.0>
29.7866

>  <SCORE.INTRA.POLAR>
0.264238

>  <SCORE.INTRA.POLAR.0>
-0.984091

>  <SCORE.INTRA.REPUL>
-0.241833

>  <SCORE.INTRA.REPUL.0>
0.274115

>  <SCORE.INTRA.SOLV>
1.5684

>  <SCORE.INTRA.SOLV.lig_0>
-152.978

>  <SCORE.INTRA.VDW>
-0.765087

>  <SCORE.INTRA.VDW.0>
-6.10719

>  <SCORE.INTRA.norm>
-0.145447

>  <SCORE.RESTR>
0.355414

>  <SCORE.RESTR.CAVITY>
0.355414

>  <SCORE.RESTR.norm>
0.00846223

>  <SCORE.SYSTEM>
0

>  <SCORE.SYSTEM.CONST>
0

>  <SCORE.SYSTEM.DIHEDRAL>
0

>  <SCORE.SYSTEM.SOLV>
0

>  <SCORE.SYSTEM.norm>
0

>  <SCORE.heavy>
42

>  <SCORE.norm>
-0.988321

>  <RMSD>
8.394

$$$$
1pbr
 OpenBabel11021811403D
libRbt.so/2013.1/901 2013/11/27
 42 45  0  0  0  0  0  0  0  0999 V2000
    1.5468    1.1777   37.4605 C   0  0  2  0  0  0  0  0  0  0  0  0
    2.5500    2.1525   37.8430 O   0  0  0  0  0  0  0  0  0  0  0  0
    0.8528    1.5901   36.1090 C   0  0  2  0  0  0  0  0  0  0  0  0
    1.7794    2.1298   35.0802 N   0  3  0  0  0  0  0  0  0  0  0  0
   -0.2225    2.6706   36.3301 C   0  0  1  0  0  0  0  0  0  0  0  0
   -1.0167    2.8414   35.1582 O   0  0  0  0  0  0  0  0  0  0  0  0
   -1.1313    2.3103   37.5149 C   0  0  2  0  0  0  0  0  0  0  0  0
   -2.1449    3.2976   37.6766 O   0  0  0  0  0  0  0  0  0  0  0  0
   -0.2989    2.1009   38.7994 C   0  0  2  0  0  0  0  0  0  0  0  0
    0.5940    0.9960   38.5444 O   0  0  0  0  0  0  0  0  0  0  0  0
   -1.1286    1.7585   40.0357 C   0  0  0  0  0  0  0  0  0  0  0  0
   -1.5427    0.3988   40.0177 O   0  0  0  0  0  0  0  0  0  0  0  0
    6.0157    0.2905   36.1907 C   0  0  1  0  0  0  0  0  0  0  0  0
    7.3671   -0.2168   35.8902 N   0  3  0  0  0  0  0  0  0  0  0  0
    5.4010   -0.3803   37.4564 C   0  0  2  0  0  0  0  0  0  0  0  0
    5.3199   -1.7929   37.2811 O   0  0  0  0  0  0  0  0  0  0  0  0
    3.9706    0.1619   37.7453 C   0  0  1  0  0  0  0  0  0  0  0  0
    3.5199   -0.3714   39.0257 O   0  0  0  0  0  0  0  0  0  0  0  0
    3.9323    1.7245   37.7906 C   0  0  1  0  0  0  0  0  0  0  0  0
    4.6004    2.3842   36.5420 C   0  0  1  0  0  0  0  0  0  0  0  0
    4.6379    3.8587   36.6600 N   0  3  0  0  0  0  0  0  0  0  0  0
    6.0382    1.8400   36.3397 C   0  0  0  0  0  0  0  0  0  0  0  0
    3.2745    0.5338   40.1492 C   0  0  1  0  0  0  0  0  0  0  0  0
    2.3199   -0.1578   41.1404 C   0  0  2  0  0  0  0  0  0  0  0  0
    1.5968    0.8003   41.9081 O   0  0  0  0  0  0  0  0  0  0  0  0
    3.3560   -0.9166   41.9834 C   0  0  1  0  0  0  0  0  0  0  0  0
    4.4495    0.1227   42.1671 C   0  0  2  0  0  0  0  0  0  0  0  0
    4.4872    0.7475   40.8931 O   0  0  0  0  0  0  0  0  0  0  0  0
    5.8311   -0.4390   42.5265 C   0  0  0  0  0  0  0  0  0  0  0  0
    6.8276    0.5524   42.3255 O   0  0  0  0  0  0  0  0  0  0  0  0
    1.9837    0.6989   46.9387 C   0  0  1  0  0  0  0  0  0  0  0  0
    1.3790   -0.4191   47.5859 O   0  0  0  0  0  0  0  0  0  0  0  0
    3.4814    0.3872   46.6637 C   0  0  2  0  0  0  0  0  0  0  0  0
    4.1530    1.6103   46.3715 O   0  0  0  0  0  0  0  0  0  0  0  0
    3.7527   -0.6254   45.5031 C   0  0  1  0  0  0  0  0  0  0  0  0
    3.6681   -2.0154   46.0029 N   0  3  0  0  0  0  0  0  0  0  0  0
    2.8283   -0.3684   44.2840 C   0  0  1  0  0  0  0  0  0  0  0  0
    2.8862   -1.4025   43.2709 O   0  0  0  0  0  0  0  0  0  0  0  0
    1.2587    1.0036   45.6037 C   0  0  1  0  0  0  0  0  0  0  0  0
    1.4481   -0.1410   44.7273 O   0  0  0  0  0  0  0  0  0  0  0  0
   -0.2374    1.3305   45.7677 C   0  0  0  0  0  0  0  0  0  0  0  0
   -1.0047    0.2123   46.3503 N   0  3  0  0  0  0  0  0  0  0  0  0
  1  2  1  1  0  0  0
  1  3  1  0  0  0  0
  1 10  1  0  0  0  0
  3  4  1  6  0  0  0
  3  5  1  0  0  0  0
  5  6  1  6  0  0  0
  5  7  1  0  0  0  0
  7  8  1  1  0  0  0
  7  9  1  0  0  0  0
  9 10  1  0  0  0  0
  9 11  1  1  0  0  0
 11 12  1  0  0  0  0
 13 14  1  1  0  0  0
 13 15  1  0  0  0  0
 13 22  1  0  0  0  0
 15 16  1  6  0  0  0
 15 17  1  0  0  0  0
 17 18  1  1  0  0  0
 17 19  1  0  0  0  0
 19  2  1  6  0  0  0
 19 20  1  0  0  0  0
 20 21  1  1  0  0  0
 20 22  1  0  0  0  0
 23 18  1  6  0  0  0
 23 24  1  0  0  0  0
 23 28  1  0  0  0  0
 24 25  1  1  0  0  0
 24 26  1  0  0  0  0
 26 27  1  0  0  0  0
 26 38  1  1  0  0  0
 27 28  1  0  0  0  0
 27 29  1  6  0  0  0
 29 30  1  0  0  0  0
 31 32  1  6  0  0  0
 31 33  1  0  0  0  0
 31 39  1  0  0  0  0
 33 34  1  6  0  0  0
 33 35  1  0  0  0  0
 35 36  1  1  0  0  0
 35 37  1  0  0  0  0
 37 38  1  6  0  0  0
 37 40  1  0  0  0  0
 39 40  1  0  0  0  0
 39 41  1  1  0  0  0
 41 42  1  0  0  0  0
M  CHG  5   4   1  14   1  21   1  36   1  42   1
M  END
>  <CHROM.1>
-111.57147705,-17.25949493,165.97033397,-69.48271008,60.25302085,77.31621455
-73.50167134,-172.53861604,52.85453721,115.41913916,157.97864013,13.35273318
-174.29951518,-78.42751825,164.55819970,76.87224697,-47.28973882,-88.09488947
-43.58365598,-118.32201272,-61.54214521,174.02395659,2.56630593,0.76772288
40.57379037,1.53042436,0.26102616,-1.37944046

>  <Name>
1pbr

>  <RI>
0

>  <Rbt.Current_Directory>
/home/itssahil/PROJECTS/Mol_Feturizer/New_Systems/rnas/1pbr

>  <Rbt.Executable>
rbdock ($Id: //depot/dev/client3/rdock/2013.1/src/exe/rbdock.cxx#4 $)

>  <Rbt.Library>
libRbt.so (2013.1, Build901 2013/11/27)

>  <Rbt.Parameter_File>
/export/apps/rDock/src/rDock_2013.1_src/data/scripts/dock_solv.prm

>  <Rbt.Receptor>
prm/blind_docking_100.prm

>  <SCORE>
-32.6727

>  <SCORE.INTER>
-52.0722

>  <SCORE.INTER.CONST>
1

>  <SCORE.INTER.POLAR>
-7.13245

>  <SCORE.INTER.ROT>
9

>  <SCORE.INTER.SOLV>
36.2254

>  <SCORE.INTER.VDW>
-32.6151

>  <SCORE.INTER.norm>
-1.23981

>  <SCORE.INTRA>
15.413

>  <SCORE.INTRA.DIHEDRAL>
14.6667

>  <SCORE.INTRA.DIHEDRAL.0>
29.7866

>  <SCORE.INTRA.POLAR>
0.123692

>  <SCORE.INTRA.POLAR.0>
-0.984091

>  <SCORE.INTRA.REPUL>
-0.274115

>  <SCORE.INTRA.REPUL.0>
0.274115

>  <SCORE.INTRA.SOLV>
4.3365

>  <SCORE.INTRA.SOLV.lig_0>
-152.978

>  <SCORE.INTRA.VDW>
6.86136

>  <SCORE.INTRA.VDW.0>
-6.10719

>  <SCORE.INTRA.norm>
0.366975

>  <SCORE.RESTR>
3.98652

>  <SCORE.RESTR.CAVITY>
3.98652

>  <SCORE.RESTR.norm>
0.094917

>  <SCORE.SYSTEM>
0

>  <SCORE.SYSTEM.CONST>
0

>  <SCORE.SYSTEM.DIHEDRAL>
0

>  <SCORE.SYSTEM.SOLV>
0

>  <SCORE.SYSTEM.norm>
0

>  <SCORE.heavy>
42

>  <SCORE.norm>
-0.777921

>  <RMSD>
8.401

$$$$
1pbr
 OpenBabel11021811403D
libRbt.so/2013.1/901 2013/11/27
 42 45  0  0  0  0  0  0  0  0999 V2000
    5.2491   -0.2143   37.3282 C   0  0  2  0  0  0  0  0  0  0  0  0
    3.8791   -0.6124   37.0681 O   0  0  0  0  0  0  0  0  0  0  0  0
    6.1875   -1.4741   37.4318 C   0  0  2  0  0  0  0  0  0  0  0  0
    5.9106   -2.5330   36.4267 N   0  3  0  0  0  0  0  0  0  0  0  0
    6.0788   -2.1504   38.8115 C   0  0  1  0  0  0  0  0  0  0  0  0
    7.1137   -3.1159   38.9847 O   0  0  0  0  0  0  0  0  0  0  0  0
    6.1540   -1.1130   39.9420 C   0  0  2  0  0  0  0  0  0  0  0  0
    6.0959   -1.7602   41.2093 O   0  0  0  0  0  0  0  0  0  0  0  0
    5.0550   -0.0403   39.7744 C   0  0  2  0  0  0  0  0  0  0  0  0
    5.3047    0.6223   38.5167 O   0  0  0  0  0  0  0  0  0  0  0  0
    5.0439    1.0230   40.8713 C   0  0  0  0  0  0  0  0  0  0  0  0
    4.1754    2.0978   40.5380 O   0  0  0  0  0  0  0  0  0  0  0  0
    2.7259    3.2342   35.6253 C   0  0  1  0  0  0  0  0  0  0  0  0
    2.0197    4.4207   35.1080 N   0  3  0  0  0  0  0  0  0  0  0  0
    2.2941    2.8778   37.0800 C   0  0  2  0  0  0  0  0  0  0  0  0
    2.5533    3.9707   37.9580 O   0  0  0  0  0  0  0  0  0  0  0  0
    3.0619    1.6306   37.6080 C   0  0  1  0  0  0  0  0  0  0  0  0
    2.4972    1.2467   38.8966 O   0  0  0  0  0  0  0  0  0  0  0  0
    2.9706    0.4222   36.6198 C   0  0  1  0  0  0  0  0  0  0  0  0
    3.3534    0.8063   35.1547 C   0  0  1  0  0  0  0  0  0  0  0  0
    3.1620   -0.3299   34.2263 N   0  3  0  0  0  0  0  0  0  0  0  0
    2.5189    2.0209   34.6721 C   0  0  0  0  0  0  0  0  0  0  0  0
    1.5285    0.1524   38.9737 C   0  0  1  0  0  0  0  0  0  0  0  0
    1.2775   -0.1805   40.4563 C   0  0  2  0  0  0  0  0  0  0  0  0
    0.8444   -1.5290   40.6121 O   0  0  0  0  0  0  0  0  0  0  0  0
    0.1547    0.8279   40.7430 C   0  0  1  0  0  0  0  0  0  0  0  0
   -0.7150    0.7073   39.5026 C   0  0  2  0  0  0  0  0  0  0  0  0
    0.2505    0.5795   38.4700 O   0  0  0  0  0  0  0  0  0  0  0  0
   -1.6328    1.9058   39.2290 C   0  0  0  0  0  0  0  0  0  0  0  0
   -2.2687    1.7549   37.9684 O   0  0  0  0  0  0  0  0  0  0  0  0
    0.6500   -0.5317   45.9230 C   0  0  1  0  0  0  0  0  0  0  0  0
   -0.5283   -1.2715   46.2377 O   0  0  0  0  0  0  0  0  0  0  0  0
    1.3870   -1.2160   44.7380 C   0  0  2  0  0  0  0  0  0  0  0  0
    2.7178   -0.7080   44.6775 O   0  0  0  0  0  0  0  0  0  0  0  0
    0.7154   -1.0353   43.3372 C   0  0  1  0  0  0  0  0  0  0  0  0
   -0.3331   -2.0591   43.1336 N   0  3  0  0  0  0  0  0  0  0  0  0
    0.1916    0.4101   43.1296 C   0  0  1  0  0  0  0  0  0  0  0  0
   -0.6251    0.5775   41.9446 O   0  0  0  0  0  0  0  0  0  0  0  0
    0.2839    0.9246   45.5409 C   0  0  1  0  0  0  0  0  0  0  0  0
   -0.5163    0.8749   44.3281 O   0  0  0  0  0  0  0  0  0  0  0  0
   -0.4502    1.6950   46.6543 C   0  0  0  0  0  0  0  0  0  0  0  0
    0.4517    2.1226   47.7416 N   0  3  0  0  0  0  0  0  0  0  0  0
  1  2  1  1  0  0  0
  1  3  1  0  0  0  0
  1 10  1  0  0  0  0
  3  4  1  6  0  0  0
  3  5  1  0  0  0  0
  5  6  1  1  0  0  0
  5  7  1  0  0  0  0
  7  8  1  1  0  0  0
  7  9  1  0  0  0  0
  9 10  1  0  0  0  0
  9 11  1  1  0  0  0
 11 12  1  0  0  0  0
 13 14  1  6  0  0  0
 13 15  1  0  0  0  0
 13 22  1  0  0  0  0
 15 16  1  1  0  0  0
 15 17  1  0  0  0  0
 17 18  1  1  0  0  0
 17 19  1  0  0  0  0
 19  2  1  1  0  0  0
 19 20  1  0  0  0  0
 20 21  1  6  0  0  0
 20 22  1  0  0  0  0
 23 18  1  1  0  0  0
 23 24  1  0  0  0  0
 23 28  1  0  0  0  0
 24 25  1  6  0  0  0
 24 26  1  0  0  0  0
 26 27  1  0  0  0  0
 26 38  1  1  0  0  0
 27 28  1  0  0  0  0
 27 29  1  6  0  0  0
 29 30  1  0  0  0  0
 31 32  1  6  0  0  0
 31 33  1  0  0  0  0
 31 39  1  0  0  0  0
 33 34  1  6  0  0  0
 33 35  1  0  0  0  0
 35 36  1  1  0  0  0
 35 37  1  0  0  0  0
 37 38  1  6  0  0  0
 37 40  1  0  0  0  0
 39 40  1  0  0  0  0
 39 41  1  1  0  0  0
 41 42  1  0  0  0  0
M  CHG  5   4   1  14   1  21   1  36   1  42   1
M  END
>  <CHROM.1>
-165.03464039,-51.56739103,-178.81545586,65.57286025,-175.53613499,169.76827525
55.33744853,143.54597925,-174.81701939,99.17077969,171.05407741,-72.31243610
115.17250193,52.39978711,172.83014120,76.01834425,78.09614362,-51.01001224
43.32260138,-85.19215012,75.58633012,154.62493620,2.29454706,0.34618820,40.09853068
-1.08253939,-0.52503831,1.87930995

>  <Name>
1pbr

>  <RI>
0

>  <Rbt.Current_Directory>
/home/itssahil/PROJECTS/Mol_Feturizer/New_Systems/rnas/1pbr

>  <Rbt.Executable>
rbdock ($Id: //depot/dev/client3/rdock/2013.1/src/exe/rbdock.cxx#4 $)

>  <Rbt.Library>
libRbt.so (2013.1, Build901 2013/11/27)

>  <Rbt.Parameter_File>
/export/apps/rDock/src/rDock_2013.1_src/data/scripts/dock_solv.prm

>  <Rbt.Receptor>
prm/blind_docking_60.prm

>  <SCORE>
-29.6363

>  <SCORE.INTER>
-33.9924

>  <SCORE.INTER.CONST>
1

>  <SCORE.INTER.POLAR>
-6.54841

>  <SCORE.INTER.ROT>
9

>  <SCORE.INTER.SOLV>
44.6698

>  <SCORE.INTER.VDW>
-25.3235

>  <SCORE.INTER.norm>
-0.809342

>  <SCORE.INTRA>
1.55287

>  <SCORE.INTRA.DIHEDRAL>
-2.49554

>  <SCORE.INTRA.DIHEDRAL.0>
29.7866

>  <SCORE.INTRA.POLAR>
0.18849

>  <SCORE.INTRA.POLAR.0>
-0.984091

>  <SCORE.INTRA.REPUL>
-0.274115

>  <SCORE.INTRA.REPUL.0>
0.274115

>  <SCORE.INTRA.SOLV>
0.00835415

>  <SCORE.INTRA.SOLV.lig_0>
-152.978

>  <SCORE.INTRA.VDW>
3.52617

>  <SCORE.INTRA.VDW.0>
-6.10719

>  <SCORE.INTRA.norm>
0.0369732

>  <SCORE.RESTR>
2.80322

>  <SCORE.RESTR.CAVITY>
2.80322

>  <SCORE.RESTR.norm>
0.0667434

>  <SCORE.SYSTEM>
0

>  <SCORE.SYSTEM.CONST>
0

>  <SCORE.SYSTEM.DIHEDRAL>
0

>  <SCORE.SYSTEM.SOLV>
0

>  <SCORE.SYSTEM.norm>
0

>  <SCORE.heavy>
42

>  <SCORE.norm>
-0.705625

>  <RMSD>
8.401

$$$$
1pbr
 OpenBabel11021811403D
libRbt.so/2013.1/901 2013/11/27
 42 45  0  0  0  0  0  0  0  0999 V2000
    6.2753   -2.7957   37.8157 C   0  0  2  0  0  0  0  0  0  0  0  0
    4.9340   -2.4509   38.2458 O   0  0  0  0  0  0  0  0  0  0  0  0
    6.6089   -4.2928   38.1702 C   0  0  2  0  0  0  0  0  0  0  0  0
    5.4947   -5.2460   37.9293 N   0  3  0  0  0  0  0  0  0  0  0  0
    6.9992   -4.4514   39.6518 C   0  0  1  0  0  0  0  0  0  0  0  0
    7.5488   -5.7445   39.8947 O   0  0  0  0  0  0  0  0  0  0  0  0
    8.0141   -3.3779   40.0730 C   0  0  2  0  0  0  0  0  0  0  0  0
    8.3958   -3.5669   41.4320 O   0  0  0  0  0  0  0  0  0  0  0  0
    7.4558   -1.9623   39.8065 C   0  0  2  0  0  0  0  0  0  0  0  0
    7.2335   -1.8607   38.3840 O   0  0  0  0  0  0  0  0  0  0  0  0
    8.3955   -0.8299   40.2171 C   0  0  0  0  0  0  0  0  0  0  0  0
    8.7421   -0.9214   41.5926 O   0  0  0  0  0  0  0  0  0  0  0  0
    4.9055    1.3712   36.3487 C   0  0  1  0  0  0  0  0  0  0  0  0
    4.5591    2.6459   35.6938 N   0  3  0  0  0  0  0  0  0  0  0  0
    4.4490    1.3296   37.8385 C   0  0  2  0  0  0  0  0  0  0  0  0
    5.0549    2.3897   38.5744 O   0  0  0  0  0  0  0  0  0  0  0  0
    4.8368   -0.0198   38.5112 C   0  0  1  0  0  0  0  0  0  0  0  0
    4.2383   -0.0669   39.8403 O   0  0  0  0  0  0  0  0  0  0  0  0
    4.3526   -1.2520   37.6791 C   0  0  1  0  0  0  0  0  0  0  0  0
    4.7700   -1.1708   36.1759 C   0  0  1  0  0  0  0  0  0  0  0  0
    4.2141   -2.2980   35.3949 N   0  3  0  0  0  0  0  0  0  0  0  0
    4.3109    0.1728   35.5527 C   0  0  0  0  0  0  0  0  0  0  0  0
    4.8802    0.6288   40.9564 C   0  0  1  0  0  0  0  0  0  0  0  0
    3.8218    1.4826   41.6796 C   0  0  2  0  0  0  0  0  0  0  0  0
    4.4257    2.5817   42.3560 O   0  0  0  0  0  0  0  0  0  0  0  0
    3.2834    0.4243   42.6543 C   0  0  1  0  0  0  0  0  0  0  0  0
    4.5562   -0.2545   43.1327 C   0  0  2  0  0  0  0  0  0  0  0  0
    5.3286   -0.3168   41.9435 O   0  0  0  0  0  0  0  0  0  0  0  0
    4.3666   -1.6592   43.7197 C   0  0  0  0  0  0  0  0  0  0  0  0
    4.0912   -2.5881   42.6816 O   0  0  0  0  0  0  0  0  0  0  0  0
   -0.5515   -1.4256   45.6983 C   0  0  1  0  0  0  0  0  0  0  0  0
   -1.6445   -0.6869   45.1557 O   0  0  0  0  0  0  0  0  0  0  0  0
    0.2336   -2.1075   44.5432 C   0  0  2  0  0  0  0  0  0  0  0  0
    1.0691   -3.1203   45.0988 O   0  0  0  0  0  0  0  0  0  0  0  0
    1.1136   -1.1500   43.6746 C   0  0  1  0  0  0  0  0  0  0  0  0
    0.2985   -0.5288   42.6074 N   0  3  0  0  0  0  0  0  0  0  0  0
    1.8616   -0.1051   44.5438 C   0  0  1  0  0  0  0  0  0  0  0  0
    2.5186    0.9362   43.7802 O   0  0  0  0  0  0  0  0  0  0  0  0
    0.3924   -0.4853   46.4892 C   0  0  1  0  0  0  0  0  0  0  0  0
    0.9570    0.4676   45.5473 O   0  0  0  0  0  0  0  0  0  0  0  0
   -0.2911    0.2397   47.6636 C   0  0  0  0  0  0  0  0  0  0  0  0
   -1.2857    1.2350   47.2179 N   0  3  0  0  0  0  0  0  0  0  0  0
  1  2  1  1  0  0  0
  1  3  1  0  0  0  0
  1 10  1  0  0  0  0
  3  4  1  1  0  0  0
  3  5  1  0  0  0  0
  5  6  1  6  0  0  0
  5  7  1  0  0  0  0
  7  8  1  1  0  0  0
  7  9  1  0  0  0  0
  9 10  1  0  0  0  0
  9 11  1  6  0  0  0
 11 12  1  0  0  0  0
 13 14  1  6  0  0  0
 13 15  1  0  0  0  0
 13 22  1  0  0  0  0
 15 16  1  1  0  0  0
 15 17  1  0  0  0  0
 17 18  1  1  0  0  0
 17 19  1  0  0  0  0
 19  2  1  1  0  0  0
 19 20  1  0  0  0  0
 20 21  1  6  0  0  0
 20 22  1  0  0  0  0
 23 18  1  6  0  0  0
 23 24  1  0  0  0  0
 23 28  1  0  0  0  0
 24 25  1  1  0  0  0
 24 26  1  0  0  0  0
 26 27  1  0  0  0  0
 26 38  1  1  0  0  0
 27 28  1  0  0  0  0
 27 29  1  6  0  0  0
 29 30  1  0  0  0  0
 31 32  1  6  0  0  0
 31 33  1  0  0  0  0
 31 39  1  0  0  0  0
 33 34  1  1  0  0  0
 33 35  1  0  0  0  0
 35 36  1  6  0  0  0
 35 37  1  0  0  0  0
 37 38  1  6  0  0  0
 37 40  1  0  0  0  0
 39 40  1  0  0  0  0
 39 41  1  1  0  0  0
 41 42  1  0  0  0  0
M  CHG  5   4   1  14   1  21   1  36   1  42   1
M  END
>  <CHROM.1>
-163.64262249,-84.16705961,-157.61161679,62.83180377,-170.24225985,-57.00503509
-175.15530838,82.32268021,168.40153705,-80.68279086,130.41420453,-169.38025991
172.94406267,170.83823761,73.13368923,-59.63745165,67.74750007,65.32845670
-63.67137887,-46.52151900,-68.31509664,-62.31025211,4.06074481,-0.97488044
41.11086559,-0.54671492,-0.78227886,2.23113807

>  <Name>
1pbr

>  <RI>
0

>  <Rbt.Current_Directory>
/home/itssahil/PROJECTS/Mol_Feturizer/New_Systems/rnas/1pbr

>  <Rbt.Executable>
rbdock ($Id: //depot/dev/client3/rdock/2013.1/src/exe/rbdock.cxx#4 $)

>  <Rbt.Library>
libRbt.so (2013.1, Build901 2013/11/27)

>  <Rbt.Parameter_File>
/export/apps/rDock/src/rDock_2013.1_src/data/scripts/dock_solv.prm

>  <Rbt.Receptor>
prm/pocket_docking_5.prm

>  <SCORE>
-40.2291

>  <SCORE.INTER>
-35.989

>  <SCORE.INTER.CONST>
1

>  <SCORE.INTER.POLAR>
-5.43999

>  <SCORE.INTER.ROT>
9

>  <SCORE.INTER.SOLV>
35.1402

>  <SCORE.INTER.VDW>
-27.1728

>  <SCORE.INTER.norm>
-0.85688

>  <SCORE.INTRA>
-4.24012

>  <SCORE.INTRA.DIHEDRAL>
-10.316

>  <SCORE.INTRA.DIHEDRAL.0>
29.7866

>  <SCORE.INTRA.POLAR>
-0.379866

>  <SCORE.INTRA.POLAR.0>
-0.984091

>  <SCORE.INTRA.REPUL>
-0.274115

>  <SCORE.INTRA.REPUL.0>
0.274115

>  <SCORE.INTRA.SOLV>
2.35909

>  <SCORE.INTRA.SOLV.lig_0>
-152.978

>  <SCORE.INTRA.VDW>
2.40044

>  <SCORE.INTRA.VDW.0>
-6.10719

>  <SCORE.INTRA.norm>
-0.100955

>  <SCORE.RESTR>
0

>  <SCORE.RESTR.CAVITY>
0

>  <SCORE.RESTR.norm>
0

>  <SCORE.SYSTEM>
0

>  <SCORE.SYSTEM.CONST>
0

>  <SCORE.SYSTEM.DIHEDRAL>
0

>  <SCORE.SYSTEM.SOLV>
0

>  <SCORE.SYSTEM.norm>
0

>  <SCORE.heavy>
42

>  <SCORE.norm>
-0.957835

>  <RMSD>
8.404

$$$$
1pbr
 OpenBabel11021811403D
libRbt.so/2013.1/901 2013/11/27
 42 45  0  0  0  0  0  0  0  0999 V2000
    5.4116   -0.4232   40.3963 C   0  0  2  0  0  0  0  0  0  0  0  0
    5.1739    0.9012   39.8552 O   0  0  0  0  0  0  0  0  0  0  0  0
    6.8123   -0.4920   41.1115 C   0  0  2  0  0  0  0  0  0  0  0  0
    7.1467    0.7037   41.9281 N   0  3  0  0  0  0  0  0  0  0  0  0
    7.9597   -0.6559   40.0971 C   0  0  1  0  0  0  0  0  0  0  0  0
    9.1794   -0.9803   40.7607 O   0  0  0  0  0  0  0  0  0  0  0  0
    7.6334   -1.7471   39.0663 C   0  0  2  0  0  0  0  0  0  0  0  0
    8.7226   -1.9146   38.1642 O   0  0  0  0  0  0  0  0  0  0  0  0
    6.3062   -1.4346   38.3400 C   0  0  2  0  0  0  0  0  0  0  0  0
    5.2715   -1.4198   39.3463 O   0  0  0  0  0  0  0  0  0  0  0  0
    5.9148   -2.4619   37.2791 C   0  0  0  0  0  0  0  0  0  0  0  0
    5.5363   -3.6968   37.8727 O   0  0  0  0  0  0  0  0  0  0  0  0
    1.6101    2.8649   38.5705 C   0  0  1  0  0  0  0  0  0  0  0  0
    0.3695    3.2923   37.8980 N   0  3  0  0  0  0  0  0  0  0  0  0
    1.4259    1.5323   39.3578 C   0  0  2  0  0  0  0  0  0  0  0  0
    0.4078    1.6745   40.3456 O   0  0  0  0  0  0  0  0  0  0  0  0
    2.7446    1.1089   40.0687 C   0  0  1  0  0  0  0  0  0  0  0  0
    2.5594   -0.2195   40.6416 O   0  0  0  0  0  0  0  0  0  0  0  0
    3.9610    1.0863   39.0864 C   0  0  1  0  0  0  0  0  0  0  0  0
    4.1014    2.4072   38.2641 C   0  0  1  0  0  0  0  0  0  0  0  0
    5.1979    2.3185   37.2745 N   0  3  0  0  0  0  0  0  0  0  0  0
    2.7718    2.7451   37.5412 C   0  0  0  0  0  0  0  0  0  0  0  0
    1.5375   -0.4380   41.6661 C   0  0  1  0  0  0  0  0  0  0  0  0
    1.3808   -1.9536   41.8910 C   0  0  2  0  0  0  0  0  0  0  0  0
    0.0842   -2.2655   42.3926 O   0  0  0  0  0  0  0  0  0  0  0  0
    2.4775   -2.1550   42.9478 C   0  0  1  0  0  0  0  0  0  0  0  0
    2.2747   -0.9559   43.8591 C   0  0  2  0  0  0  0  0  0  0  0  0
    1.9811    0.0790   42.9331 O   0  0  0  0  0  0  0  0  0  0  0  0
    3.4878   -0.5749   44.7175 C   0  0  0  0  0  0  0  0  0  0  0  0
    3.8346   -1.6514   45.5762 O   0  0  0  0  0  0  0  0  0  0  0  0
    4.2742   -7.0239   42.2862 C   0  0  1  0  0  0  0  0  0  0  0  0
    5.1580   -7.1596   43.3975 O   0  0  0  0  0  0  0  0  0  0  0  0
    2.8049   -7.1431   42.7787 C   0  0  2  0  0  0  0  0  0  0  0  0
    1.9662   -7.3806   41.6505 O   0  0  0  0  0  0  0  0  0  0  0  0
    2.2577   -5.9039   43.5602 C   0  0  1  0  0  0  0  0  0  0  0  0
    2.6289   -5.9923   44.9897 N   0  3  0  0  0  0  0  0  0  0  0  0
    2.6989   -4.5677   42.9069 C   0  0  1  0  0  0  0  0  0  0  0  0
    2.4030   -3.3947   43.7042 O   0  0  0  0  0  0  0  0  0  0  0  0
    4.4854   -5.6529   41.5960 C   0  0  1  0  0  0  0  0  0  0  0  0
    4.1214   -4.6178   42.5499 O   0  0  0  0  0  0  0  0  0  0  0  0
    5.9152   -5.4358   41.0662 C   0  0  0  0  0  0  0  0  0  0  0  0
    6.1247   -6.0295   39.7312 N   0  3  0  0  0  0  0  0  0  0  0  0
  1  2  1  6  0  0  0
  1  3  1  0  0  0  0
  1 10  1  0  0  0  0
  3  4  1  6  0  0  0
  3  5  1  0  0  0  0
  5  6  1  1  0  0  0
  5  7  1  0  0  0  0
  7  8  1  6  0  0  0
  7  9  1  0  0  0  0
  9 10  1  0  0  0  0
  9 11  1  6  0  0  0
 11 12  1  0  0  0  0
 13 14  1  6  0  0  0
 13 15  1  0  0  0  0
 13 22  1  0  0  0  0
 15 16  1  1  0  0  0
 15 17  1  0  0  0  0
 17 18  1  6  0  0  0
 17 19  1  0  0  0  0
 19  2  1  1  0  0  0
 19 20  1  0  0  0  0
 20 21  1  6  0  0  0
 20 22  1  0  0  0  0
 23 18  1  6  0  0  0
 23 24  1  0  0  0  0
 23 28  1  0  0  0  0
 24 25  1  1  0  0  0
 24 26  1  0  0  0  0
 26 27  1  0  0  0  0
 26 38  1  1  0  0  0
 27 28  1  0  0  0  0
 27 29  1  6  0  0  0
 29 30  1  0  0  0  0
 31 32  1  1  0  0  0
 31 33  1  0  0  0  0
 31 39  1  0  0  0  0
 33 34  1  6  0  0  0
 33 35  1  0  0  0  0
 35 36  1  1  0  0  0
 35 37  1  0  0  0  0
 37 38  1  1  0  0  0
 37 40  1  0  0  0  0
 39 40  1  0  0  0  0
 39 41  1  1  0  0  0
 41 42  1  0  0  0  0
M  CHG  5   4   1  14   1  21   1  36   1  42   1
M  END
>  <CHROM.1>
175.81449837,73.62184150,70.02681176,179.49617849,-61.94933854,69.89824997
52.62964974,58.50565623,-70.09790999,-61.56226682,169.38289248,-174.75799052
-59.69645658,68.99266958,-60.82246186,175.84617048,60.30545432,66.27605606
169.53599022,-164.12391732,83.87915297,76.29279324,4.02496538,-1.81010722
40.95080345,-1.55600854,-0.49714733,2.64544766

>  <Name>
1pbr

>  <RI>
0

>  <Rbt.Current_Directory>
/home/itssahil/PROJECTS/Mol_Feturizer/New_Systems/rnas/1pbr

>  <Rbt.Executable>
rbdock ($Id: //depot/dev/client3/rdock/2013.1/src/exe/rbdock.cxx#4 $)

>  <Rbt.Library>
libRbt.so (2013.1, Build901 2013/11/27)

>  <Rbt.Parameter_File>
/export/apps/rDock/src/rDock_2013.1_src/data/scripts/dock_solv.prm

>  <Rbt.Receptor>
prm/pocket_docking_6.prm

>  <SCORE>
-30.216

>  <SCORE.INTER>
-16.3826

>  <SCORE.INTER.CONST>
1

>  <SCORE.INTER.POLAR>
-2.92723

>  <SCORE.INTER.ROT>
9

>  <SCORE.INTER.SOLV>
18.4777

>  <SCORE.INTER.VDW>
-16.9235

>  <SCORE.INTER.norm>
-0.390062

>  <SCORE.INTRA>
-13.8334

>  <SCORE.INTRA.DIHEDRAL>
-21.1248

>  <SCORE.INTRA.DIHEDRAL.0>
29.7866

>  <SCORE.INTRA.POLAR>
-0.373744

>  <SCORE.INTRA.POLAR.0>
-0.984091

>  <SCORE.INTRA.REPUL>
-0.274115

>  <SCORE.INTRA.REPUL.0>
0.274115

>  <SCORE.INTRA.SOLV>
-2.69333

>  <SCORE.INTRA.SOLV.lig_0>
-152.978

>  <SCORE.INTRA.VDW>
0.717023

>  <SCORE.INTRA.VDW.0>
-6.10719

>  <SCORE.INTRA.norm>
-0.329366

>  <SCORE.RESTR>
0

>  <SCORE.RESTR.CAVITY>
0

>  <SCORE.RESTR.norm>
0

>  <SCORE.SYSTEM>
0

>  <SCORE.SYSTEM.CONST>
0

>  <SCORE.SYSTEM.DIHEDRAL>
0

>  <SCORE.SYSTEM.SOLV>
0

>  <SCORE.SYSTEM.norm>
0

>  <SCORE.heavy>
42

>  <SCORE.norm>
-0.719428

>  <RMSD>
8.424

$$$$
1pbr
 OpenBabel11021811403D
libRbt.so/2013.1/901 2013/11/27
 42 45  0  0  0  0  0  0  0  0999 V2000
    4.3761   -0.5347   39.4422 C   0  0  2  0  0  0  0  0  0  0  0  0
    4.8617    0.5551   38.6177 O   0  0  0  0  0  0  0  0  0  0  0  0
    5.5510   -1.1748   40.2718 C   0  0  2  0  0  0  0  0  0  0  0  0
    6.5072   -0.1923   40.8452 N   0  3  0  0  0  0  0  0  0  0  0  0
    6.3890   -2.1423   39.4149 C   0  0  1  0  0  0  0  0  0  0  0  0
    7.2722   -2.9070   40.2324 O   0  0  0  0  0  0  0  0  0  0  0  0
    5.4866   -3.0910   38.6116 C   0  0  2  0  0  0  0  0  0  0  0  0
    6.2783   -4.0056   37.8600 O   0  0  0  0  0  0  0  0  0  0  0  0
    4.5037   -2.2929   37.7265 C   0  0  2  0  0  0  0  0  0  0  0  0
    3.6807   -1.5090   38.6161 O   0  0  0  0  0  0  0  0  0  0  0  0
    3.5794   -3.1616   36.8749 C   0  0  0  0  0  0  0  0  0  0  0  0
    3.3900   -4.4420   37.4625 O   0  0  0  0  0  0  0  0  0  0  0  0
    2.7387    3.4870   36.3584 C   0  0  1  0  0  0  0  0  0  0  0  0
    1.9131    4.2322   35.3904 N   0  3  0  0  0  0  0  0  0  0  0  0
    1.8833    2.5582   37.2723 C   0  0  2  0  0  0  0  0  0  0  0  0
    0.9227    3.3218   37.9981 O   0  0  0  0  0  0  0  0  0  0  0  0
    2.7753    1.7927   38.2931 C   0  0  1  0  0  0  0  0  0  0  0  0
    1.9473    0.8212   38.9986 O   0  0  0  0  0  0  0  0  0  0  0  0
    3.9643    1.0537   37.5966 C   0  0  1  0  0  0  0  0  0  0  0  0
    4.7800    1.9827   36.6415 C   0  0  1  0  0  0  0  0  0  0  0  0
    5.8342    1.2335   35.9226 N   0  3  0  0  0  0  0  0  0  0  0  0
    3.8418    2.6747   35.6190 C   0  0  0  0  0  0  0  0  0  0  0  0
    1.1865    1.2298   40.1802 C   0  0  1  0  0  0  0  0  0  0  0  0
    0.5980   -0.0276   40.8470 C   0  0  2  0  0  0  0  0  0  0  0  0
   -0.5694    0.2906   41.5993 O   0  0  0  0  0  0  0  0  0  0  0  0
    1.7858   -0.4019   41.7463 C   0  0  1  0  0  0  0  0  0  0  0  0
    2.2133    0.9479   42.2985 C   0  0  2  0  0  0  0  0  0  0  0  0
    2.0647    1.7951   41.1694 O   0  0  0  0  0  0  0  0  0  0  0  0
    3.6520    1.0116   42.8274 C   0  0  0  0  0  0  0  0  0  0  0  0
    3.7720    0.2326   44.0085 O   0  0  0  0  0  0  0  0  0  0  0  0
    0.9369   -5.6163   42.8558 C   0  0  1  0  0  0  0  0  0  0  0  0
    0.4887   -5.6822   44.2084 O   0  0  0  0  0  0  0  0  0  0  0  0
   -0.0759   -4.7880   42.0170 C   0  0  2  0  0  0  0  0  0  0  0  0
    0.1690   -5.0373   40.6348 O   0  0  0  0  0  0  0  0  0  0  0  0
   -0.0447   -3.2439   42.2629 C   0  0  1  0  0  0  0  0  0  0  0  0
   -0.8872   -2.8911   43.4268 N   0  3  0  0  0  0  0  0  0  0  0  0
    1.4058   -2.7077   42.3872 C   0  0  1  0  0  0  0  0  0  0  0  0
    1.4902   -1.3296   42.8264 O   0  0  0  0  0  0  0  0  0  0  0  0
    2.3374   -4.9573   42.7856 C   0  0  1  0  0  0  0  0  0  0  0  0
    2.2039   -3.5862   43.2501 O   0  0  0  0  0  0  0  0  0  0  0  0
    3.4196   -5.7071   43.5849 C   0  0  0  0  0  0  0  0  0  0  0  0
    4.7141   -4.9982   43.5956 N   0  3  0  0  0  0  0  0  0  0  0  0
  1  2  1  6  0  0  0
  1  3  1  0  0  0  0
  1 10  1  0  0  0  0
  3  4  1  6  0  0  0
  3  5  1  0  0  0  0
  5  6  1  1  0  0  0
  5  7  1  0  0  0  0
  7  8  1  6  0  0  0
  7  9  1  0  0  0  0
  9 10  1  0  0  0  0
  9 11  1  1  0  0  0
 11 12  1  0  0  0  0
 13 14  1  6  0  0  0
 13 15  1  0  0  0  0
 13 22  1  0  0  0  0
 15 16  1  1  0  0  0
 15 17  1  0  0  0  0
 17 18  1  6  0  0  0
 17 19  1  0  0  0  0
 19  2  1  1  0  0  0
 19 20  1  0  0  0  0
 20 21  1  6  0  0  0
 20 22  1  0  0  0  0
 23 18  1  6  0  0  0
 23 24  1  0  0  0  0
 23 28  1  0  0  0  0
 24 25  1  1  0  0  0
 24 26  1  0  0  0  0
 26 27  1  0  0  0  0
 26 38  1  1  0  0  0
 27 28  1  0  0  0  0
 27 29  1  6  0  0  0
 29 30  1  0  0  0  0
 31 32  1  1  0  0  0
 31 33  1  0  0  0  0
 31 39  1  0  0  0  0
 33 34  1  6  0  0  0
 33 35  1  0  0  0  0
 35 36  1  1  0  0  0
 35 37  1  0  0  0  0
 37 38  1  1  0  0  0
 37 40  1  0  0  0  0
 39 40  1  0  0  0  0
 39 41  1  1  0  0  0
 41 42  1  0  0  0  0
M  CHG  5   4   1  14   1  21   1  36   1  42   1
M  END
>  <CHROM.1>
167.35546264,69.39947682,-146.39646263,-67.89676743,61.27629156,25.63129418
-100.57264104,-55.46706093,-59.21513065,-85.42893156,-170.86367581,-153.38165816
-56.45593167,78.78434858,-68.78839799,38.31412685,69.69417361,169.12634233
-170.97542410,-103.12956674,-175.12073211,70.21675782,2.94755727,-1.14616212
40.13311707,-1.31027626,-0.62414220,2.55389054

>  <Name>
1pbr

>  <RI>
0

>  <Rbt.Current_Directory>
/home/itssahil/PROJECTS/Mol_Feturizer/New_Systems/rnas/1pbr

>  <Rbt.Executable>
rbdock ($Id: //depot/dev/client3/rdock/2013.1/src/exe/rbdock.cxx#4 $)

>  <Rbt.Library>
libRbt.so (2013.1, Build901 2013/11/27)

>  <Rbt.Parameter_File>
/export/apps/rDock/src/rDock_2013.1_src/data/scripts/dock_solv.prm

>  <Rbt.Receptor>
prm/pocket_docking_6.prm

>  <SCORE>
-43.782

>  <SCORE.INTER>
-42.8552

>  <SCORE.INTER.CONST>
1

>  <SCORE.INTER.POLAR>
-7.59426

>  <SCORE.INTER.ROT>
9

>  <SCORE.INTER.SOLV>
20.6704

>  <SCORE.INTER.VDW>
-19.7461

>  <SCORE.INTER.norm>
-1.02036

>  <SCORE.INTRA>
-0.926753

>  <SCORE.INTRA.DIHEDRAL>
-0.656642

>  <SCORE.INTRA.DIHEDRAL.0>
29.7866

>  <SCORE.INTRA.POLAR>
0.0951247

>  <SCORE.INTRA.POLAR.0>
-0.984091

>  <SCORE.INTRA.REPUL>
-0.274115

>  <SCORE.INTRA.REPUL.0>
0.274115

>  <SCORE.INTRA.SOLV>
-1.95466

>  <SCORE.INTRA.SOLV.lig_0>
-152.978

>  <SCORE.INTRA.VDW>
1.42605

>  <SCORE.INTRA.VDW.0>
-6.10719

>  <SCORE.INTRA.norm>
-0.0220656

>  <SCORE.RESTR>
0

>  <SCORE.RESTR.CAVITY>
0

>  <SCORE.RESTR.norm>
0

>  <SCORE.SYSTEM>
0

>  <SCORE.SYSTEM.CONST>
0

>  <SCORE.SYSTEM.DIHEDRAL>
0

>  <SCORE.SYSTEM.SOLV>
0

>  <SCORE.SYSTEM.norm>
0

>  <SCORE.heavy>
42

>  <SCORE.norm>
-1.04243

>  <RMSD>
8.429

$$$$
1pbr
 OpenBabel11021811403D
libRbt.so/2013.1/901 2013/11/27
 42 45  0  0  0  0  0  0  0  0999 V2000
    1.5759    2.2990   36.6278 C   0  0  2  0  0  0  0  0  0  0  0  0
    2.9142    2.4980   37.1497 O   0  0  0  0  0  0  0  0  0  0  0  0
    1.0586    3.5982   35.9048 C   0  0  2  0  0  0  0  0  0  0  0  0
    2.0768    4.2843   35.0676 N   0  3  0  0  0  0  0  0  0  0  0  0
    0.5533    4.6462   36.9143 C   0  0  1  0  0  0  0  0  0  0  0  0
   -0.1484    5.6935   36.2480 O   0  0  0  0  0  0  0  0  0  0  0  0
   -0.3655    4.0031   37.9640 C   0  0  2  0  0  0  0  0  0  0  0  0
   -0.8572    4.9934   38.8615 O   0  0  0  0  0  0  0  0  0  0  0  0
    0.3597    2.8507   38.6938 C   0  0  2  0  0  0  0  0  0  0  0  0
    0.6882    1.8627   37.6941 O   0  0  0  0  0  0  0  0  0  0  0  0
   -0.4775    2.1665   39.7731 C   0  0  0  0  0  0  0  0  0  0  0  0
   -1.5093    1.3746   39.1997 O   0  0  0  0  0  0  0  0  0  0  0  0
    4.1442   -1.4964   36.2896 C   0  0  1  0  0  0  0  0  0  0  0  0
    4.8625   -2.7741   36.1296 N   0  3  0  0  0  0  0  0  0  0  0  0
    3.8610   -1.1616   37.7854 C   0  0  2  0  0  0  0  0  0  0  0  0
    3.0806   -2.1920   38.3868 O   0  0  0  0  0  0  0  0  0  0  0  0
    3.0914    0.1841   37.9275 C   0  0  1  0  0  0  0  0  0  0  0  0
    3.0070    0.5255   39.3429 O   0  0  0  0  0  0  0  0  0  0  0  0
    3.7933    1.3474   37.1533 C   0  0  1  0  0  0  0  0  0  0  0  0
    4.1206    0.9788   35.6709 C   0  0  1  0  0  0  0  0  0  0  0  0
    4.8717    2.0594   34.9943 N   0  3  0  0  0  0  0  0  0  0  0  0
    4.9302   -0.3420   35.6019 C   0  0  0  0  0  0  0  0  0  0  0  0
    3.0470   -0.5320   40.3538 C   0  0  1  0  0  0  0  0  0  0  0  0
    4.0131   -0.1061   41.4752 C   0  0  2  0  0  0  0  0  0  0  0  0
    4.5435   -1.2417   42.1528 O   0  0  0  0  0  0  0  0  0  0  0  0
    3.0314    0.6878   42.3504 C   0  0  1  0  0  0  0  0  0  0  0  0
    1.7973   -0.1990   42.3409 C   0  0  2  0  0  0  0  0  0  0  0  0
    1.7667   -0.6568   40.9977 O   0  0  0  0  0  0  0  0  0  0  0  0
    0.4820    0.5078   42.6934 C   0  0  0  0  0  0  0  0  0  0  0  0
   -0.5668   -0.4427   42.8066 O   0  0  0  0  0  0  0  0  0  0  0  0
    1.0933   -0.4322   47.0503 C   0  0  1  0  0  0  0  0  0  0  0  0
    2.0558   -1.3759   47.5168 O   0  0  0  0  0  0  0  0  0  0  0  0
    1.6829    1.0017   47.1587 C   0  0  2  0  0  0  0  0  0  0  0  0
    0.6150    1.9404   47.0534 O   0  0  0  0  0  0  0  0  0  0  0  0
    2.7737    1.3596   46.0966 C   0  0  1  0  0  0  0  0  0  0  0  0
    4.1039    0.8964   46.5493 N   0  3  0  0  0  0  0  0  0  0  0  0
    2.4021    0.8315   44.6860 C   0  0  1  0  0  0  0  0  0  0  0  0
    3.4693    0.9458   43.7128 O   0  0  0  0  0  0  0  0  0  0  0  0
    0.7157   -0.7331   45.5780 C   0  0  1  0  0  0  0  0  0  0  0  0
    1.9098   -0.5484   44.7695 O   0  0  0  0  0  0  0  0  0  0  0  0
    0.1159   -2.1353   45.3628 C   0  0  0  0  0  0  0  0  0  0  0  0
   -1.2456   -2.2642   45.9179 N   0  3  0  0  0  0  0  0  0  0  0  0
  1  2  1  1  0  0  0
  1  3  1  0  0  0  0
  1 10  1  0  0  0  0
  3  4  1  1  0  0  0
  3  5  1  0  0  0  0
  5  6  1  6  0  0  0
  5  7  1  0  0  0  0
  7  8  1  1  0  0  0
  7  9  1  0  0  0  0
  9 10  1  0  0  0  0
  9 11  1  1  0  0  0
 11 12  1  0  0  0  0
 13 14  1  1  0  0  0
 13 15  1  0  0  0  0
 13 22  1  0  0  0  0
 15 16  1  6  0  0  0
 15 17  1  0  0  0  0
 17 18  1  1  0  0  0
 17 19  1  0  0  0  0
 19  2  1  6  0  0  0
 19 20  1  0  0  0  0
 20 21  1  1  0  0  0
 20 22  1  0  0  0  0
 23 18  1  6  0  0  0
 23 24  1  0  0  0  0
 23 28  1  0  0  0  0
 24 25  1  1  0  0  0
 24 26  1  0  0  0  0
 26 27  1  0  0  0  0
 26 38  1  1  0  0  0
 27 28  1  0  0  0  0
 27 29  1  6  0  0  0
 29 30  1  0  0  0  0
 31 32  1  6  0  0  0
 31 33  1  0  0  0  0
 31 39  1  0  0  0  0
 33 34  1  6  0  0  0
 33 35  1  0  0  0  0
 35 36  1  1  0  0  0
 35 37  1  0  0  0  0
 37 38  1  6  0  0  0
 37 40  1  0  0  0  0
 39 40  1  0  0  0  0
 39 41  1  1  0  0  0
 41 42  1  0  0  0  0
M  CHG  5   4   1  14   1  21   1  36   1  42   1
M  END
>  <CHROM.1>
-146.56439695,-55.16085313,-155.49841284,65.85375865,65.22172509,71.86198840
64.01099356,-47.85231406,53.77330679,-26.47243883,134.48645232,165.53084875
69.08137435,-140.80741384,-173.15324294,-56.51155682,-73.02336529,66.39941381
-90.21681509,-168.99337635,71.19909578,-77.55691009,1.96867686,0.82086659
40.63298496,1.43724672,0.81528531,-1.23120969

>  <Name>
1pbr

>  <RI>
0

>  <Rbt.Current_Directory>
/home/itssahil/PROJECTS/Mol_Feturizer/New_Systems/rnas/1pbr

>  <Rbt.Executable>
rbdock ($Id: //depot/dev/client3/rdock/2013.1/src/exe/rbdock.cxx#4 $)

>  <Rbt.Library>
libRbt.so (2013.1, Build901 2013/11/27)

>  <Rbt.Parameter_File>
/export/apps/rDock/src/rDock_2013.1_src/data/scripts/dock_solv.prm

>  <Rbt.Receptor>
prm/blind_docking_100.prm

>  <SCORE>
15.3822

>  <SCORE.INTER>
-0.0937574

>  <SCORE.INTER.CONST>
1

>  <SCORE.INTER.POLAR>
-3.06344

>  <SCORE.INTER.ROT>
9

>  <SCORE.INTER.SOLV>
44.7161

>  <SCORE.INTER.VDW>
-14.3564

>  <SCORE.INTER.norm>
-0.00223232

>  <SCORE.INTRA>
13.6701

>  <SCORE.INTRA.DIHEDRAL>
-0.771449

>  <SCORE.INTRA.DIHEDRAL.0>
29.7866

>  <SCORE.INTRA.POLAR>
0.79441

>  <SCORE.INTRA.POLAR.0>
-0.984091

>  <SCORE.INTRA.REPUL>
-0.22025

>  <SCORE.INTRA.REPUL.0>
0.274115

>  <SCORE.INTRA.SOLV>
1.72089

>  <SCORE.INTRA.SOLV.lig_0>
-152.978

>  <SCORE.INTRA.VDW>
11.5957

>  <SCORE.INTRA.VDW.0>
-6.10719

>  <SCORE.INTRA.norm>
0.325479

>  <SCORE.RESTR>
1.80584

>  <SCORE.RESTR.CAVITY>
1.80584

>  <SCORE.RESTR.norm>
0.0429961

>  <SCORE.SYSTEM>
0

>  <SCORE.SYSTEM.CONST>
0

>  <SCORE.SYSTEM.DIHEDRAL>
0

>  <SCORE.SYSTEM.SOLV>
0

>  <SCORE.SYSTEM.norm>
0

>  <SCORE.heavy>
42

>  <SCORE.norm>
0.366243

>  <RMSD>
8.430

$$$$
1pbr
 OpenBabel11021811403D
libRbt.so/2013.1/901 2013/11/27
 42 45  0  0  0  0  0  0  0  0999 V2000
    1.5334    3.1393   35.7002 C   0  0  2  0  0  0  0  0  0  0  0  0
    2.8030    3.0889   36.3994 O   0  0  0  0  0  0  0  0  0  0  0  0
    1.0485    4.6270   35.5278 C   0  0  2  0  0  0  0  0  0  0  0  0
    2.1231    5.5872   35.1651 N   0  3  0  0  0  0  0  0  0  0  0  0
    0.4054    5.1672   36.8190 C   0  0  1  0  0  0  0  0  0  0  0  0
   -0.2600    6.4043   36.5736 O   0  0  0  0  0  0  0  0  0  0  0  0
   -0.5939    4.1569   37.4023 C   0  0  2  0  0  0  0  0  0  0  0  0
   -1.2099    4.6910   38.5699 O   0  0  0  0  0  0  0  0  0  0  0  0
    0.0920    2.7976   37.6641 C   0  0  2  0  0  0  0  0  0  0  0  0
    0.5561    2.3098   36.3875 O   0  0  0  0  0  0  0  0  0  0  0  0
   -0.8278    1.7366   38.2661 C   0  0  0  0  0  0  0  0  0  0  0  0
   -1.2995    2.1309   39.5477 O   0  0  0  0  0  0  0  0  0  0  0  0
    3.1614   -1.1621   36.3062 C   0  0  1  0  0  0  0  0  0  0  0  0
    3.6181   -2.5636   36.2759 N   0  3  0  0  0  0  0  0  0  0  0  0
    3.4827   -0.4656   37.6631 C   0  0  2  0  0  0  0  0  0  0  0  0
    2.8601   -1.1624   38.7398 O   0  0  0  0  0  0  0  0  0  0  0  0
    2.9799    1.0077   37.6752 C   0  0  1  0  0  0  0  0  0  0  0  0
    3.4565    1.6528   38.8934 O   0  0  0  0  0  0  0  0  0  0  0  0
    3.4826    1.8107   36.4312 C   0  0  1  0  0  0  0  0  0  0  0  0
    3.2030    1.0758   35.0813 C   0  0  1  0  0  0  0  0  0  0  0  0
    3.7771    1.8105   33.9323 N   0  3  0  0  0  0  0  0  0  0  0  0
    3.7722   -0.3662   35.1158 C   0  0  0  0  0  0  0  0  0  0  0  0
    2.5435    1.8545   40.0193 C   0  0  1  0  0  0  0  0  0  0  0  0
    2.1762    0.4798   40.6088 C   0  0  2  0  0  0  0  0  0  0  0  0
    0.9164    0.5275   41.2726 O   0  0  0  0  0  0  0  0  0  0  0  0
    3.3460    0.3187   41.5915 C   0  0  1  0  0  0  0  0  0  0  0  0
    3.4475    1.7049   42.2060 C   0  0  2  0  0  0  0  0  0  0  0  0
    3.2129    2.5471   41.0878 O   0  0  0  0  0  0  0  0  0  0  0  0
    4.8001    2.0371   42.8492 C   0  0  0  0  0  0  0  0  0  0  0  0
    5.8324    1.9672   41.8768 O   0  0  0  0  0  0  0  0  0  0  0  0
    0.7385   -0.6589   46.1991 C   0  0  1  0  0  0  0  0  0  0  0  0
    1.5605   -1.5712   46.9249 O   0  0  0  0  0  0  0  0  0  0  0  0
    1.5473    0.6328   45.8939 C   0  0  2  0  0  0  0  0  0  0  0  0
    0.6346    1.6603   45.5147 O   0  0  0  0  0  0  0  0  0  0  0  0
    2.6379    0.4932   44.7818 C   0  0  1  0  0  0  0  0  0  0  0  0
    3.8969   -0.0278   45.3585 N   0  3  0  0  0  0  0  0  0  0  0  0
    2.1339   -0.3494   43.5806 C   0  0  1  0  0  0  0  0  0  0  0  0
    3.1670   -0.6899   42.6236 O   0  0  0  0  0  0  0  0  0  0  0  0
    0.2614   -1.3034   44.8734 C   0  0  1  0  0  0  0  0  0  0  0  0
    1.4372   -1.5507   44.0546 O   0  0  0  0  0  0  0  0  0  0  0  0
   -0.5566   -2.5939   45.0670 C   0  0  0  0  0  0  0  0  0  0  0  0
   -1.1408   -3.0931   43.8068 N   0  3  0  0  0  0  0  0  0  0  0  0
  1  2  1  1  0  0  0
  1  3  1  0  0  0  0
  1 10  1  0  0  0  0
  3  4  1  1  0  0  0
  3  5  1  0  0  0  0
  5  6  1  6  0  0  0
  5  7  1  0  0  0  0
  7  8  1  1  0  0  0
  7  9  1  0  0  0  0
  9 10  1  0  0  0  0
  9 11  1  6  0  0  0
 11 12  1  0  0  0  0
 13 14  1  1  0  0  0
 13 15  1  0  0  0  0
 13 22  1  0  0  0  0
 15 16  1  1  0  0  0
 15 17  1  0  0  0  0
 17 18  1  1  0  0  0
 17 19  1  0  0  0  0
 19  2  1  6  0  0  0
 19 20  1  0  0  0  0
 20 21  1  6  0  0  0
 20 22  1  0  0  0  0
 23 18  1  6  0  0  0
 23 24  1  0  0  0  0
 23 28  1  0  0  0  0
 24 25  1  1  0  0  0
 24 26  1  0  0  0  0
 26 27  1  0  0  0  0
 26 38  1  1  0  0  0
 27 28  1  0  0  0  0
 27 29  1  6  0  0  0
 29 30  1  0  0  0  0
 31 32  1  6  0  0  0
 31 33  1  0  0  0  0
 31 39  1  0  0  0  0
 33 34  1  6  0  0  0
 33 35  1  0  0  0  0
 35 36  1  1  0  0  0
 35 37  1  0  0  0  0
 37 38  1  6  0  0  0
 37 40  1  0  0  0  0
 39 40  1  0  0  0  0
 39 41  1  1  0  0  0
 41 42  1  0  0  0  0
M  CHG  5   4   1  14   1  21   1  36   1  42   1
M  END
>  <CHROM.1>
-169.79469115,-88.32825061,-81.44668779,57.58559646,-53.12939781,-62.88484056
153.20318147,75.28069051,-46.17536139,-102.54223336,67.58202255,-41.20506067
170.89338646,-67.62199237,60.42530317,-63.29903195,55.27341344,60.64408640
97.26959965,-88.12336038,172.77814372,-143.43619626,1.91324676,1.18396482
40.02804718,1.53182526,0.86273555,-1.15688838

>  <Name>
1pbr

>  <RI>
0

>  <Rbt.Current_Directory>
/home/itssahil/PROJECTS/Mol_Feturizer/New_Systems/rnas/1pbr

>  <Rbt.Executable>
rbdock ($Id: //depot/dev/client3/rdock/2013.1/src/exe/rbdock.cxx#4 $)

>  <Rbt.Library>
libRbt.so (2013.1, Build901 2013/11/27)

>  <Rbt.Parameter_File>
/export/apps/rDock/src/rDock_2013.1_src/data/scripts/dock_solv.prm

>  <Rbt.Receptor>
prm/blind_docking_100.prm

>  <SCORE>
-18.9268

>  <SCORE.INTER>
-25.81

>  <SCORE.INTER.CONST>
1

>  <SCORE.INTER.POLAR>
-7.72182

>  <SCORE.INTER.ROT>
9

>  <SCORE.INTER.SOLV>
39.0349

>  <SCORE.INTER.VDW>
-14.0789

>  <SCORE.INTER.norm>
-0.614523

>  <SCORE.INTRA>
5.75444

>  <SCORE.INTRA.DIHEDRAL>
-3.44472

>  <SCORE.INTRA.DIHEDRAL.0>
29.7866

>  <SCORE.INTRA.POLAR>
0.984091

>  <SCORE.INTRA.POLAR.0>
-0.984091

>  <SCORE.INTRA.REPUL>
-0.118866

>  <SCORE.INTRA.REPUL.0>
0.274115

>  <SCORE.INTRA.SOLV>
0.874269

>  <SCORE.INTRA.SOLV.lig_0>
-152.978

>  <SCORE.INTRA.VDW>
4.28809

>  <SCORE.INTRA.VDW.0>
-6.10719

>  <SCORE.INTRA.norm>
0.137011

>  <SCORE.RESTR>
1.12877

>  <SCORE.RESTR.CAVITY>
1.12877

>  <SCORE.RESTR.norm>
0.0268755

>  <SCORE.SYSTEM>
0

>  <SCORE.SYSTEM.CONST>
0

>  <SCORE.SYSTEM.DIHEDRAL>
0

>  <SCORE.SYSTEM.SOLV>
0

>  <SCORE.SYSTEM.norm>
0

>  <SCORE.heavy>
42

>  <SCORE.norm>
-0.450637

>  <RMSD>
8.432

$$$$
1pbr
 OpenBabel11021811403D
libRbt.so/2013.1/901 2013/11/27
 42 45  0  0  0  0  0  0  0  0999 V2000
    5.1350   -1.6965   39.2143 C   0  0  2  0  0  0  0  0  0  0  0  0
    5.1450   -1.0190   37.9320 O   0  0  0  0  0  0  0  0  0  0  0  0
    6.6020   -1.9212   39.7395 C   0  0  2  0  0  0  0  0  0  0  0  0
    7.5159   -0.7688   39.5270 N   0  3  0  0  0  0  0  0  0  0  0  0
    7.2689   -3.1315   39.0591 C   0  0  1  0  0  0  0  0  0  0  0  0
    8.4804   -3.4820   39.7246 O   0  0  0  0  0  0  0  0  0  0  0  0
    6.3260   -4.3441   39.0427 C   0  0  2  0  0  0  0  0  0  0  0  0
    6.9748   -5.4648   38.4499 O   0  0  0  0  0  0  0  0  0  0  0  0
    4.9945   -3.9926   38.3428 C   0  0  2  0  0  0  0  0  0  0  0  0
    4.3822   -2.9368   39.1133 O   0  0  0  0  0  0  0  0  0  0  0  0
    4.0025   -5.1518   38.2634 C   0  0  0  0  0  0  0  0  0  0  0  0
    2.8066   -4.7619   37.6014 O   0  0  0  0  0  0  0  0  0  0  0  0
    2.0801    0.7606   35.5557 C   0  0  1  0  0  0  0  0  0  0  0  0
    0.8877    1.0633   34.7431 N   0  3  0  0  0  0  0  0  0  0  0  0
    1.7201    0.4537   37.0409 C   0  0  2  0  0  0  0  0  0  0  0  0
    1.0476    1.5644   37.6297 O   0  0  0  0  0  0  0  0  0  0  0  0
    2.9954    0.1501   37.8805 C   0  0  1  0  0  0  0  0  0  0  0  0
    2.5848   -0.2931   39.2079 O   0  0  0  0  0  0  0  0  0  0  0  0
    3.8872   -0.9503   37.2180 C   0  0  1  0  0  0  0  0  0  0  0  0
    4.1950   -0.6578   35.7146 C   0  0  1  0  0  0  0  0  0  0  0  0
    4.9550   -1.7628   35.0894 N   0  3  0  0  0  0  0  0  0  0  0  0
    2.8827   -0.4148   34.9251 C   0  0  0  0  0  0  0  0  0  0  0  0
    1.8009    0.5964   40.0659 C   0  0  1  0  0  0  0  0  0  0  0  0
    0.8554   -0.2588   40.9300 C   0  0  2  0  0  0  0  0  0  0  0  0
   -0.2885    0.4897   41.3317 O   0  0  0  0  0  0  0  0  0  0  0  0
    1.8011   -0.5516   42.1046 C   0  0  1  0  0  0  0  0  0  0  0  0
    2.4620    0.7976   42.3339 C   0  0  2  0  0  0  0  0  0  0  0  0
    2.6578    1.2653   41.0081 O   0  0  0  0  0  0  0  0  0  0  0  0
    3.7984    0.7512   43.0858 C   0  0  0  0  0  0  0  0  0  0  0  0
    4.4866    1.9838   42.9329 O   0  0  0  0  0  0  0  0  0  0  0  0
    0.5644   -5.1672   44.4076 C   0  0  1  0  0  0  0  0  0  0  0  0
    0.9991   -5.0141   45.7576 O   0  0  0  0  0  0  0  0  0  0  0  0
   -0.7142   -4.3139   44.1780 C   0  0  2  0  0  0  0  0  0  0  0  0
   -1.3429   -4.7533   42.9763 O   0  0  0  0  0  0  0  0  0  0  0  0
   -0.4822   -2.7699   44.0889 C   0  0  1  0  0  0  0  0  0  0  0  0
   -0.4600   -2.1740   45.4429 N   0  3  0  0  0  0  0  0  0  0  0  0
    0.7819   -2.4224   43.2592 C   0  0  1  0  0  0  0  0  0  0  0  0
    1.1642   -1.0264   43.3226 O   0  0  0  0  0  0  0  0  0  0  0  0
    1.6782   -4.7148   43.4301 C   0  0  1  0  0  0  0  0  0  0  0  0
    1.8996   -3.2933   43.6406 O   0  0  0  0  0  0  0  0  0  0  0  0
    2.9925   -5.5046   43.5746 C   0  0  0  0  0  0  0  0  0  0  0  0
    4.0134   -5.0977   42.5893 N   0  3  0  0  0  0  0  0  0  0  0  0
  1  2  1  6  0  0  0
  1  3  1  0  0  0  0
  1 10  1  0  0  0  0
  3  4  1  6  0  0  0
  3  5  1  0  0  0  0
  5  6  1  1  0  0  0
  5  7  1  0  0  0  0
  7  8  1  6  0  0  0
  7  9  1  0  0  0  0
  9 10  1  0  0  0  0
  9 11  1  1  0  0  0
 11 12  1  0  0  0  0
 13 14  1  6  0  0  0
 13 15  1  0  0  0  0
 13 22  1  0  0  0  0
 15 16  1  1  0  0  0
 15 17  1  0  0  0  0
 17 18  1  1  0  0  0
 17 19  1  0  0  0  0
 19  2  1  1  0  0  0
 19 20  1  0  0  0  0
 20 21  1  6  0  0  0
 20 22  1  0  0  0  0
 23 18  1  6  0  0  0
 23 24  1  0  0  0  0
 23 28  1  0  0  0  0
 24 25  1  1  0  0  0
 24 26  1  0  0  0  0
 26 27  1  0  0  0  0
 26 38  1  1  0  0  0
 27 28  1  0  0  0  0
 27 29  1  6  0  0  0
 29 30  1  0  0  0  0
 31 32  1  1  0  0  0
 31 33  1  0  0  0  0
 31 39  1  0  0  0  0
 33 34  1  6  0  0  0
 33 35  1  0  0  0  0
 35 36  1  1  0  0  0
 35 37  1  0  0  0  0
 37 38  1  1  0  0  0
 37 40  1  0  0  0  0
 39 40  1  0  0  0  0
 39 41  1  1  0  0  0
 41 42  1  0  0  0  0
M  CHG  5   4   1  14   1  21   1  36   1  42   1
M  END
>  <CHROM.1>
169.62135560,76.70014458,-95.71114266,-62.60309798,177.92783208,-179.61043209
-56.46346989,-90.04595668,73.62703417,-60.76930652,147.51544013,-161.36358934
-47.45403116,77.26398485,164.51374026,175.03022926,62.66818122,174.12657743
64.40128075,-148.72795545,177.24259130,60.70278641,2.99806686,-1.90546977
40.28599497,-0.97224156,-0.66345473,2.26369806

>  <Name>
1pbr

>  <RI>
0

>  <Rbt.Current_Directory>
/home/itssahil/PROJECTS/Mol_Feturizer/New_Systems/rnas/1pbr

>  <Rbt.Executable>
rbdock ($Id: //depot/dev/client3/rdock/2013.1/src/exe/rbdock.cxx#4 $)

>  <Rbt.Library>
libRbt.so (2013.1, Build901 2013/11/27)

>  <Rbt.Parameter_File>
/export/apps/rDock/src/rDock_2013.1_src/data/scripts/dock_solv.prm

>  <Rbt.Receptor>
prm/pocket_docking_4.prm

>  <SCORE>
-42.332

>  <SCORE.INTER>
-38.817

>  <SCORE.INTER.CONST>
1

>  <SCORE.INTER.POLAR>
-5.30948

>  <SCORE.INTER.ROT>
9

>  <SCORE.INTER.SOLV>
31.47

>  <SCORE.INTER.VDW>
-28.2697

>  <SCORE.INTER.norm>
-0.924215

>  <SCORE.INTRA>
-3.51494

>  <SCORE.INTRA.DIHEDRAL>
-9.92122

>  <SCORE.INTRA.DIHEDRAL.0>
29.7866

>  <SCORE.INTRA.POLAR>
0.954502

>  <SCORE.INTRA.POLAR.0>
-0.984091

>  <SCORE.INTRA.REPUL>
-0.274115

>  <SCORE.INTRA.REPUL.0>
0.274115

>  <SCORE.INTRA.SOLV>
-4.35327

>  <SCORE.INTRA.SOLV.lig_0>
-152.978

>  <SCORE.INTRA.VDW>
1.74757

>  <SCORE.INTRA.VDW.0>
-6.10719

>  <SCORE.INTRA.norm>
-0.083689

>  <SCORE.RESTR>
0

>  <SCORE.RESTR.CAVITY>
0

>  <SCORE.RESTR.norm>
0

>  <SCORE.SYSTEM>
0

>  <SCORE.SYSTEM.CONST>
0

>  <SCORE.SYSTEM.DIHEDRAL>
0

>  <SCORE.SYSTEM.SOLV>
0

>  <SCORE.SYSTEM.norm>
0

>  <SCORE.heavy>
42

>  <SCORE.norm>
-1.0079

>  <RMSD>
8.438

$$$$
1pbr
 OpenBabel11021811403D
libRbt.so/2013.1/901 2013/11/27
 42 45  0  0  0  0  0  0  0  0999 V2000
    5.0695   -1.2777   39.8751 C   0  0  2  0  0  0  0  0  0  0  0  0
    5.0890   -0.2940   38.8097 O   0  0  0  0  0  0  0  0  0  0  0  0
    6.4002   -1.2197   40.7143 C   0  0  2  0  0  0  0  0  0  0  0  0
    6.8926    0.1541   40.9946 N   0  3  0  0  0  0  0  0  0  0  0  0
    7.5522   -1.9537   40.0023 C   0  0  1  0  0  0  0  0  0  0  0  0
    8.6637   -2.1221   40.8796 O   0  0  0  0  0  0  0  0  0  0  0  0
    7.0963   -3.3268   39.4864 C   0  0  2  0  0  0  0  0  0  0  0  0
    8.1848   -4.0080   38.8704 O   0  0  0  0  0  0  0  0  0  0  0  0
    5.8801   -3.1816   38.5449 C   0  0  2  0  0  0  0  0  0  0  0  0
    4.8140   -2.5994   39.3245 O   0  0  0  0  0  0  0  0  0  0  0  0
    5.3727   -4.5018   37.9674 C   0  0  0  0  0  0  0  0  0  0  0  0
    4.1913   -4.3085   37.2009 O   0  0  0  0  0  0  0  0  0  0  0  0
    1.9344    1.4344   36.5143 C   0  0  1  0  0  0  0  0  0  0  0  0
    0.8045    1.7135   35.6091 N   0  3  0  0  0  0  0  0  0  0  0  0
    1.5108    0.5652   37.7368 C   0  0  2  0  0  0  0  0  0  0  0  0
    0.4901    1.2221   38.4847 O   0  0  0  0  0  0  0  0  0  0  0  0
    2.7168    0.2951   38.6834 C   0  0  1  0  0  0  0  0  0  0  0  0
    2.3012   -0.6561   39.7079 O   0  0  0  0  0  0  0  0  0  0  0  0
    3.9518   -0.2769   37.9135 C   0  0  1  0  0  0  0  0  0  0  0  0
    4.3319    0.5734   36.6592 C   0  0  1  0  0  0  0  0  0  0  0  0
    5.4384   -0.0458   35.8966 N   0  3  0  0  0  0  0  0  0  0  0  0
    3.1020    0.7626   35.7339 C   0  0  0  0  0  0  0  0  0  0  0  0
    1.3855   -0.2346   40.7688 C   0  0  1  0  0  0  0  0  0  0  0  0
    1.1649   -1.4183   41.7291 C   0  0  2  0  0  0  0  0  0  0  0  0
   -0.0857   -1.3053   42.4024 O   0  0  0  0  0  0  0  0  0  0  0  0
    2.3560   -1.1891   42.6718 C   0  0  1  0  0  0  0  0  0  0  0  0
    2.3247    0.3167   42.8748 C   0  0  2  0  0  0  0  0  0  0  0  0
    1.9939    0.7879   41.5774 O   0  0  0  0  0  0  0  0  0  0  0  0
    3.6443    0.9398   43.3480 C   0  0  0  0  0  0  0  0  0  0  0  0
    4.4655    1.2486   42.2315 O   0  0  0  0  0  0  0  0  0  0  0  0
    5.6802   -3.0270   46.3746 C   0  0  1  0  0  0  0  0  0  0  0  0
    5.3623   -4.4174   46.3976 O   0  0  0  0  0  0  0  0  0  0  0  0
    5.9833   -2.5918   44.9137 C   0  0  2  0  0  0  0  0  0  0  0  0
    6.6500   -1.3319   44.9449 O   0  0  0  0  0  0  0  0  0  0  0  0
    4.7368   -2.4781   43.9762 C   0  0  1  0  0  0  0  0  0  0  0  0
    4.4058   -3.7992   43.3981 N   0  3  0  0  0  0  0  0  0  0  0  0
    3.5309   -1.8184   44.6955 C   0  0  1  0  0  0  0  0  0  0  0  0
    2.2911   -1.8821   43.9486 O   0  0  0  0  0  0  0  0  0  0  0  0
    4.4978   -2.1964   46.9338 C   0  0  1  0  0  0  0  0  0  0  0  0
    3.3661   -2.3824   46.0402 O   0  0  0  0  0  0  0  0  0  0  0  0
    4.1189   -2.5499   48.3841 C   0  0  0  0  0  0  0  0  0  0  0  0
    5.1609   -2.1644   49.3557 N   0  3  0  0  0  0  0  0  0  0  0  0
  1  2  1  6  0  0  0
  1  3  1  0  0  0  0
  1 10  1  0  0  0  0
  3  4  1  6  0  0  0
  3  5  1  0  0  0  0
  5  6  1  1  0  0  0
  5  7  1  0  0  0  0
  7  8  1  6  0  0  0
  7  9  1  0  0  0  0
  9 10  1  0  0  0  0
  9 11  1  1  0  0  0
 11 12  1  0  0  0  0
 13 14  1  6  0  0  0
 13 15  1  0  0  0  0
 13 22  1  0  0  0  0
 15 16  1  1  0  0  0
 15 17  1  0  0  0  0
 17 18  1  1  0  0  0
 17 19  1  0  0  0  0
 19  2  1  1  0  0  0
 19 20  1  0  0  0  0
 20 21  1  6  0  0  0
 20 22  1  0  0  0  0
 23 18  1  6  0  0  0
 23 24  1  0  0  0  0
 23 28  1  0  0  0  0
 24 25  1  1  0  0  0
 24 26  1  0  0  0  0
 26 27  1  0  0  0  0
 26 38  1  1  0  0  0
 27 28  1  0  0  0  0
 27 29  1  6  0  0  0
 29 30  1  0  0  0  0
 31 32  1  6  0  0  0
 31 33  1  0  0  0  0
 31 39  1  0  0  0  0
 33 34  1  1  0  0  0
 33 35  1  0  0  0  0
 35 36  1  1  0  0  0
 35 37  1  0  0  0  0
 37 38  1  6  0  0  0
 37 40  1  0  0  0  0
 39 40  1  0  0  0  0
 39 41  1  1  0  0  0
 41 42  1  0  0  0  0
M  CHG  5   4   1  14   1  21   1  36   1  42   1
M  END
>  <CHROM.1>
177.11794318,71.44856537,-172.49687935,61.42783395,177.08831262,175.23438011
164.75422902,60.68354235,159.35501548,-72.00220589,-177.91190739,164.78058538
-60.70101221,169.97807376,86.78690661,159.65706485,64.20195525,176.21858119
-174.15715520,-61.58217416,67.89914568,-177.51135250,4.18142430,-1.31234675
41.26295938,-1.75042770,-0.53050083,1.72886569

>  <Name>
1pbr

>  <RI>
0

>  <Rbt.Current_Directory>
/home/itssahil/PROJECTS/Mol_Feturizer/New_Systems/rnas/1pbr

>  <Rbt.Executable>
rbdock ($Id: //depot/dev/client3/rdock/2013.1/src/exe/rbdock.cxx#4 $)

>  <Rbt.Library>
libRbt.so (2013.1, Build901 2013/11/27)

>  <Rbt.Parameter_File>
/export/apps/rDock/src/rDock_2013.1_src/data/scripts/dock_solv.prm

>  <Rbt.Receptor>
prm/pocket_docking_5.prm

>  <SCORE>
-35.8369

>  <SCORE.INTER>
-24.9107

>  <SCORE.INTER.CONST>
1

>  <SCORE.INTER.POLAR>
-4.09402

>  <SCORE.INTER.ROT>
9

>  <SCORE.INTER.SOLV>
20.4977

>  <SCORE.INTER.VDW>
-19.393

>  <SCORE.INTER.norm>
-0.593113

>  <SCORE.INTRA>
-10.9559

>  <SCORE.INTRA.DIHEDRAL>
-18.4696

>  <SCORE.INTRA.DIHEDRAL.0>
29.7866

>  <SCORE.INTRA.POLAR>
-0.185278

>  <SCORE.INTRA.POLAR.0>
-0.984091

>  <SCORE.INTRA.REPUL>
-0.274115

>  <SCORE.INTRA.REPUL.0>
0.274115

>  <SCORE.INTRA.SOLV>
-0.50984

>  <SCORE.INTRA.SOLV.lig_0>
-152.978

>  <SCORE.INTRA.VDW>
0.534353

>  <SCORE.INTRA.VDW.0>
-6.10719

>  <SCORE.INTRA.norm>
-0.260855

>  <SCORE.RESTR>
0.029712

>  <SCORE.RESTR.CAVITY>
0.029712

>  <SCORE.RESTR.norm>
0.000707428

>  <SCORE.SYSTEM>
0

>  <SCORE.SYSTEM.CONST>
0

>  <SCORE.SYSTEM.DIHEDRAL>
0

>  <SCORE.SYSTEM.SOLV>
0

>  <SCORE.SYSTEM.norm>
0

>  <SCORE.heavy>
42

>  <SCORE.norm>
-0.853261

>  <RMSD>
8.441

$$$$
1pbr
 OpenBabel11021811403D
libRbt.so/2013.1/901 2013/11/27
 42 45  0  0  0  0  0  0  0  0999 V2000
    5.6016   -0.7145   41.1149 C   0  0  2  0  0  0  0  0  0  0  0  0
    5.0787    0.5350   40.5968 O   0  0  0  0  0  0  0  0  0  0  0  0
    7.1285   -0.5765   41.4724 C   0  0  2  0  0  0  0  0  0  0  0  0
    7.4926    0.7017   42.1372 N   0  3  0  0  0  0  0  0  0  0  0  0
    8.0162   -0.6780   40.2177 C   0  0  1  0  0  0  0  0  0  0  0  0
    9.3887   -0.8172   40.5787 O   0  0  0  0  0  0  0  0  0  0  0  0
    7.5963   -1.8661   39.3392 C   0  0  2  0  0  0  0  0  0  0  0  0
    8.4548   -1.9701   38.2077 O   0  0  0  0  0  0  0  0  0  0  0  0
    6.1070   -1.7551   38.9439 C   0  0  2  0  0  0  0  0  0  0  0  0
    5.3448   -1.7891   40.1691 O   0  0  0  0  0  0  0  0  0  0  0  0
    5.6093   -2.8892   38.0494 C   0  0  0  0  0  0  0  0  0  0  0  0
    6.0704   -2.7322   36.7140 O   0  0  0  0  0  0  0  0  0  0  0  0
    1.2881    1.9445   39.2359 C   0  0  1  0  0  0  0  0  0  0  0  0
   -0.0239    2.1397   38.5920 N   0  3  0  0  0  0  0  0  0  0  0  0
    1.2670    0.7873   40.2799 C   0  0  2  0  0  0  0  0  0  0  0  0
    0.3043    1.0525   41.2975 O   0  0  0  0  0  0  0  0  0  0  0  0
    2.6587    0.6093   40.9546 C   0  0  1  0  0  0  0  0  0  0  0  0
    2.6229   -0.5869   41.7882 O   0  0  0  0  0  0  0  0  0  0  0  0
    3.8088    0.4761   39.9036 C   0  0  1  0  0  0  0  0  0  0  0  0
    3.7852    1.6118   38.8312 C   0  0  1  0  0  0  0  0  0  0  0  0
    4.8212    1.4041   37.7953 N   0  3  0  0  0  0  0  0  0  0  0  0
    2.3892    1.7032   38.1623 C   0  0  0  0  0  0  0  0  0  0  0  0
    2.2067   -0.4906   43.1880 C   0  0  1  0  0  0  0  0  0  0  0  0
    0.7025   -0.8090   43.2783 C   0  0  2  0  0  0  0  0  0  0  0  0
    0.1178   -0.1978   44.4249 O   0  0  0  0  0  0  0  0  0  0  0  0
    0.7872   -2.3369   43.4129 C   0  0  1  0  0  0  0  0  0  0  0  0
    1.9344   -2.5136   44.3939 C   0  0  2  0  0  0  0  0  0  0  0  0
    2.8478   -1.5126   43.9716 O   0  0  0  0  0  0  0  0  0  0  0  0
    2.6066   -3.8925   44.3717 C   0  0  0  0  0  0  0  0  0  0  0  0
    3.7914   -3.8445   43.5904 O   0  0  0  0  0  0  0  0  0  0  0  0
   -0.3193   -6.9553   42.1766 C   0  0  1  0  0  0  0  0  0  0  0  0
    0.8135   -7.3970   42.9224 O   0  0  0  0  0  0  0  0  0  0  0  0
   -1.4899   -6.6470   43.1515 C   0  0  2  0  0  0  0  0  0  0  0  0
   -2.6990   -6.5738   42.3997 O   0  0  0  0  0  0  0  0  0  0  0  0
   -1.3372   -5.3342   43.9876 C   0  0  1  0  0  0  0  0  0  0  0  0
   -0.5355   -5.5898   45.2046 N   0  3  0  0  0  0  0  0  0  0  0  0
   -0.7764   -4.1669   43.1334 C   0  0  1  0  0  0  0  0  0  0  0  0
   -0.4144   -2.9936   43.9024 O   0  0  0  0  0  0  0  0  0  0  0  0
    0.0345   -5.6840   41.3647 C   0  0  1  0  0  0  0  0  0  0  0  0
    0.3495   -4.6280   42.3130 O   0  0  0  0  0  0  0  0  0  0  0  0
    1.1858   -5.8856   40.3618 C   0  0  0  0  0  0  0  0  0  0  0  0
    0.7198   -6.3759   39.0499 N   0  3  0  0  0  0  0  0  0  0  0  0
  1  2  1  6  0  0  0
  1  3  1  0  0  0  0
  1 10  1  0  0  0  0
  3  4  1  6  0  0  0
  3  5  1  0  0  0  0
  5  6  1  1  0  0  0
  5  7  1  0  0  0  0
  7  8  1  6  0  0  0
  7  9  1  0  0  0  0
  9 10  1  0  0  0  0
  9 11  1  6  0  0  0
 11 12  1  0  0  0  0
 13 14  1  6  0  0  0
 13 15  1  0  0  0  0
 13 22  1  0  0  0  0
 15 16  1  1  0  0  0
 15 17  1  0  0  0  0
 17 18  1  6  0  0  0
 17 19  1  0  0  0  0
 19  2  1  1  0  0  0
 19 20  1  0  0  0  0
 20 21  1  6  0  0  0
 20 22  1  0  0  0  0
 23 18  1  6  0  0  0
 23 24  1  0  0  0  0
 23 28  1  0  0  0  0
 24 25  1  1  0  0  0
 24 26  1  0  0  0  0
 26 27  1  0  0  0  0
 26 38  1  1  0  0  0
 27 28  1  0  0  0  0
 27 29  1  6  0  0  0
 29 30  1  0  0  0  0
 31 32  1  1  0  0  0
 31 33  1  0  0  0  0
 31 39  1  0  0  0  0
 33 34  1  6  0  0  0
 33 35  1  0  0  0  0
 35 36  1  1  0  0  0
 35 37  1  0  0  0  0
 37 38  1  1  0  0  0
 37 40  1  0  0  0  0
 39 40  1  0  0  0  0
 39 41  1  6  0  0  0
 41 42  1  0  0  0  0
M  CHG  5   4   1  14   1  21   1  36   1  42   1
M  END
>  <CHROM.1>
164.20925797,86.86845059,177.84397466,71.39000782,59.65761874,-75.47187116
64.95632388,66.66766439,-64.49372347,-89.52013396,94.68749979,-175.39835893
-179.02835773,133.92229254,98.42585962,-178.21799491,61.49738225,64.35385247
-58.31267474,142.20875622,87.61393158,-24.18795277,2.76639865,-2.09919091
41.29970066,-0.66750635,-0.38771136,2.95782772

>  <Name>
1pbr

>  <RI>
0

>  <Rbt.Current_Directory>
/home/itssahil/PROJECTS/Mol_Feturizer/New_Systems/rnas/1pbr

>  <Rbt.Executable>
rbdock ($Id: //depot/dev/client3/rdock/2013.1/src/exe/rbdock.cxx#4 $)

>  <Rbt.Library>
libRbt.so (2013.1, Build901 2013/11/27)

>  <Rbt.Parameter_File>
/export/apps/rDock/src/rDock_2013.1_src/data/scripts/dock_solv.prm

>  <Rbt.Receptor>
prm/pocket_docking_8.prm

>  <SCORE>
-25.6812

>  <SCORE.INTER>
-28.7005

>  <SCORE.INTER.CONST>
1

>  <SCORE.INTER.POLAR>
-4.64229

>  <SCORE.INTER.ROT>
9

>  <SCORE.INTER.SOLV>
28.8943

>  <SCORE.INTER.VDW>
-22.8908

>  <SCORE.INTER.norm>
-0.683346

>  <SCORE.INTRA>
3.0193

>  <SCORE.INTRA.DIHEDRAL>
4.7388

>  <SCORE.INTRA.DIHEDRAL.0>
29.7866

>  <SCORE.INTRA.POLAR>
0.498254

>  <SCORE.INTRA.POLAR.0>
-0.984091

>  <SCORE.INTRA.REPUL>
-0.148947

>  <SCORE.INTRA.REPUL.0>
0.274115

>  <SCORE.INTRA.SOLV>
-2.03792

>  <SCORE.INTRA.SOLV.lig_0>
-152.978

>  <SCORE.INTRA.VDW>
0.719529

>  <SCORE.INTRA.VDW.0>
-6.10719

>  <SCORE.INTRA.norm>
0.0718881

>  <SCORE.RESTR>
0

>  <SCORE.RESTR.CAVITY>
0

>  <SCORE.RESTR.norm>
0

>  <SCORE.SYSTEM>
0

>  <SCORE.SYSTEM.CONST>
0

>  <SCORE.SYSTEM.DIHEDRAL>
0

>  <SCORE.SYSTEM.SOLV>
0

>  <SCORE.SYSTEM.norm>
0

>  <SCORE.heavy>
42

>  <SCORE.norm>
-0.611458

>  <RMSD>
8.442

$$$$
1pbr
 OpenBabel11021811403D
libRbt.so/2013.1/901 2013/11/27
 42 45  0  0  0  0  0  0  0  0999 V2000
    5.1565   -1.8248   38.5898 C   0  0  2  0  0  0  0  0  0  0  0  0
    5.1819   -1.2698   37.2502 O   0  0  0  0  0  0  0  0  0  0  0  0
    6.6165   -1.9870   39.1558 C   0  0  2  0  0  0  0  0  0  0  0  0
    7.5255   -0.8517   38.8503 N   0  3  0  0  0  0  0  0  0  0  0  0
    7.3027   -3.2498   38.6015 C   0  0  1  0  0  0  0  0  0  0  0  0
    8.5059   -3.5263   39.3149 O   0  0  0  0  0  0  0  0  0  0  0  0
    6.3688   -4.4666   38.6843 C   0  0  2  0  0  0  0  0  0  0  0  0
    7.0347   -5.6322   38.2085 O   0  0  0  0  0  0  0  0  0  0  0  0
    5.0460   -4.1933   37.9346 C   0  0  2  0  0  0  0  0  0  0  0  0
    4.4142   -3.0755   38.5938 O   0  0  0  0  0  0  0  0  0  0  0  0
    4.0637   -5.3633   37.9489 C   0  0  0  0  0  0  0  0  0  0  0  0
    4.6110   -6.4872   38.6255 O   0  0  0  0  0  0  0  0  0  0  0  0
    3.3324    2.2411   35.6815 C   0  0  1  0  0  0  0  0  0  0  0  0
    2.4068    3.2802   35.1942 N   0  3  0  0  0  0  0  0  0  0  0  0
    3.2146    2.0198   37.2200 C   0  0  2  0  0  0  0  0  0  0  0  0
    3.4929    3.2305   37.9196 O   0  0  0  0  0  0  0  0  0  0  0  0
    4.2097    0.9283   37.7119 C   0  0  1  0  0  0  0  0  0  0  0  0
    3.9356    0.6468   39.1164 O   0  0  0  0  0  0  0  0  0  0  0  0
    4.0895   -0.3928   36.8840 C   0  0  1  0  0  0  0  0  0  0  0  0
    4.1543   -0.1504   35.3420 C   0  0  1  0  0  0  0  0  0  0  0  0
    3.9385   -1.4031   34.5845 N   0  3  0  0  0  0  0  0  0  0  0  0
    3.1062    0.9078   34.9104 C   0  0  0  0  0  0  0  0  0  0  0  0
    4.6974    1.3315   40.1617 C   0  0  1  0  0  0  0  0  0  0  0  0
    3.7613    1.6089   41.3528 C   0  0  2  0  0  0  0  0  0  0  0  0
    4.2183    2.7229   42.1145 O   0  0  0  0  0  0  0  0  0  0  0  0
    3.9295    0.2806   42.1060 C   0  0  1  0  0  0  0  0  0  0  0  0
    5.4273    0.0411   42.0119 C   0  0  2  0  0  0  0  0  0  0  0  0
    5.7164    0.4629   40.6879 O   0  0  0  0  0  0  0  0  0  0  0  0
    5.8705   -1.4132   42.2170 C   0  0  0  0  0  0  0  0  0  0  0  0
    7.2855   -1.4823   42.3144 O   0  0  0  0  0  0  0  0  0  0  0  0
    0.1612   -2.2479   44.5697 C   0  0  1  0  0  0  0  0  0  0  0  0
    0.9495   -3.2204   45.2535 O   0  0  0  0  0  0  0  0  0  0  0  0
    0.2690   -0.8849   45.3088 C   0  0  2  0  0  0  0  0  0  0  0  0
   -0.7865   -0.0395   44.8574 O   0  0  0  0  0  0  0  0  0  0  0  0
    1.6279   -0.1317   45.1304 C   0  0  1  0  0  0  0  0  0  0  0  0
    2.6194   -0.6195   46.1143 N   0  3  0  0  0  0  0  0  0  0  0  0
    2.1439   -0.2088   43.6694 C   0  0  1  0  0  0  0  0  0  0  0  0
    3.4949    0.2842   43.4937 O   0  0  0  0  0  0  0  0  0  0  0  0
    0.6507   -2.0910   43.1080 C   0  0  1  0  0  0  0  0  0  0  0  0
    2.0092   -1.5747   43.1504 O   0  0  0  0  0  0  0  0  0  0  0  0
    0.5804   -3.3906   42.2845 C   0  0  0  0  0  0  0  0  0  0  0  0
   -0.7591   -4.0099   42.3101 N   0  3  0  0  0  0  0  0  0  0  0  0
  1  2  1  6  0  0  0
  1  3  1  0  0  0  0
  1 10  1  0  0  0  0
  3  4  1  6  0  0  0
  3  5  1  0  0  0  0
  5  6  1  1  0  0  0
  5  7  1  0  0  0  0
  7  8  1  6  0  0  0
  7  9  1  0  0  0  0
  9 10  1  0  0  0  0
  9 11  1  1  0  0  0
 11 12  1  0  0  0  0
 13 14  1  6  0  0  0
 13 15  1  0  0  0  0
 13 22  1  0  0  0  0
 15 16  1  1  0  0  0
 15 17  1  0  0  0  0
 17 18  1  1  0  0  0
 17 19  1  0  0  0  0
 19  2  1  1  0  0  0
 19 20  1  0  0  0  0
 20 21  1  6  0  0  0
 20 22  1  0  0  0  0
 23 18  1  6  0  0  0
 23 24  1  0  0  0  0
 23 28  1  0  0  0  0
 24 25  1  1  0  0  0
 24 26  1  0  0  0  0
 26 27  1  0  0  0  0
 26 38  1  1  0  0  0
 27 28  1  0  0  0  0
 27 29  1  6  0  0  0
 29 30  1  0  0  0  0
 31 32  1  1  0  0  0
 31 33  1  0  0  0  0
 31 39  1  0  0  0  0
 33 34  1  6  0  0  0
 33 35  1  0  0  0  0
 35 36  1  1  0  0  0
 35 37  1  0  0  0  0
 37 38  1  1  0  0  0
 37 40  1  0  0  0  0
 39 40  1  0  0  0  0
 39 41  1  1  0  0  0
 41 42  1  0  0  0  0
M  CHG  5   4   1  14   1  21   1  36   1  42   1
M  END
>  <CHROM.1>
-146.14367159,68.54986009,64.41266072,60.59552891,-46.95372836,-1.96979789
-177.87064039,106.26918480,67.22187704,-94.94274886,144.04131293,45.02206198
163.09252813,95.62056151,-170.98788473,64.30773684,-169.97482527,81.80207620
152.01567152,-176.40956876,53.49897039,-81.13776840,3.85395391,-1.10163281
40.22305098,-0.64437961,-0.97479302,2.42944954

>  <Name>
1pbr

>  <RI>
0

>  <Rbt.Current_Directory>
/home/itssahil/PROJECTS/Mol_Feturizer/New_Systems/rnas/1pbr

>  <Rbt.Executable>
rbdock ($Id: //depot/dev/client3/rdock/2013.1/src/exe/rbdock.cxx#4 $)

>  <Rbt.Library>
libRbt.so (2013.1, Build901 2013/11/27)

>  <Rbt.Parameter_File>
/export/apps/rDock/src/rDock_2013.1_src/data/scripts/dock_solv.prm

>  <Rbt.Receptor>
prm/pocket_docking_5.prm

>  <SCORE>
-39.5189

>  <SCORE.INTER>
-42.2389

>  <SCORE.INTER.CONST>
1

>  <SCORE.INTER.POLAR>
-7.15162

>  <SCORE.INTER.ROT>
9

>  <SCORE.INTER.SOLV>
27.3924

>  <SCORE.INTER.VDW>
-23.0513

>  <SCORE.INTER.norm>
-1.00569

>  <SCORE.INTRA>
2.71997

>  <SCORE.INTRA.DIHEDRAL>
6.41655

>  <SCORE.INTRA.DIHEDRAL.0>
29.7866

>  <SCORE.INTRA.POLAR>
-0.0142479

>  <SCORE.INTRA.POLAR.0>
-0.984091

>  <SCORE.INTRA.REPUL>
-0.274115

>  <SCORE.INTRA.REPUL.0>
0.274115

>  <SCORE.INTRA.SOLV>
-0.130284

>  <SCORE.INTRA.SOLV.lig_0>
-152.978

>  <SCORE.INTRA.VDW>
0.995852

>  <SCORE.INTRA.VDW.0>
-6.10719

>  <SCORE.INTRA.norm>
0.0647611

>  <SCORE.RESTR>
0

>  <SCORE.RESTR.CAVITY>
0

>  <SCORE.RESTR.norm>
0

>  <SCORE.SYSTEM>
0

>  <SCORE.SYSTEM.CONST>
0

>  <SCORE.SYSTEM.DIHEDRAL>
0

>  <SCORE.SYSTEM.SOLV>
0

>  <SCORE.SYSTEM.norm>
0

>  <SCORE.heavy>
42

>  <SCORE.norm>
-0.940927

>  <RMSD>
8.444

$$$$
1pbr
 OpenBabel11021811403D
libRbt.so/2013.1/901 2013/11/27
 42 45  0  0  0  0  0  0  0  0999 V2000
    3.8322    0.5608   37.6296 C   0  0  2  0  0  0  0  0  0  0  0  0
    4.0854    1.7443   38.4285 O   0  0  0  0  0  0  0  0  0  0  0  0
    5.0282    0.2850   36.6438 C   0  0  2  0  0  0  0  0  0  0  0  0
    6.3752    0.4950   37.2353 N   0  3  0  0  0  0  0  0  0  0  0  0
    4.9579    1.1900   35.3994 C   0  0  1  0  0  0  0  0  0  0  0  0
    5.8804    0.7536   34.4035 O   0  0  0  0  0  0  0  0  0  0  0  0
    3.5398    1.2076   34.8092 C   0  0  2  0  0  0  0  0  0  0  0  0
    3.5044    2.0136   33.6357 O   0  0  0  0  0  0  0  0  0  0  0  0
    2.5114    1.6602   35.8694 C   0  0  2  0  0  0  0  0  0  0  0  0
    2.5589    0.6924   36.9391 O   0  0  0  0  0  0  0  0  0  0  0  0
    1.0727    1.7264   35.3595 C   0  0  0  0  0  0  0  0  0  0  0  0
    0.6897    0.5065   34.7385 O   0  0  0  0  0  0  0  0  0  0  0  0
    1.4695    0.6530   41.6182 C   0  0  1  0  0  0  0  0  0  0  0  0
    0.5928    0.6043   42.8026 N   0  3  0  0  0  0  0  0  0  0  0  0
    0.8408    1.4736   40.4515 C   0  0  2  0  0  0  0  0  0  0  0  0
   -0.4077    0.9069   40.0609 O   0  0  0  0  0  0  0  0  0  0  0  0
    1.7787    1.4996   39.2092 C   0  0  1  0  0  0  0  0  0  0  0  0
    1.2190    2.4156   38.2219 O   0  0  0  0  0  0  0  0  0  0  0  0
    3.2289    1.9546   39.5769 C   0  0  1  0  0  0  0  0  0  0  0  0
    3.8262    1.1613   40.7829 C   0  0  1  0  0  0  0  0  0  0  0  0
    5.1567    1.6800   41.1704 N   0  3  0  0  0  0  0  0  0  0  0  0
    2.8691    1.2167   42.0016 C   0  0  0  0  0  0  0  0  0  0  0  0
    0.2281    3.4128   38.6286 C   0  0  1  0  0  0  0  0  0  0  0  0
    0.3843    4.6567   37.7340 C   0  0  2  0  0  0  0  0  0  0  0  0
   -0.0930    5.8256   38.3943 O   0  0  0  0  0  0  0  0  0  0  0  0
   -0.5256    4.2329   36.5710 C   0  0  1  0  0  0  0  0  0  0  0  0
   -1.7195    3.6326   37.2946 C   0  0  2  0  0  0  0  0  0  0  0  0
   -1.1020    2.9328   38.3640 O   0  0  0  0  0  0  0  0  0  0  0  0
   -2.5781    2.6762   36.4569 C   0  0  0  0  0  0  0  0  0  0  0  0
   -3.7003    2.2416   37.2106 O   0  0  0  0  0  0  0  0  0  0  0  0
    1.3385    7.8302   33.0225 C   0  0  1  0  0  0  0  0  0  0  0  0
    0.4064    8.9101   33.0334 O   0  0  0  0  0  0  0  0  0  0  0  0
    1.9085    7.6269   34.4540 C   0  0  2  0  0  0  0  0  0  0  0  0
    3.0831    6.8239   34.3647 O   0  0  0  0  0  0  0  0  0  0  0  0
    0.9268    6.9700   35.4790 C   0  0  1  0  0  0  0  0  0  0  0  0
    0.0565    7.9988   36.0898 N   0  3  0  0  0  0  0  0  0  0  0  0
    0.1237    5.8041   34.8443 C   0  0  1  0  0  0  0  0  0  0  0  0
   -0.9478    5.3018   35.6800 O   0  0  0  0  0  0  0  0  0  0  0  0
    0.6470    6.5287   32.5446 C   0  0  1  0  0  0  0  0  0  0  0  0
   -0.3766    6.1890   33.5196 O   0  0  0  0  0  0  0  0  0  0  0  0
    0.0490    6.6246   31.1285 C   0  0  0  0  0  0  0  0  0  0  0  0
   -0.6882    7.8837   30.9051 N   0  3  0  0  0  0  0  0  0  0  0  0
  1  2  1  6  0  0  0
  1  3  1  0  0  0  0
  1 10  1  0  0  0  0
  3  4  1  1  0  0  0
  3  5  1  0  0  0  0
  5  6  1  6  0  0  0
  5  7  1  0  0  0  0
  7  8  1  6  0  0  0
  7  9  1  0  0  0  0
  9 10  1  0  0  0  0
  9 11  1  6  0  0  0
 11 12  1  0  0  0  0
 13 14  1  1  0  0  0
 13 15  1  0  0  0  0
 13 22  1  0  0  0  0
 15 16  1  6  0  0  0
 15 17  1  0  0  0  0
 17 18  1  6  0  0  0
 17 19  1  0  0  0  0
 19  2  1  6  0  0  0
 19 20  1  0  0  0  0
 20 21  1  1  0  0  0
 20 22  1  0  0  0  0
 23 18  1  6  0  0  0
 23 24  1  0  0  0  0
 23 28  1  0  0  0  0
 24 25  1  1  0  0  0
 24 26  1  0  0  0  0
 26 27  1  0  0  0  0
 26 38  1  1  0  0  0
 27 28  1  0  0  0  0
 27 29  1  6  0  0  0
 29 30  1  0  0  0  0
 31 32  1  1  0  0  0
 31 33  1  0  0  0  0
 31 39  1  0  0  0  0
 33 34  1  6  0  0  0
 33 35  1  0  0  0  0
 35 36  1  6  0  0  0
 35 37  1  0  0  0  0
 37 38  1  1  0  0  0
 37 40  1  0  0  0  0
 39 40  1  0  0  0  0
 39 41  1  6  0  0  0
 41 42  1  0  0  0  0
M  CHG  5   4   1  14   1  21   1  36   1  42   1
M  END
>  <CHROM.1>
-166.53265235,-37.15274135,-49.96526957,-158.13352027,-64.35251203,52.21822017
-160.70191657,-126.91624871,-54.63057433,18.60398620,148.75069015,-42.29894536
178.84807908,71.17033170,-176.65890803,-169.41195074,55.02369211,-178.73261216
36.65042811,-89.38903959,-44.35024384,178.91133125,1.46459919,3.36597820
36.71123930,-1.23355702,0.50545222,-0.97194356

>  <Name>
1pbr

>  <RI>
0

>  <Rbt.Current_Directory>
/home/itssahil/PROJECTS/Mol_Feturizer/New_Systems/rnas/1pbr

>  <Rbt.Executable>
rbdock ($Id: //depot/dev/client3/rdock/2013.1/src/exe/rbdock.cxx#4 $)

>  <Rbt.Library>
libRbt.so (2013.1, Build901 2013/11/27)

>  <Rbt.Parameter_File>
/export/apps/rDock/src/rDock_2013.1_src/data/scripts/dock_solv.prm

>  <Rbt.Receptor>
prm/blind_docking_80.prm

>  <SCORE>
-16.5334

>  <SCORE.INTER>
-26.0988

>  <SCORE.INTER.CONST>
1

>  <SCORE.INTER.POLAR>
-6.82014

>  <SCORE.INTER.ROT>
9

>  <SCORE.INTER.SOLV>
38.7433

>  <SCORE.INTER.VDW>
-17.1798

>  <SCORE.INTER.norm>
-0.621399

>  <SCORE.INTRA>
7.79023

>  <SCORE.INTRA.DIHEDRAL>
-1.01553

>  <SCORE.INTRA.DIHEDRAL.0>
29.7866

>  <SCORE.INTRA.POLAR>
0.674837

>  <SCORE.INTRA.POLAR.0>
-0.984091

>  <SCORE.INTRA.REPUL>
-0.271067

>  <SCORE.INTRA.REPUL.0>
0.274115

>  <SCORE.INTRA.SOLV>
2.24383

>  <SCORE.INTRA.SOLV.lig_0>
-152.978

>  <SCORE.INTRA.VDW>
6.23696

>  <SCORE.INTRA.VDW.0>
-6.10719

>  <SCORE.INTRA.norm>
0.185482

>  <SCORE.RESTR>
1.77514

>  <SCORE.RESTR.CAVITY>
1.77514

>  <SCORE.RESTR.norm>
0.0422652

>  <SCORE.SYSTEM>
0

>  <SCORE.SYSTEM.CONST>
0

>  <SCORE.SYSTEM.DIHEDRAL>
0

>  <SCORE.SYSTEM.SOLV>
0

>  <SCORE.SYSTEM.norm>
0

>  <SCORE.heavy>
42

>  <SCORE.norm>
-0.393652

>  <RMSD>
8.445

$$$$
1pbr
 OpenBabel11021811403D
libRbt.so/2013.1/901 2013/11/27
 42 45  0  0  0  0  0  0  0  0999 V2000
    4.6009    1.3477   36.3201 C   0  0  2  0  0  0  0  0  0  0  0  0
    4.6389    0.9018   37.6996 O   0  0  0  0  0  0  0  0  0  0  0  0
    4.5304    2.9184   36.2418 C   0  0  2  0  0  0  0  0  0  0  0  0
    5.4033    3.6237   37.2159 N   0  3  0  0  0  0  0  0  0  0  0  0
    3.1009    3.4351   36.4910 C   0  0  1  0  0  0  0  0  0  0  0  0
    2.9976    4.8180   36.1590 O   0  0  0  0  0  0  0  0  0  0  0  0
    2.0748    2.6357   35.6738 C   0  0  2  0  0  0  0  0  0  0  0  0
    0.7655    3.1553   35.8832 O   0  0  0  0  0  0  0  0  0  0  0  0
    2.1721    1.1283   35.9974 C   0  0  2  0  0  0  0  0  0  0  0  0
    3.4995    0.7040   35.6216 O   0  0  0  0  0  0  0  0  0  0  0  0
    1.1693    0.2585   35.2411 C   0  0  0  0  0  0  0  0  0  0  0  0
    1.4899    0.1866   33.8582 O   0  0  0  0  0  0  0  0  0  0  0  0
    3.3720   -3.1480   37.2502 C   0  0  1  0  0  0  0  0  0  0  0  0
    3.2069   -4.6127   37.2867 N   0  3  0  0  0  0  0  0  0  0  0  0
    3.1247   -2.4912   38.6420 C   0  0  2  0  0  0  0  0  0  0  0  0
    1.8070   -2.7815   39.1023 O   0  0  0  0  0  0  0  0  0  0  0  0
    3.2922   -0.9449   38.5751 C   0  0  1  0  0  0  0  0  0  0  0  0
    3.2181   -0.4091   39.9295 O   0  0  0  0  0  0  0  0  0  0  0  0
    4.6521   -0.5285   37.9251 C   0  0  1  0  0  0  0  0  0  0  0  0
    4.9123   -1.2359   36.5567 C   0  0  1  0  0  0  0  0  0  0  0  0
    6.2477   -0.8996   36.0153 N   0  3  0  0  0  0  0  0  0  0  0  0
    4.7804   -2.7740   36.7026 C   0  0  0  0  0  0  0  0  0  0  0  0
    4.0264    0.7529   40.3014 C   0  0  1  0  0  0  0  0  0  0  0  0
    3.4847    1.3276   41.6237 C   0  0  2  0  0  0  0  0  0  0  0  0
    3.7972    2.7124   41.7463 O   0  0  0  0  0  0  0  0  0  0  0  0
    4.2844    0.4613   42.6085 C   0  0  1  0  0  0  0  0  0  0  0  0
    5.6698    0.4538   41.9839 C   0  0  2  0  0  0  0  0  0  0  0  0
    5.3746    0.3493   40.5995 O   0  0  0  0  0  0  0  0  0  0  0  0
    6.5787   -0.7011   42.4240 C   0  0  0  0  0  0  0  0  0  0  0  0
    6.0664   -1.9350   41.9428 O   0  0  0  0  0  0  0  0  0  0  0  0
    1.2420   -0.5374   46.5988 C   0  0  1  0  0  0  0  0  0  0  0  0
    2.0495   -1.5509   47.1951 O   0  0  0  0  0  0  0  0  0  0  0  0
    1.8329    0.8592   46.9395 C   0  0  2  0  0  0  0  0  0  0  0  0
    0.8422    1.8486   46.6711 O   0  0  0  0  0  0  0  0  0  0  0  0
    3.1424    1.2376   46.1728 C   0  0  1  0  0  0  0  0  0  0  0  0
    4.3249    0.6879   46.8719 N   0  3  0  0  0  0  0  0  0  0  0  0
    3.0794    0.8198   44.6801 C   0  0  1  0  0  0  0  0  0  0  0  0
    4.3393    0.9507   43.9768 O   0  0  0  0  0  0  0  0  0  0  0  0
    1.1933   -0.7245   45.0615 C   0  0  1  0  0  0  0  0  0  0  0  0
    2.5422   -0.5397   44.5515 O   0  0  0  0  0  0  0  0  0  0  0  0
    0.6172   -2.0819   44.6170 C   0  0  0  0  0  0  0  0  0  0  0  0
    1.4937   -3.2160   44.9691 N   0  3  0  0  0  0  0  0  0  0  0  0
  1  2  1  1  0  0  0
  1  3  1  0  0  0  0
  1 10  1  0  0  0  0
  3  4  1  1  0  0  0
  3  5  1  0  0  0  0
  5  6  1  6  0  0  0
  5  7  1  0  0  0  0
  7  8  1  1  0  0  0
  7  9  1  0  0  0  0
  9 10  1  0  0  0  0
  9 11  1  6  0  0  0
 11 12  1  0  0  0  0
 13 14  1  1  0  0  0
 13 15  1  0  0  0  0
 13 22  1  0  0  0  0
 15 16  1  6  0  0  0
 15 17  1  0  0  0  0
 17 18  1  1  0  0  0
 17 19  1  0  0  0  0
 19  2  1  6  0  0  0
 19 20  1  0  0  0  0
 20 21  1  1  0  0  0
 20 22  1  0  0  0  0
 23 18  1  1  0  0  0
 23 24  1  0  0  0  0
 23 28  1  0  0  0  0
 24 25  1  1  0  0  0
 24 26  1  0  0  0  0
 26 27  1  0  0  0  0
 26 38  1  1  0  0  0
 27 28  1  0  0  0  0
 27 29  1  1  0  0  0
 29 30  1  0  0  0  0
 31 32  1  1  0  0  0
 31 33  1  0  0  0  0
 31 39  1  0  0  0  0
 33 34  1  6  0  0  0
 33 35  1  0  0  0  0
 35 36  1  1  0  0  0
 35 37  1  0  0  0  0
 37 38  1  1  0  0  0
 37 40  1  0  0  0  0
 39 40  1  0  0  0  0
 39 41  1  1  0  0  0
 41 42  1  0  0  0  0
M  CHG  5   4   1  14   1  21   1  36   1  42   1
M  END
>  <CHROM.1>
177.64910801,-111.50814180,-93.40601344,-176.37057456,69.97928734,70.11523788
-56.25866041,90.92755896,68.88525848,145.62602353,164.89578113,-122.54710876
176.06109633,71.64619905,67.03538856,69.43225441,61.99154398,-54.66411064
-26.37579894,175.69028041,-67.79584223,-64.22371234,3.35650176,0.14895614
40.29258386,0.47775557,1.47702426,-0.37013252

>  <Name>
1pbr

>  <RI>
0

>  <Rbt.Current_Directory>
/home/itssahil/PROJECTS/Mol_Feturizer/New_Systems/rnas/1pbr

>  <Rbt.Executable>
rbdock ($Id: //depot/dev/client3/rdock/2013.1/src/exe/rbdock.cxx#4 $)

>  <Rbt.Library>
libRbt.so (2013.1, Build901 2013/11/27)

>  <Rbt.Parameter_File>
/export/apps/rDock/src/rDock_2013.1_src/data/scripts/dock_solv.prm

>  <Rbt.Receptor>
prm/pocket_docking_8.prm

>  <SCORE>
-22.4931

>  <SCORE.INTER>
-28.7319

>  <SCORE.INTER.CONST>
1

>  <SCORE.INTER.POLAR>
-7.64194

>  <SCORE.INTER.ROT>
9

>  <SCORE.INTER.SOLV>
45.8965

>  <SCORE.INTER.VDW>
-18.5803

>  <SCORE.INTER.norm>
-0.684092

>  <SCORE.INTRA>
6.23878

>  <SCORE.INTRA.DIHEDRAL>
-3.83328

>  <SCORE.INTRA.DIHEDRAL.0>
29.7866

>  <SCORE.INTRA.POLAR>
0.423453

>  <SCORE.INTRA.POLAR.0>
-0.984091

>  <SCORE.INTRA.REPUL>
-0.274115

>  <SCORE.INTRA.REPUL.0>
0.274115

>  <SCORE.INTRA.SOLV>
-0.288129

>  <SCORE.INTRA.SOLV.lig_0>
-152.978

>  <SCORE.INTRA.VDW>
8.23032

>  <SCORE.INTRA.VDW.0>
-6.10719

>  <SCORE.INTRA.norm>
0.148542

>  <SCORE.RESTR>
0

>  <SCORE.RESTR.CAVITY>
0

>  <SCORE.RESTR.norm>
0

>  <SCORE.SYSTEM>
0

>  <SCORE.SYSTEM.CONST>
0

>  <SCORE.SYSTEM.DIHEDRAL>
0

>  <SCORE.SYSTEM.SOLV>
0

>  <SCORE.SYSTEM.norm>
0

>  <SCORE.heavy>
42

>  <SCORE.norm>
-0.53555

>  <RMSD>
8.447

$$$$
1pbr
 OpenBabel11021811403D
libRbt.so/2013.1/901 2013/11/27
 42 45  0  0  0  0  0  0  0  0999 V2000
    1.1085    1.7712   39.5199 C   0  0  2  0  0  0  0  0  0  0  0  0
    2.0318    0.8034   38.9594 O   0  0  0  0  0  0  0  0  0  0  0  0
    0.1111    1.0778   40.5213 C   0  0  2  0  0  0  0  0  0  0  0  0
    0.7352    0.0618   41.4082 N   0  3  0  0  0  0  0  0  0  0  0  0
   -1.0302    0.3584   39.7780 C   0  0  1  0  0  0  0  0  0  0  0  0
   -2.0577   -0.0332   40.6859 O   0  0  0  0  0  0  0  0  0  0  0  0
   -1.6295    1.2565   38.6853 C   0  0  2  0  0  0  0  0  0  0  0  0
   -2.7105    0.5918   38.0390 O   0  0  0  0  0  0  0  0  0  0  0  0
   -0.5375    1.7135   37.6927 C   0  0  2  0  0  0  0  0  0  0  0  0
    0.4232    2.4793   38.4502 O   0  0  0  0  0  0  0  0  0  0  0  0
   -1.0519    2.5968   36.5573 C   0  0  0  0  0  0  0  0  0  0  0  0
   -2.2372    3.2840   36.9359 O   0  0  0  0  0  0  0  0  0  0  0  0
    5.3746    1.6820   36.4572 C   0  0  1  0  0  0  0  0  0  0  0  0
    6.2929    2.0057   35.3500 N   0  3  0  0  0  0  0  0  0  0  0  0
    4.4433    2.8779   36.8207 C   0  0  2  0  0  0  0  0  0  0  0  0
    5.2170    4.0141   37.1988 O   0  0  0  0  0  0  0  0  0  0  0  0
    3.4929    2.5162   37.9995 C   0  0  1  0  0  0  0  0  0  0  0  0
    2.5383    3.6041   38.1791 O   0  0  0  0  0  0  0  0  0  0  0  0
    2.7184    1.1824   37.7423 C   0  0  1  0  0  0  0  0  0  0  0  0
    3.6581    0.0059   37.3256 C   0  0  1  0  0  0  0  0  0  0  0  0
    2.8889   -1.2136   36.9930 N   0  3  0  0  0  0  0  0  0  0  0  0
    4.5403    0.4125   36.1170 C   0  0  0  0  0  0  0  0  0  0  0  0
    2.6152    4.7924   37.3282 C   0  0  1  0  0  0  0  0  0  0  0  0
    2.0482    4.4422   35.9397 C   0  0  2  0  0  0  0  0  0  0  0  0
    2.5936    5.2923   34.9347 O   0  0  0  0  0  0  0  0  0  0  0  0
    0.5634    4.7334   36.2053 C   0  0  1  0  0  0  0  0  0  0  0  0
    0.6227    6.0324   36.9918 C   0  0  2  0  0  0  0  0  0  0  0  0
    1.7483    5.8243   37.8311 O   0  0  0  0  0  0  0  0  0  0  0  0
   -0.6209    6.3432   37.8349 C   0  0  0  0  0  0  0  0  0  0  0  0
   -1.0714    5.1670   38.4906 O   0  0  0  0  0  0  0  0  0  0  0  0
   -0.5507    8.0613   32.1050 C   0  0  1  0  0  0  0  0  0  0  0  0
   -1.7611    7.5912   31.5144 O   0  0  0  0  0  0  0  0  0  0  0  0
   -0.8168    8.4494   33.5862 C   0  0  2  0  0  0  0  0  0  0  0  0
    0.2689    9.2501   34.0474 O   0  0  0  0  0  0  0  0  0  0  0  0
   -1.0091    7.2483   34.5693 C   0  0  1  0  0  0  0  0  0  0  0  0
   -2.4154    6.7889   34.5512 N   0  3  0  0  0  0  0  0  0  0  0  0
   -0.0000    6.1040   34.2880 C   0  0  1  0  0  0  0  0  0  0  0  0
   -0.2698    4.8851   35.0232 O   0  0  0  0  0  0  0  0  0  0  0  0
    0.5407    6.9635   32.0393 C   0  0  1  0  0  0  0  0  0  0  0  0
    0.0882    5.8423   32.8468 O   0  0  0  0  0  0  0  0  0  0  0  0
    0.8823    6.5093   30.6078 C   0  0  0  0  0  0  0  0  0  0  0  0
   -0.3131    6.1299   29.8296 N   0  3  0  0  0  0  0  0  0  0  0  0
  1  2  1  6  0  0  0
  1  3  1  0  0  0  0
  1 10  1  0  0  0  0
  3  4  1  6  0  0  0
  3  5  1  0  0  0  0
  5  6  1  1  0  0  0
  5  7  1  0  0  0  0
  7  8  1  6  0  0  0
  7  9  1  0  0  0  0
  9 10  1  0  0  0  0
  9 11  1  6  0  0  0
 11 12  1  0  0  0  0
 13 14  1  6  0  0  0
 13 15  1  0  0  0  0
 13 22  1  0  0  0  0
 15 16  1  1  0  0  0
 15 17  1  0  0  0  0
 17 18  1  6  0  0  0
 17 19  1  0  0  0  0
 19  2  1  1  0  0  0
 19 20  1  0  0  0  0
 20 21  1  6  0  0  0
 20 22  1  0  0  0  0
 23 18  1  1  0  0  0
 23 24  1  0  0  0  0
 23 28  1  0  0  0  0
 24 25  1  6  0  0  0
 24 26  1  0  0  0  0
 26 27  1  0  0  0  0
 26 38  1  6  0  0  0
 27 28  1  0  0  0  0
 27 29  1  1  0  0  0
 29 30  1  0  0  0  0
 31 32  1  1  0  0  0
 31 33  1  0  0  0  0
 31 39  1  0  0  0  0
 33 34  1  1  0  0  0
 33 35  1  0  0  0  0
 35 36  1  6  0  0  0
 35 37  1  0  0  0  0
 37 38  1  1  0  0  0
 37 40  1  0  0  0  0
 39 40  1  0  0  0  0
 39 41  1  6  0  0  0
 41 42  1  0  0  0  0
M  CHG  5   4   1  14   1  21   1  36   1  42   1
M  END
>  <CHROM.1>
161.30941866,56.85095961,62.83920518,-149.86395736,32.88332320,25.61816277
72.19081590,47.56578871,76.26179918,-1.35275285,75.92096673,57.19650190,59.51333545
-70.35365541,42.40269696,55.97488629,-61.21275974,72.17692850,-137.23367346
-99.73007254,-51.74693878,172.62892476,0.85824184,3.79443138,36.36815543
1.36855358,-0.26900654,2.32617696

>  <Name>
1pbr

>  <RI>
0

>  <Rbt.Current_Directory>
/home/itssahil/PROJECTS/Mol_Feturizer/New_Systems/rnas/1pbr

>  <Rbt.Executable>
rbdock ($Id: //depot/dev/client3/rdock/2013.1/src/exe/rbdock.cxx#4 $)

>  <Rbt.Library>
libRbt.so (2013.1, Build901 2013/11/27)

>  <Rbt.Parameter_File>
/export/apps/rDock/src/rDock_2013.1_src/data/scripts/dock_solv.prm

>  <Rbt.Receptor>
prm/blind_docking_80.prm

>  <SCORE>
5.25496

>  <SCORE.INTER>
-7.71335

>  <SCORE.INTER.CONST>
1

>  <SCORE.INTER.POLAR>
-3.80578

>  <SCORE.INTER.ROT>
9

>  <SCORE.INTER.SOLV>
34.8594

>  <SCORE.INTER.VDW>
-13.6761

>  <SCORE.INTER.norm>
-0.183651

>  <SCORE.INTRA>
10.7181

>  <SCORE.INTRA.DIHEDRAL>
4.13106

>  <SCORE.INTRA.DIHEDRAL.0>
29.7866

>  <SCORE.INTRA.POLAR>
-0.398833

>  <SCORE.INTRA.POLAR.0>
-0.984091

>  <SCORE.INTRA.REPUL>
-0.104312

>  <SCORE.INTRA.REPUL.0>
0.274115

>  <SCORE.INTRA.SOLV>
4.76895

>  <SCORE.INTRA.SOLV.lig_0>
-152.978

>  <SCORE.INTRA.VDW>
8.14572

>  <SCORE.INTRA.VDW.0>
-6.10719

>  <SCORE.INTRA.norm>
0.255194

>  <SCORE.RESTR>
2.25017

>  <SCORE.RESTR.CAVITY>
2.25017

>  <SCORE.RESTR.norm>
0.0535755

>  <SCORE.SYSTEM>
0

>  <SCORE.SYSTEM.CONST>
0

>  <SCORE.SYSTEM.DIHEDRAL>
0

>  <SCORE.SYSTEM.SOLV>
0

>  <SCORE.SYSTEM.norm>
0

>  <SCORE.heavy>
42

>  <SCORE.norm>
0.125118

>  <RMSD>
8.452

$$$$
1pbr
 OpenBabel11021811403D
libRbt.so/2013.1/901 2013/11/27
 42 45  0  0  0  0  0  0  0  0999 V2000
    4.9112    0.0920   40.2542 C   0  0  2  0  0  0  0  0  0  0  0  0
    5.0637    1.3377   39.5276 O   0  0  0  0  0  0  0  0  0  0  0  0
    6.1768   -0.1939   41.1458 C   0  0  2  0  0  0  0  0  0  0  0  0
    6.7209    0.9997   41.8442 N   0  3  0  0  0  0  0  0  0  0  0  0
    7.3371   -0.7732   40.3147 C   0  0  1  0  0  0  0  0  0  0  0  0
    8.3692   -1.2699   41.1639 O   0  0  0  0  0  0  0  0  0  0  0  0
    6.8469   -1.9007   39.3936 C   0  0  2  0  0  0  0  0  0  0  0  0
    7.9396   -2.4528   38.6661 O   0  0  0  0  0  0  0  0  0  0  0  0
    5.7141   -1.3997   38.4705 C   0  0  2  0  0  0  0  0  0  0  0  0
    4.6261   -0.9911   39.3263 O   0  0  0  0  0  0  0  0  0  0  0  0
    5.1801   -2.4550   37.5034 C   0  0  0  0  0  0  0  0  0  0  0  0
    4.1541   -1.9231   36.6758 O   0  0  0  0  0  0  0  0  0  0  0  0
    2.1916    3.8061   37.5613 C   0  0  1  0  0  0  0  0  0  0  0  0
    1.1669    4.3904   36.6766 N   0  3  0  0  0  0  0  0  0  0  0  0
    1.6300    2.6341   38.4219 C   0  0  2  0  0  0  0  0  0  0  0  0
    0.5457    3.0853   39.2302 O   0  0  0  0  0  0  0  0  0  0  0  0
    2.7262    2.0428   39.3558 C   0  0  1  0  0  0  0  0  0  0  0  0
    2.1923    0.8507   40.0046 O   0  0  0  0  0  0  0  0  0  0  0  0
    4.0271    1.6696   38.5726 C   0  0  1  0  0  0  0  0  0  0  0  0
    4.5484    2.8349   37.6720 C   0  0  1  0  0  0  0  0  0  0  0  0
    5.7202    2.4202   36.8692 N   0  3  0  0  0  0  0  0  0  0  0  0
    3.4252    3.3438   36.7318 C   0  0  0  0  0  0  0  0  0  0  0  0
    0.9843    0.9439   40.8256 C   0  0  1  0  0  0  0  0  0  0  0  0
    0.2935   -0.4325   40.8447 C   0  0  2  0  0  0  0  0  0  0  0  0
   -1.1023   -0.3013   41.0992 O   0  0  0  0  0  0  0  0  0  0  0  0
    1.0441   -1.0624   42.0278 C   0  0  1  0  0  0  0  0  0  0  0  0
    1.0862    0.0787   43.0306 C   0  0  2  0  0  0  0  0  0  0  0  0
    1.3311    1.2017   42.1977 O   0  0  0  0  0  0  0  0  0  0  0  0
    2.1751   -0.0357   44.1052 C   0  0  0  0  0  0  0  0  0  0  0  0
    2.1066    1.0740   44.9885 O   0  0  0  0  0  0  0  0  0  0  0  0
    1.8533   -6.2871   43.1142 C   0  0  1  0  0  0  0  0  0  0  0  0
    0.6634   -6.7720   43.7338 O   0  0  0  0  0  0  0  0  0  0  0  0
    1.5311   -5.8358   41.6622 C   0  0  2  0  0  0  0  0  0  0  0  0
    2.7561   -5.7122   40.9434 O   0  0  0  0  0  0  0  0  0  0  0  0
    0.7376   -4.4939   41.5383 C   0  0  1  0  0  0  0  0  0  0  0  0
   -0.7153   -4.7417   41.6671 N   0  3  0  0  0  0  0  0  0  0  0  0
    1.2546   -3.4227   42.5343 C   0  0  1  0  0  0  0  0  0  0  0  0
    0.4223   -2.2394   42.6132 O   0  0  0  0  0  0  0  0  0  0  0  0
    2.4295   -5.0942   43.9176 C   0  0  1  0  0  0  0  0  0  0  0  0
    1.4579   -4.0141   43.8619 O   0  0  0  0  0  0  0  0  0  0  0  0
    2.7869   -5.4393   45.3754 C   0  0  0  0  0  0  0  0  0  0  0  0
    3.5374   -4.3616   46.0488 N   0  3  0  0  0  0  0  0  0  0  0  0
  1  2  1  6  0  0  0
  1  3  1  0  0  0  0
  1 10  1  0  0  0  0
  3  4  1  6  0  0  0
  3  5  1  0  0  0  0
  5  6  1  1  0  0  0
  5  7  1  0  0  0  0
  7  8  1  6  0  0  0
  7  9  1  0  0  0  0
  9 10  1  0  0  0  0
  9 11  1  6  0  0  0
 11 12  1  0  0  0  0
 13 14  1  6  0  0  0
 13 15  1  0  0  0  0
 13 22  1  0  0  0  0
 15 16  1  1  0  0  0
 15 17  1  0  0  0  0
 17 18  1  6  0  0  0
 17 19  1  0  0  0  0
 19  2  1  1  0  0  0
 19 20  1  0  0  0  0
 20 21  1  6  0  0  0
 20 22  1  0  0  0  0
 23 18  1  6  0  0  0
 23 24  1  0  0  0  0
 23 28  1  0  0  0  0
 24 25  1  1  0  0  0
 24 26  1  0  0  0  0
 26 27  1  0  0  0  0
 26 38  1  1  0  0  0
 27 28  1  0  0  0  0
 27 29  1  1  0  0  0
 29 30  1  0  0  0  0
 31 32  1  1  0  0  0
 31 33  1  0  0  0  0
 31 39  1  0  0  0  0
 33 34  1  6  0  0  0
 33 35  1  0  0  0  0
 35 36  1  1  0  0  0
 35 37  1  0  0  0  0
 37 38  1  1  0  0  0
 37 40  1  0  0  0  0
 39 40  1  0  0  0  0
 39 41  1  1  0  0  0
 41 42  1  0  0  0  0
M  CHG  5   4   1  14   1  21   1  36   1  42   1
M  END
>  <CHROM.1>
174.56607499,70.79173555,82.17852383,64.02956664,-61.24194703,-179.30022870
65.83087805,62.94950277,62.47090527,-58.52973464,154.42139259,-176.16420978
78.20939231,119.11978791,-179.34623251,177.20535013,59.85452539,-59.29136395
-75.64763853,-109.66616196,170.38007516,82.72122722,3.04637904,-0.97778368
40.76249401,-1.28934727,-0.35107522,2.57649240

>  <Name>
1pbr

>  <RI>
0

>  <Rbt.Current_Directory>
/home/itssahil/PROJECTS/Mol_Feturizer/New_Systems/rnas/1pbr

>  <Rbt.Executable>
rbdock ($Id: //depot/dev/client3/rdock/2013.1/src/exe/rbdock.cxx#4 $)

>  <Rbt.Library>
libRbt.so (2013.1, Build901 2013/11/27)

>  <Rbt.Parameter_File>
/export/apps/rDock/src/rDock_2013.1_src/data/scripts/dock_solv.prm

>  <Rbt.Receptor>
prm/pocket_docking_6.prm

>  <SCORE>
-37.9708

>  <SCORE.INTER>
-34.6114

>  <SCORE.INTER.CONST>
1

>  <SCORE.INTER.POLAR>
-5.93775

>  <SCORE.INTER.ROT>
9

>  <SCORE.INTER.SOLV>
31.8941

>  <SCORE.INTER.VDW>
-23.5131

>  <SCORE.INTER.norm>
-0.82408

>  <SCORE.INTRA>
-3.35941

>  <SCORE.INTRA.DIHEDRAL>
-6.71746

>  <SCORE.INTRA.DIHEDRAL.0>
29.7866

>  <SCORE.INTRA.POLAR>
0.845806

>  <SCORE.INTRA.POLAR.0>
-0.984091

>  <SCORE.INTRA.REPUL>
-0.274115

>  <SCORE.INTRA.REPUL.0>
0.274115

>  <SCORE.INTRA.SOLV>
-5.88442

>  <SCORE.INTRA.SOLV.lig_0>
-152.978

>  <SCORE.INTRA.VDW>
1.43637

>  <SCORE.INTRA.VDW.0>
-6.10719

>  <SCORE.INTRA.norm>
-0.0799859

>  <SCORE.RESTR>
0

>  <SCORE.RESTR.CAVITY>
0

>  <SCORE.RESTR.norm>
0

>  <SCORE.SYSTEM>
0

>  <SCORE.SYSTEM.CONST>
0

>  <SCORE.SYSTEM.DIHEDRAL>
0

>  <SCORE.SYSTEM.SOLV>
0

>  <SCORE.SYSTEM.norm>
0

>  <SCORE.heavy>
42

>  <SCORE.norm>
-0.904066

>  <RMSD>
8.453

$$$$
1pbr
 OpenBabel11021811403D
libRbt.so/2013.1/901 2013/11/27
 42 45  0  0  0  0  0  0  0  0999 V2000
    6.1043   -2.3773   39.5447 C   0  0  2  0  0  0  0  0  0  0  0  0
    6.1601   -1.7371   38.2446 O   0  0  0  0  0  0  0  0  0  0  0  0
    7.2677   -3.4261   39.7020 C   0  0  2  0  0  0  0  0  0  0  0  0
    8.5777   -2.9791   39.1612 N   0  3  0  0  0  0  0  0  0  0  0  0
    6.9369   -4.7513   38.9898 C   0  0  1  0  0  0  0  0  0  0  0  0
    7.8652   -5.7691   39.3580 O   0  0  0  0  0  0  0  0  0  0  0  0
    5.5111   -5.2158   39.3229 C   0  0  2  0  0  0  0  0  0  0  0  0
    5.2389   -6.4629   38.6914 O   0  0  0  0  0  0  0  0  0  0  0  0
    4.4800   -4.1270   38.9516 C   0  0  2  0  0  0  0  0  0  0  0  0
    4.7905   -2.9660   39.7510 O   0  0  0  0  0  0  0  0  0  0  0  0
    3.0292   -4.5155   39.2314 C   0  0  0  0  0  0  0  0  0  0  0  0
    2.5909   -5.5398   38.3488 O   0  0  0  0  0  0  0  0  0  0  0  0
    3.4364   -0.2512   35.3151 C   0  0  1  0  0  0  0  0  0  0  0  0
    2.3040    0.0009   34.4052 N   0  3  0  0  0  0  0  0  0  0  0  0
    3.0640    0.0064   36.8066 C   0  0  2  0  0  0  0  0  0  0  0  0
    2.6366    1.3545   36.9871 O   0  0  0  0  0  0  0  0  0  0  0  0
    4.2782   -0.2539   37.7455 C   0  0  1  0  0  0  0  0  0  0  0  0
    3.8255   -0.1632   39.1289 O   0  0  0  0  0  0  0  0  0  0  0  0
    4.9207   -1.6582   37.5000 C   0  0  1  0  0  0  0  0  0  0  0  0
    5.2386   -1.9250   35.9938 C   0  0  1  0  0  0  0  0  0  0  0  0
    5.7520   -3.2962   35.7804 N   0  3  0  0  0  0  0  0  0  0  0  0
    3.9777   -1.6978   35.1204 C   0  0  0  0  0  0  0  0  0  0  0  0
    4.0329    1.0714   39.8868 C   0  0  1  0  0  0  0  0  0  0  0  0
    3.4047    0.9045   41.2831 C   0  0  2  0  0  0  0  0  0  0  0  0
    3.0499    2.1674   41.8392 O   0  0  0  0  0  0  0  0  0  0  0  0
    4.5973    0.2635   42.0088 C   0  0  1  0  0  0  0  0  0  0  0  0
    5.7681    1.0895   41.5023 C   0  0  2  0  0  0  0  0  0  0  0  0
    5.4350    1.2760   40.1352 O   0  0  0  0  0  0  0  0  0  0  0  0
    7.1430    0.4209   41.6297 C   0  0  0  0  0  0  0  0  0  0  0  0
    7.2314   -0.2809   42.8610 O   0  0  0  0  0  0  0  0  0  0  0  0
    4.6091   -2.9257   46.3487 C   0  0  1  0  0  0  0  0  0  0  0  0
    3.9139   -2.2057   47.3651 O   0  0  0  0  0  0  0  0  0  0  0  0
    3.6764   -3.1120   45.1195 C   0  0  2  0  0  0  0  0  0  0  0  0
    4.2254   -4.1280   44.2835 O   0  0  0  0  0  0  0  0  0  0  0  0
    3.4370   -1.8280   44.2595 C   0  0  1  0  0  0  0  0  0  0  0  0
    2.3374   -1.0218   44.8339 N   0  3  0  0  0  0  0  0  0  0  0  0
    4.7416   -1.0114   44.0645 C   0  0  1  0  0  0  0  0  0  0  0  0
    4.5388    0.2903   43.4616 O   0  0  0  0  0  0  0  0  0  0  0  0
    5.8866   -2.1581   45.9250 C   0  0  1  0  0  0  0  0  0  0  0  0
    5.4685   -0.8973   45.3341 O   0  0  0  0  0  0  0  0  0  0  0  0
    6.8831   -1.9239   47.0757 C   0  0  0  0  0  0  0  0  0  0  0  0
    8.1608   -1.3464   46.6146 N   0  3  0  0  0  0  0  0  0  0  0  0
  1  2  1  6  0  0  0
  1  3  1  0  0  0  0
  1 10  1  0  0  0  0
  3  4  1  6  0  0  0
  3  5  1  0  0  0  0
  5  6  1  1  0  0  0
  5  7  1  0  0  0  0
  7  8  1  6  0  0  0
  7  9  1  0  0  0  0
  9 10  1  0  0  0  0
  9 11  1  1  0  0  0
 11 12  1  0  0  0  0
 13 14  1  6  0  0  0
 13 15  1  0  0  0  0
 13 22  1  0  0  0  0
 15 16  1  6  0  0  0
 15 17  1  0  0  0  0
 17 18  1  1  0  0  0
 17 19  1  0  0  0  0
 19  2  1  1  0  0  0
 19 20  1  0  0  0  0
 20 21  1  1  0  0  0
 20 22  1  0  0  0  0
 23 18  1  6  0  0  0
 23 24  1  0  0  0  0
 23 28  1  0  0  0  0
 24 25  1  1  0  0  0
 24 26  1  0  0  0  0
 26 27  1  0  0  0  0
 26 38  1  1  0  0  0
 27 28  1  0  0  0  0
 27 29  1  6  0  0  0
 29 30  1  0  0  0  0
 31 32  1  1  0  0  0
 31 33  1  0  0  0  0
 31 39  1  0  0  0  0
 33 34  1  6  0  0  0
 33 35  1  0  0  0  0
 35 36  1  1  0  0  0
 35 37  1  0  0  0  0
 37 38  1  1  0  0  0
 37 40  1  0  0  0  0
 39 40  1  0  0  0  0
 39 41  1  1  0  0  0
 41 42  1  0  0  0  0
M  CHG  5   4   1  14   1  21   1  36   1  42   1
M  END
>  <CHROM.1>
132.15759062,96.47113321,170.95640621,-173.13050844,67.83130873,-69.21218432
52.87359264,-49.78625911,175.52289098,-98.55457690,177.49773728,73.03483374
-165.20701359,127.96532454,-39.49042507,-61.78495072,53.58708725,57.03323173
-53.68088437,-89.27359758,172.70697802,-166.89212339,4.92345212,-1.75946495
40.73236350,-1.82933450,-1.18001347,1.29155302

>  <Name>
1pbr

>  <RI>
0

>  <Rbt.Current_Directory>
/home/itssahil/PROJECTS/Mol_Feturizer/New_Systems/rnas/1pbr

>  <Rbt.Executable>
rbdock ($Id: //depot/dev/client3/rdock/2013.1/src/exe/rbdock.cxx#4 $)

>  <Rbt.Library>
libRbt.so (2013.1, Build901 2013/11/27)

>  <Rbt.Parameter_File>
/export/apps/rDock/src/rDock_2013.1_src/data/scripts/dock_solv.prm

>  <Rbt.Receptor>
prm/pocket_docking_7.prm

>  <SCORE>
-39.0427

>  <SCORE.INTER>
-39.4254

>  <SCORE.INTER.CONST>
1

>  <SCORE.INTER.POLAR>
-6.11685

>  <SCORE.INTER.ROT>
9

>  <SCORE.INTER.SOLV>
28.3176

>  <SCORE.INTER.VDW>
-24.9333

>  <SCORE.INTER.norm>
-0.9387

>  <SCORE.INTRA>
0.382755

>  <SCORE.INTRA.DIHEDRAL>
3.00276

>  <SCORE.INTRA.DIHEDRAL.0>
29.7866

>  <SCORE.INTRA.POLAR>
0.199635

>  <SCORE.INTRA.POLAR.0>
-0.984091

>  <SCORE.INTRA.REPUL>
-0.273467

>  <SCORE.INTRA.REPUL.0>
0.274115

>  <SCORE.INTRA.SOLV>
0.134668

>  <SCORE.INTRA.SOLV.lig_0>
-152.978

>  <SCORE.INTRA.VDW>
-0.497383

>  <SCORE.INTRA.VDW.0>
-6.10719

>  <SCORE.INTRA.norm>
0.00911322

>  <SCORE.RESTR>
0

>  <SCORE.RESTR.CAVITY>
0

>  <SCORE.RESTR.norm>
0

>  <SCORE.SYSTEM>
0

>  <SCORE.SYSTEM.CONST>
0

>  <SCORE.SYSTEM.DIHEDRAL>
0

>  <SCORE.SYSTEM.SOLV>
0

>  <SCORE.SYSTEM.norm>
0

>  <SCORE.heavy>
42

>  <SCORE.norm>
-0.929587

>  <RMSD>
8.460

$$$$
1pbr
 OpenBabel11021811403D
libRbt.so/2013.1/901 2013/11/27
 42 45  0  0  0  0  0  0  0  0999 V2000
    7.2959   -0.8073   38.4362 C   0  0  2  0  0  0  0  0  0  0  0  0
    6.7910   -2.0824   37.9646 O   0  0  0  0  0  0  0  0  0  0  0  0
    8.7686   -0.9530   38.9731 C   0  0  2  0  0  0  0  0  0  0  0  0
    9.6420   -1.8266   38.1470 N   0  3  0  0  0  0  0  0  0  0  0  0
    8.7977   -1.5378   40.3978 C   0  0  1  0  0  0  0  0  0  0  0  0
   10.0994   -1.4181   40.9675 O   0  0  0  0  0  0  0  0  0  0  0  0
    7.7768   -0.8336   41.3043 C   0  0  2  0  0  0  0  0  0  0  0  0
    7.8486   -1.3570   42.6268 O   0  0  0  0  0  0  0  0  0  0  0  0
    6.3558   -0.9297   40.7061 C   0  0  2  0  0  0  0  0  0  0  0  0
    6.3912   -0.2537   39.4313 O   0  0  0  0  0  0  0  0  0  0  0  0
    5.2712   -0.2711   41.5570 C   0  0  0  0  0  0  0  0  0  0  0  0
    4.0137   -0.2914   40.8946 O   0  0  0  0  0  0  0  0  0  0  0  0
    3.1211   -0.4285   36.5489 C   0  0  1  0  0  0  0  0  0  0  0  0
    1.8253   -0.1557   35.9005 N   0  3  0  0  0  0  0  0  0  0  0  0
    3.0113   -1.5282   37.6481 C   0  0  2  0  0  0  0  0  0  0  0  0
    2.0814   -1.1347   38.6546 O   0  0  0  0  0  0  0  0  0  0  0  0
    4.3882   -1.7890   38.3262 C   0  0  1  0  0  0  0  0  0  0  0  0
    4.2589   -2.9364   39.2172 O   0  0  0  0  0  0  0  0  0  0  0  0
    5.5155   -2.0685   37.2792 C   0  0  1  0  0  0  0  0  0  0  0  0
    5.5787   -0.9878   36.1528 C   0  0  1  0  0  0  0  0  0  0  0  0
    6.5863   -1.3311   35.1250 N   0  3  0  0  0  0  0  0  0  0  0  0
    4.1904   -0.8126   35.4847 C   0  0  0  0  0  0  0  0  0  0  0  0
    3.5561   -4.1379   38.7650 C   0  0  1  0  0  0  0  0  0  0  0  0
    3.8827   -5.2929   39.7301 C   0  0  2  0  0  0  0  0  0  0  0  0
    3.7423   -6.5551   39.0841 O   0  0  0  0  0  0  0  0  0  0  0  0
    2.7850   -5.0498   40.7770 C   0  0  1  0  0  0  0  0  0  0  0  0
    1.5726   -4.7466   39.9123 C   0  0  2  0  0  0  0  0  0  0  0  0
    2.1333   -3.9561   38.8753 O   0  0  0  0  0  0  0  0  0  0  0  0
    0.4438   -3.9814   40.6150 C   0  0  0  0  0  0  0  0  0  0  0  0
    0.8506   -2.6469   40.8794 O   0  0  0  0  0  0  0  0  0  0  0  0
    0.5555   -5.4337   45.4582 C   0  0  1  0  0  0  0  0  0  0  0  0
   -0.6498   -6.1159   45.1168 O   0  0  0  0  0  0  0  0  0  0  0  0
    1.7356   -6.4451   45.4663 C   0  0  2  0  0  0  0  0  0  0  0  0
    2.8343   -5.8546   46.1567 O   0  0  0  0  0  0  0  0  0  0  0  0
    2.2224   -6.9179   44.0572 C   0  0  1  0  0  0  0  0  0  0  0  0
    1.3981   -8.0507   43.5816 N   0  3  0  0  0  0  0  0  0  0  0  0
    2.2764   -5.7465   43.0414 C   0  0  1  0  0  0  0  0  0  0  0  0
    2.5126   -6.1617   41.6736 O   0  0  0  0  0  0  0  0  0  0  0  0
    0.8412   -4.3041   44.4368 C   0  0  1  0  0  0  0  0  0  0  0  0
    1.0640   -4.9260   43.1417 O   0  0  0  0  0  0  0  0  0  0  0  0
   -0.2717   -3.2426   44.3544 C   0  0  0  0  0  0  0  0  0  0  0  0
   -0.0691   -2.1295   45.3022 N   0  3  0  0  0  0  0  0  0  0  0  0
  1  2  1  1  0  0  0
  1  3  1  0  0  0  0
  1 10  1  0  0  0  0
  3  4  1  6  0  0  0
  3  5  1  0  0  0  0
  5  6  1  1  0  0  0
  5  7  1  0  0  0  0
  7  8  1  1  0  0  0
  7  9  1  0  0  0  0
  9 10  1  0  0  0  0
  9 11  1  1  0  0  0
 11 12  1  0  0  0  0
 13 14  1  6  0  0  0
 13 15  1  0  0  0  0
 13 22  1  0  0  0  0
 15 16  1  1  0  0  0
 15 17  1  0  0  0  0
 17 18  1  1  0  0  0
 17 19  1  0  0  0  0
 19  2  1  1  0  0  0
 19 20  1  0  0  0  0
 20 21  1  6  0  0  0
 20 22  1  0  0  0  0
 23 18  1  1  0  0  0
 23 24  1  0  0  0  0
 23 28  1  0  0  0  0
 24 25  1  6  0  0  0
 24 26  1  0  0  0  0
 26 27  1  0  0  0  0
 26 38  1  6  0  0  0
 27 28  1  0  0  0  0
 27 29  1  1  0  0  0
 29 30  1  0  0  0  0
 31 32  1  6  0  0  0
 31 33  1  0  0  0  0
 31 39  1  0  0  0  0
 33 34  1  6  0  0  0
 33 35  1  0  0  0  0
 35 36  1  6  0  0  0
 35 37  1  0  0  0  0
 37 38  1  6  0  0  0
 37 40  1  0  0  0  0
 39 40  1  0  0  0  0
 39 41  1  6  0  0  0
 41 42  1  0  0  0  0
M  CHG  5   4   1  14   1  21   1  36   1  42   1
M  END
>  <CHROM.1>
-172.02254447,-71.48069644,85.01916222,65.51599520,-65.30379654,174.79499795
176.75195628,-171.08070398,179.22523343,44.90392778,165.37050048,172.75120448
-179.87059467,140.00647008,69.81632424,-179.82186808,176.18523156,64.66464811
173.34585226,-170.18283556,89.70281415,-166.32275723,3.86604690,-3.03518125
40.55291894,-0.89030299,0.30101250,1.95868424

>  <Name>
1pbr

>  <RI>
0

>  <Rbt.Current_Directory>
/home/itssahil/PROJECTS/Mol_Feturizer/New_Systems/rnas/1pbr

>  <Rbt.Executable>
rbdock ($Id: //depot/dev/client3/rdock/2013.1/src/exe/rbdock.cxx#4 $)

>  <Rbt.Library>
libRbt.so (2013.1, Build901 2013/11/27)

>  <Rbt.Parameter_File>
/export/apps/rDock/src/rDock_2013.1_src/data/scripts/dock_solv.prm

>  <Rbt.Receptor>
prm/pocket_docking_8.prm

>  <SCORE>
-36.4263

>  <SCORE.INTER>
-26.1235

>  <SCORE.INTER.CONST>
1

>  <SCORE.INTER.POLAR>
-4.21289

>  <SCORE.INTER.ROT>
9

>  <SCORE.INTER.SOLV>
24.4046

>  <SCORE.INTER.VDW>
-21.1076

>  <SCORE.INTER.norm>
-0.621989

>  <SCORE.INTRA>
-10.3028

>  <SCORE.INTRA.DIHEDRAL>
-14.1678

>  <SCORE.INTRA.DIHEDRAL.0>
29.7866

>  <SCORE.INTRA.POLAR>
-0.524417

>  <SCORE.INTRA.POLAR.0>
-0.984091

>  <SCORE.INTRA.REPUL>
-0.267662

>  <SCORE.INTRA.REPUL.0>
0.274115

>  <SCORE.INTRA.SOLV>
-1.72276

>  <SCORE.INTRA.SOLV.lig_0>
-152.978

>  <SCORE.INTRA.VDW>
0.763839

>  <SCORE.INTRA.VDW.0>
-6.10719

>  <SCORE.INTRA.norm>
-0.245304

>  <SCORE.RESTR>
0

>  <SCORE.RESTR.CAVITY>
0

>  <SCORE.RESTR.norm>
0

>  <SCORE.SYSTEM>
0

>  <SCORE.SYSTEM.CONST>
0

>  <SCORE.SYSTEM.DIHEDRAL>
0

>  <SCORE.SYSTEM.SOLV>
0

>  <SCORE.SYSTEM.norm>
0

>  <SCORE.heavy>
42

>  <SCORE.norm>
-0.867293

>  <RMSD>
8.468

$$$$
1pbr
 OpenBabel11021811403D
libRbt.so/2013.1/901 2013/11/27
 42 45  0  0  0  0  0  0  0  0999 V2000
    4.7977   -0.0991   39.9427 C   0  0  2  0  0  0  0  0  0  0  0  0
    4.6141    1.1231   39.1840 O   0  0  0  0  0  0  0  0  0  0  0  0
    5.5100    0.1963   41.3151 C   0  0  2  0  0  0  0  0  0  0  0  0
    5.0328    1.4225   42.0058 N   0  3  0  0  0  0  0  0  0  0  0  0
    7.0311    0.3644   41.1401 C   0  0  1  0  0  0  0  0  0  0  0  0
    7.6890    0.3662   42.4052 O   0  0  0  0  0  0  0  0  0  0  0  0
    7.6129   -0.7550   40.2636 C   0  0  2  0  0  0  0  0  0  0  0  0
    9.0248   -0.6079   40.1491 O   0  0  0  0  0  0  0  0  0  0  0  0
    6.9087   -0.7958   38.8892 C   0  0  2  0  0  0  0  0  0  0  0  0
    5.5155   -1.0771   39.1405 O   0  0  0  0  0  0  0  0  0  0  0  0
    7.4417   -1.8704   37.9430 C   0  0  0  0  0  0  0  0  0  0  0  0
    6.5349   -2.1124   36.8755 O   0  0  0  0  0  0  0  0  0  0  0  0
    2.8390    1.4548   35.3179 C   0  0  1  0  0  0  0  0  0  0  0  0
    2.5298    1.4616   33.8762 N   0  3  0  0  0  0  0  0  0  0  0  0
    3.0344    0.0115   35.8730 C   0  0  2  0  0  0  0  0  0  0  0  0
    1.8576   -0.7656   35.6643 O   0  0  0  0  0  0  0  0  0  0  0  0
    3.3469    0.0299   37.3980 C   0  0  1  0  0  0  0  0  0  0  0  0
    3.6856   -1.3242   37.8207 O   0  0  0  0  0  0  0  0  0  0  0  0
    4.5289    0.9934   37.7443 C   0  0  1  0  0  0  0  0  0  0  0  0
    4.3464    2.4206   37.1358 C   0  0  1  0  0  0  0  0  0  0  0  0
    5.5242    3.2779   37.3956 N   0  3  0  0  0  0  0  0  0  0  0  0
    4.0894    2.3353   35.6090 C   0  0  0  0  0  0  0  0  0  0  0  0
    2.6497   -2.3570   37.8653 C   0  0  1  0  0  0  0  0  0  0  0  0
    3.3215   -3.7186   38.1232 C   0  0  2  0  0  0  0  0  0  0  0  0
    2.5236   -4.7867   37.6204 O   0  0  0  0  0  0  0  0  0  0  0  0
    3.3498   -3.6864   39.6588 C   0  0  1  0  0  0  0  0  0  0  0  0
    1.9724   -3.1410   39.9979 C   0  0  2  0  0  0  0  0  0  0  0  0
    1.7868   -2.1510   38.9979 O   0  0  0  0  0  0  0  0  0  0  0  0
    1.8413   -2.5196   41.3943 C   0  0  0  0  0  0  0  0  0  0  0  0
    0.4771   -2.2489   41.6812 O   0  0  0  0  0  0  0  0  0  0  0  0
    7.1437   -7.3998   40.2728 C   0  0  1  0  0  0  0  0  0  0  0  0
    6.4642   -8.6280   40.0190 O   0  0  0  0  0  0  0  0  0  0  0  0
    6.9405   -6.4397   39.0676 C   0  0  2  0  0  0  0  0  0  0  0  0
    7.9043   -5.3928   39.1542 O   0  0  0  0  0  0  0  0  0  0  0  0
    5.5164   -5.8040   38.9502 C   0  0  1  0  0  0  0  0  0  0  0  0
    4.6016   -6.7202   38.2343 N   0  3  0  0  0  0  0  0  0  0  0  0
    4.9648   -5.3631   40.3316 C   0  0  1  0  0  0  0  0  0  0  0  0
    3.5713   -4.9669   40.3116 O   0  0  0  0  0  0  0  0  0  0  0  0
    6.5981   -6.7411   41.5647 C   0  0  1  0  0  0  0  0  0  0  0  0
    5.2018   -6.4077   41.3345 O   0  0  0  0  0  0  0  0  0  0  0  0
    6.7559   -7.6141   42.8237 C   0  0  0  0  0  0  0  0  0  0  0  0
    7.3978   -8.9126   42.5402 N   0  3  0  0  0  0  0  0  0  0  0  0
  1  2  1  6  0  0  0
  1  3  1  0  0  0  0
  1 10  1  0  0  0  0
  3  4  1  6  0  0  0
  3  5  1  0  0  0  0
  5  6  1  1  0  0  0
  5  7  1  0  0  0  0
  7  8  1  6  0  0  0
  7  9  1  0  0  0  0
  9 10  1  0  0  0  0
  9 11  1  6  0  0  0
 11 12  1  0  0  0  0
 13 14  1  6  0  0  0
 13 15  1  0  0  0  0
 13 22  1  0  0  0  0
 15 16  1  1  0  0  0
 15 17  1  0  0  0  0
 17 18  1  6  0  0  0
 17 19  1  0  0  0  0
 19  2  1  1  0  0  0
 19 20  1  0  0  0  0
 20 21  1  6  0  0  0
 20 22  1  0  0  0  0
 23 18  1  1  0  0  0
 23 24  1  0  0  0  0
 23 28  1  0  0  0  0
 24 25  1  1  0  0  0
 24 26  1  0  0  0  0
 26 27  1  0  0  0  0
 26 38  1  1  0  0  0
 27 28  1  0  0  0  0
 27 29  1  1  0  0  0
 29 30  1  0  0  0  0
 31 32  1  6  0  0  0
 31 33  1  0  0  0  0
 31 39  1  0  0  0  0
 33 34  1  1  0  0  0
 33 35  1  0  0  0  0
 35 36  1  1  0  0  0
 35 37  1  0  0  0  0
 37 38  1  6  0  0  0
 37 40  1  0  0  0  0
 39 40  1  0  0  0  0
 39 41  1  1  0  0  0
 41 42  1  0  0  0  0
M  CHG  5   4   1  14   1  21   1  36   1  42   1
M  END
>  <CHROM.1>
154.03504545,57.64082267,-68.06592421,-56.33583831,-60.96590536,163.45768504
-40.93219290,-175.56235748,-61.96879689,-70.03588094,171.09560958,15.08795508
-46.75303672,79.94680849,-170.42349396,179.97890364,75.59788989,-67.18651353
-71.12777114,-72.27910198,-0.11594252,-53.60394094,4.86997037,-2.37494183
39.12790338,-1.87315474,0.64167639,2.91560955

>  <Name>
1pbr

>  <RI>
0

>  <Rbt.Current_Directory>
/home/itssahil/PROJECTS/Mol_Feturizer/New_Systems/rnas/1pbr

>  <Rbt.Executable>
rbdock ($Id: //depot/dev/client3/rdock/2013.1/src/exe/rbdock.cxx#4 $)

>  <Rbt.Library>
libRbt.so (2013.1, Build901 2013/11/27)

>  <Rbt.Parameter_File>
/export/apps/rDock/src/rDock_2013.1_src/data/scripts/dock_solv.prm

>  <Rbt.Receptor>
prm/pocket_docking_8.prm

>  <SCORE>
-47.5394

>  <SCORE.INTER>
-44.4162

>  <SCORE.INTER.CONST>
1

>  <SCORE.INTER.POLAR>
-7.09815

>  <SCORE.INTER.ROT>
9

>  <SCORE.INTER.SOLV>
38.086

>  <SCORE.INTER.VDW>
-28.2456

>  <SCORE.INTER.norm>
-1.05753

>  <SCORE.INTRA>
-3.12319

>  <SCORE.INTRA.DIHEDRAL>
-8.25111

>  <SCORE.INTRA.DIHEDRAL.0>
29.7866

>  <SCORE.INTRA.POLAR>
-1.33464

>  <SCORE.INTRA.POLAR.0>
-0.984091

>  <SCORE.INTRA.REPUL>
0.0878969

>  <SCORE.INTRA.REPUL.0>
0.274115

>  <SCORE.INTRA.SOLV>
1.48964

>  <SCORE.INTRA.SOLV.lig_0>
-152.978

>  <SCORE.INTRA.VDW>
4.35586

>  <SCORE.INTRA.VDW.0>
-6.10719

>  <SCORE.INTRA.norm>
-0.0743616

>  <SCORE.RESTR>
0

>  <SCORE.RESTR.CAVITY>
0

>  <SCORE.RESTR.norm>
0

>  <SCORE.SYSTEM>
0

>  <SCORE.SYSTEM.CONST>
0

>  <SCORE.SYSTEM.DIHEDRAL>
0

>  <SCORE.SYSTEM.SOLV>
0

>  <SCORE.SYSTEM.norm>
0

>  <SCORE.heavy>
42

>  <SCORE.norm>
-1.13189

>  <RMSD>
8.473

$$$$
1pbr
 OpenBabel11021811403D
libRbt.so/2013.1/901 2013/11/27
 42 45  0  0  0  0  0  0  0  0999 V2000
    0.6464    2.4730   37.9911 C   0  0  2  0  0  0  0  0  0  0  0  0
    0.8532    1.2197   37.2914 O   0  0  0  0  0  0  0  0  0  0  0  0
   -0.7989    2.5351   38.6119 C   0  0  2  0  0  0  0  0  0  0  0  0
   -1.2581    1.2653   39.2324 N   0  3  0  0  0  0  0  0  0  0  0  0
   -1.8554    2.9045   37.5536 C   0  0  1  0  0  0  0  0  0  0  0  0
   -3.1029    3.2147   38.1706 O   0  0  0  0  0  0  0  0  0  0  0  0
   -1.3935    4.0998   36.7065 C   0  0  2  0  0  0  0  0  0  0  0  0
   -2.4004    4.4541   35.7637 O   0  0  0  0  0  0  0  0  0  0  0  0
   -0.0336    3.8028   36.0365 C   0  0  2  0  0  0  0  0  0  0  0  0
    0.9192    3.5891   37.0993 O   0  0  0  0  0  0  0  0  0  0  0  0
    0.4919    4.9348   35.1552 C   0  0  0  0  0  0  0  0  0  0  0  0
   -0.4552    5.2931   34.1577 O   0  0  0  0  0  0  0  0  0  0  0  0
    4.0236   -1.2412   35.8422 C   0  0  1  0  0  0  0  0  0  0  0  0
    5.3132   -1.8295   35.4362 N   0  3  0  0  0  0  0  0  0  0  0  0
    3.8961   -1.1094   37.3901 C   0  0  2  0  0  0  0  0  0  0  0  0
    4.0200   -2.3871   38.0103 O   0  0  0  0  0  0  0  0  0  0  0  0
    2.5224   -0.4983   37.7940 C   0  0  1  0  0  0  0  0  0  0  0  0
    2.5300   -0.2431   39.2300 O   0  0  0  0  0  0  0  0  0  0  0  0
    2.2243    0.8337   37.0311 C   0  0  1  0  0  0  0  0  0  0  0  0
    2.4090    0.7019   35.4854 C   0  0  1  0  0  0  0  0  0  0  0  0
    2.2176    2.0001   34.8016 N   0  3  0  0  0  0  0  0  0  0  0  0
    3.8131    0.1366   35.1488 C   0  0  0  0  0  0  0  0  0  0  0  0
    2.8863    1.0835   39.7351 C   0  0  1  0  0  0  0  0  0  0  0  0
    2.5069    1.1619   41.2257 C   0  0  2  0  0  0  0  0  0  0  0  0
    2.2750    2.5099   41.6248 O   0  0  0  0  0  0  0  0  0  0  0  0
    3.7963    0.5889   41.8330 C   0  0  1  0  0  0  0  0  0  0  0  0
    4.8753    1.2745   41.0112 C   0  0  2  0  0  0  0  0  0  0  0  0
    4.3134    1.2621   39.7078 O   0  0  0  0  0  0  0  0  0  0  0  0
    6.2401    0.5739   41.0102 C   0  0  0  0  0  0  0  0  0  0  0  0
    6.9286    0.8462   42.2219 O   0  0  0  0  0  0  0  0  0  0  0  0
    0.8472   -0.7311   45.7665 C   0  0  1  0  0  0  0  0  0  0  0  0
    1.5133   -1.9583   46.0582 O   0  0  0  0  0  0  0  0  0  0  0  0
    1.6734    0.4532   46.3413 C   0  0  2  0  0  0  0  0  0  0  0  0
    0.8413    1.6102   46.3799 O   0  0  0  0  0  0  0  0  0  0  0  0
    2.9815    0.8002   45.5575 C   0  0  1  0  0  0  0  0  0  0  0  0
    4.0975   -0.0571   46.0140 N   0  3  0  0  0  0  0  0  0  0  0  0
    2.7681    0.7408   44.0220 C   0  0  1  0  0  0  0  0  0  0  0  0
    3.9910    0.8423   43.2517 O   0  0  0  0  0  0  0  0  0  0  0  0
    0.6826   -0.5602   44.2353 C   0  0  1  0  0  0  0  0  0  0  0  0
    2.0127   -0.4630   43.6565 O   0  0  0  0  0  0  0  0  0  0  0  0
   -0.1287   -1.6856   43.5664 C   0  0  0  0  0  0  0  0  0  0  0  0
   -1.2926   -2.1050   44.3713 N   0  3  0  0  0  0  0  0  0  0  0  0
  1  2  1  6  0  0  0
  1  3  1  0  0  0  0
  1 10  1  0  0  0  0
  3  4  1  6  0  0  0
  3  5  1  0  0  0  0
  5  6  1  1  0  0  0
  5  7  1  0  0  0  0
  7  8  1  6  0  0  0
  7  9  1  0  0  0  0
  9 10  1  0  0  0  0
  9 11  1  1  0  0  0
 11 12  1  0  0  0  0
 13 14  1  1  0  0  0
 13 15  1  0  0  0  0
 13 22  1  0  0  0  0
 15 16  1  1  0  0  0
 15 17  1  0  0  0  0
 17 18  1  1  0  0  0
 17 19  1  0  0  0  0
 19  2  1  6  0  0  0
 19 20  1  0  0  0  0
 20 21  1  6  0  0  0
 20 22  1  0  0  0  0
 23 18  1  1  0  0  0
 23 24  1  0  0  0  0
 23 28  1  0  0  0  0
 24 25  1  1  0  0  0
 24 26  1  0  0  0  0
 26 27  1  0  0  0  0
 26 38  1  1  0  0  0
 27 28  1  0  0  0  0
 27 29  1  6  0  0  0
 29 30  1  0  0  0  0
 31 32  1  6  0  0  0
 31 33  1  0  0  0  0
 31 39  1  0  0  0  0
 33 34  1  6  0  0  0
 33 35  1  0  0  0  0
 35 36  1  1  0  0  0
 35 37  1  0  0  0  0
 37 38  1  6  0  0  0
 37 40  1  0  0  0  0
 39 40  1  0  0  0  0
 39 41  1  6  0  0  0
 41 42  1  0  0  0  0
M  CHG  5   4   1  14   1  21   1  36   1  42   1
M  END
>  <CHROM.1>
-161.38491056,116.97441584,88.79382946,-61.17167915,-164.79593575,-55.66096178
-168.44441705,-143.62830423,-70.90130449,94.95677780,167.29719314,133.84338445
-70.11120641,39.15223731,-77.98453783,-169.79331751,-176.69575207,58.17225703
-175.64764710,171.49410569,40.37445582,37.62349802,1.85290646,1.00308608
39.95483178,1.77231776,0.47723736,-1.35648025

>  <Name>
1pbr

>  <RI>
0

>  <Rbt.Current_Directory>
/home/itssahil/PROJECTS/Mol_Feturizer/New_Systems/rnas/1pbr

>  <Rbt.Executable>
rbdock ($Id: //depot/dev/client3/rdock/2013.1/src/exe/rbdock.cxx#4 $)

>  <Rbt.Library>
libRbt.so (2013.1, Build901 2013/11/27)

>  <Rbt.Parameter_File>
/export/apps/rDock/src/rDock_2013.1_src/data/scripts/dock_solv.prm

>  <Rbt.Receptor>
prm/blind_docking_100.prm

>  <SCORE>
-21.8726

>  <SCORE.INTER>
-28.6007

>  <SCORE.INTER.CONST>
1

>  <SCORE.INTER.POLAR>
-5.93317

>  <SCORE.INTER.ROT>
9

>  <SCORE.INTER.SOLV>
38.6399

>  <SCORE.INTER.VDW>
-21.7699

>  <SCORE.INTER.norm>
-0.680969

>  <SCORE.INTRA>
5.23998

>  <SCORE.INTRA.DIHEDRAL>
1.21375

>  <SCORE.INTRA.DIHEDRAL.0>
29.7866

>  <SCORE.INTRA.POLAR>
-0.387987

>  <SCORE.INTRA.POLAR.0>
-0.984091

>  <SCORE.INTRA.REPUL>
-0.238833

>  <SCORE.INTRA.REPUL.0>
0.274115

>  <SCORE.INTRA.SOLV>
1.62705

>  <SCORE.INTRA.SOLV.lig_0>
-152.978

>  <SCORE.INTRA.VDW>
6.3329

>  <SCORE.INTRA.VDW.0>
-6.10719

>  <SCORE.INTRA.norm>
0.124761

>  <SCORE.RESTR>
1.48809

>  <SCORE.RESTR.CAVITY>
1.48809

>  <SCORE.RESTR.norm>
0.0354306

>  <SCORE.SYSTEM>
0

>  <SCORE.SYSTEM.CONST>
0

>  <SCORE.SYSTEM.DIHEDRAL>
0

>  <SCORE.SYSTEM.SOLV>
0

>  <SCORE.SYSTEM.norm>
0

>  <SCORE.heavy>
42

>  <SCORE.norm>
-0.520777

>  <RMSD>
8.483

$$$$
1pbr
 OpenBabel11021811403D
libRbt.so/2013.1/901 2013/11/27
 42 45  0  0  0  0  0  0  0  0999 V2000
    5.7578   -4.4977   39.9326 C   0  0  2  0  0  0  0  0  0  0  0  0
    4.8044   -3.9226   40.8618 O   0  0  0  0  0  0  0  0  0  0  0  0
    5.0170   -5.1967   38.7323 C   0  0  2  0  0  0  0  0  0  0  0  0
    3.8461   -4.4458   38.2094 N   0  3  0  0  0  0  0  0  0  0  0  0
    4.4945   -6.5920   39.1234 C   0  0  1  0  0  0  0  0  0  0  0  0
    4.0666   -7.3137   37.9704 O   0  0  0  0  0  0  0  0  0  0  0  0
    5.5744   -7.3993   39.8595 C   0  0  2  0  0  0  0  0  0  0  0  0
    5.0883   -8.7004   40.1741 O   0  0  0  0  0  0  0  0  0  0  0  0
    6.0732   -6.6363   41.1067 C   0  0  2  0  0  0  0  0  0  0  0  0
    6.6537   -5.4008   40.6376 O   0  0  0  0  0  0  0  0  0  0  0  0
    7.1376   -7.3792   41.9124 C   0  0  0  0  0  0  0  0  0  0  0  0
    8.2614   -6.5480   42.1708 O   0  0  0  0  0  0  0  0  0  0  0  0
    7.2146   -0.5361   41.8264 C   0  0  1  0  0  0  0  0  0  0  0  0
    7.8267    0.6691   42.4155 N   0  3  0  0  0  0  0  0  0  0  0  0
    7.3707   -1.7863   42.7442 C   0  0  2  0  0  0  0  0  0  0  0  0
    8.7494   -2.0572   42.9859 O   0  0  0  0  0  0  0  0  0  0  0  0
    6.7285   -3.0474   42.0956 C   0  0  1  0  0  0  0  0  0  0  0  0
    6.7547   -4.1353   43.0665 O   0  0  0  0  0  0  0  0  0  0  0  0
    5.2539   -2.7897   41.6435 C   0  0  1  0  0  0  0  0  0  0  0  0
    5.1033   -1.5034   40.7698 C   0  0  1  0  0  0  0  0  0  0  0  0
    3.6864   -1.2313   40.4412 N   0  3  0  0  0  0  0  0  0  0  0  0
    5.7164   -0.2763   41.4929 C   0  0  0  0  0  0  0  0  0  0  0  0
    6.6748   -3.8403   44.4978 C   0  0  1  0  0  0  0  0  0  0  0  0
    5.4763   -2.9043   44.7422 C   0  0  2  0  0  0  0  0  0  0  0  0
    5.6617   -2.1337   45.9263 O   0  0  0  0  0  0  0  0  0  0  0  0
    4.3736   -3.9617   44.9028 C   0  0  1  0  0  0  0  0  0  0  0  0
    5.0515   -5.0090   45.7706 C   0  0  2  0  0  0  0  0  0  0  0  0
    6.3669   -5.0347   45.2380 O   0  0  0  0  0  0  0  0  0  0  0  0
    4.4260   -6.4088   45.7142 C   0  0  0  0  0  0  0  0  0  0  0  0
    4.5088   -6.9268   44.3947 O   0  0  0  0  0  0  0  0  0  0  0  0
    0.6061   -0.1505   44.5018 C   0  0  1  0  0  0  0  0  0  0  0  0
    0.2045    0.1245   45.8426 O   0  0  0  0  0  0  0  0  0  0  0  0
    2.1388    0.0692   44.3676 C   0  0  2  0  0  0  0  0  0  0  0  0
    2.4644    0.1601   42.9826 O   0  0  0  0  0  0  0  0  0  0  0  0
    3.0335   -1.0333   45.0232 C   0  0  1  0  0  0  0  0  0  0  0  0
    3.2291   -0.7487   46.4619 N   0  3  0  0  0  0  0  0  0  0  0  0
    2.4782   -2.4584   44.7632 C   0  0  1  0  0  0  0  0  0  0  0  0
    3.1423   -3.4984   45.5225 O   0  0  0  0  0  0  0  0  0  0  0  0
    0.2512   -1.6104   44.1234 C   0  0  1  0  0  0  0  0  0  0  0  0
    1.0275   -2.4901   44.9821 O   0  0  0  0  0  0  0  0  0  0  0  0
   -1.2520   -1.9314   44.2203 C   0  0  0  0  0  0  0  0  0  0  0  0
   -1.5245   -3.1552   44.9992 N   0  3  0  0  0  0  0  0  0  0  0  0
  1  2  1  1  0  0  0
  1  3  1  0  0  0  0
  1 10  1  0  0  0  0
  3  4  1  1  0  0  0
  3  5  1  0  0  0  0
  5  6  1  6  0  0  0
  5  7  1  0  0  0  0
  7  8  1  1  0  0  0
  7  9  1  0  0  0  0
  9 10  1  0  0  0  0
  9 11  1  6  0  0  0
 11 12  1  0  0  0  0
 13 14  1  1  0  0  0
 13 15  1  0  0  0  0
 13 22  1  0  0  0  0
 15 16  1  6  0  0  0
 15 17  1  0  0  0  0
 17 18  1  1  0  0  0
 17 19  1  0  0  0  0
 19  2  1  6  0  0  0
 19 20  1  0  0  0  0
 20 21  1  1  0  0  0
 20 22  1  0  0  0  0
 23 18  1  6  0  0  0
 23 24  1  0  0  0  0
 23 28  1  0  0  0  0
 24 25  1  1  0  0  0
 24 26  1  0  0  0  0
 26 27  1  0  0  0  0
 26 38  1  1  0  0  0
 27 28  1  0  0  0  0
 27 29  1  6  0  0  0
 29 30  1  0  0  0  0
 31 32  1  1  0  0  0
 31 33  1  0  0  0  0
 31 39  1  0  0  0  0
 33 34  1  6  0  0  0
 33 35  1  0  0  0  0
 35 36  1  1  0  0  0
 35 37  1  0  0  0  0
 37 38  1  1  0  0  0
 37 40  1  0  0  0  0
 39 40  1  0  0  0  0
 39 41  1  1  0  0  0
 41 42  1  0  0  0  0
M  CHG  5   4   1  14   1  21   1  36   1  42   1
M  END
>  <CHROM.1>
-153.24930440,-40.28416423,-179.41700676,-172.09539124,67.75648862,129.62939079
-76.36520957,-48.56847317,60.91931834,30.40736784,50.53065596,-46.31346058
61.47179148,61.90648290,61.96802503,-177.51685633,55.01019381,-32.30902024
-144.65819959,-83.20371581,-129.66711953,-42.91065955,4.49833418,-3.42825437
42.84390771,0.95613782,-0.23994128,-2.57581567

>  <Name>
1pbr

>  <RI>
0

>  <Rbt.Current_Directory>
/home/itssahil/PROJECTS/Mol_Feturizer/New_Systems/rnas/1pbr

>  <Rbt.Executable>
rbdock ($Id: //depot/dev/client3/rdock/2013.1/src/exe/rbdock.cxx#4 $)

>  <Rbt.Library>
libRbt.so (2013.1, Build901 2013/11/27)

>  <Rbt.Parameter_File>
/export/apps/rDock/src/rDock_2013.1_src/data/scripts/dock_solv.prm

>  <Rbt.Receptor>
prm/pocket_docking_6.prm

>  <SCORE>
-23.5468

>  <SCORE.INTER>
-24.6608

>  <SCORE.INTER.CONST>
1

>  <SCORE.INTER.POLAR>
-4.28942

>  <SCORE.INTER.ROT>
9

>  <SCORE.INTER.SOLV>
19.9606

>  <SCORE.INTER.VDW>
-18.396

>  <SCORE.INTER.norm>
-0.587162

>  <SCORE.INTRA>
1.11396

>  <SCORE.INTRA.DIHEDRAL>
0.691145

>  <SCORE.INTRA.DIHEDRAL.0>
29.7866

>  <SCORE.INTRA.POLAR>
-1.00215

>  <SCORE.INTRA.POLAR.0>
-0.984091

>  <SCORE.INTRA.REPUL>
-0.247296

>  <SCORE.INTRA.REPUL.0>
0.274115

>  <SCORE.INTRA.SOLV>
5.90246

>  <SCORE.INTRA.SOLV.lig_0>
-152.978

>  <SCORE.INTRA.VDW>
2.46094

>  <SCORE.INTRA.VDW.0>
-6.10719

>  <SCORE.INTRA.norm>
0.0265229

>  <SCORE.RESTR>
0

>  <SCORE.RESTR.CAVITY>
0

>  <SCORE.RESTR.norm>
0

>  <SCORE.SYSTEM>
0

>  <SCORE.SYSTEM.CONST>
0

>  <SCORE.SYSTEM.DIHEDRAL>
0

>  <SCORE.SYSTEM.SOLV>
0

>  <SCORE.SYSTEM.norm>
0

>  <SCORE.heavy>
42

>  <SCORE.norm>
-0.560639

>  <RMSD>
8.485

$$$$
1pbr
 OpenBabel11021811403D
libRbt.so/2013.1/901 2013/11/27
 42 45  0  0  0  0  0  0  0  0999 V2000
    4.9841   -1.0786   40.1495 C   0  0  2  0  0  0  0  0  0  0  0  0
    4.3411    0.2086   40.3304 O   0  0  0  0  0  0  0  0  0  0  0  0
    6.3479   -1.1376   40.9336 C   0  0  2  0  0  0  0  0  0  0  0  0
    6.3085   -0.5220   42.2856 N   0  3  0  0  0  0  0  0  0  0  0  0
    7.4749   -0.4209   40.1662 C   0  0  1  0  0  0  0  0  0  0  0  0
    8.7447   -0.7063   40.7488 O   0  0  0  0  0  0  0  0  0  0  0  0
    7.4865   -0.8364   38.6874 C   0  0  2  0  0  0  0  0  0  0  0  0
    8.5608   -0.1980   38.0045 O   0  0  0  0  0  0  0  0  0  0  0  0
    6.1172   -0.5562   38.0294 C   0  0  2  0  0  0  0  0  0  0  0  0
    5.1433   -1.3578   38.7310 O   0  0  0  0  0  0  0  0  0  0  0  0
    6.0467   -0.9218   36.5477 C   0  0  0  0  0  0  0  0  0  0  0  0
    4.8781   -0.3871   35.9403 O   0  0  0  0  0  0  0  0  0  0  0  0
    0.7328    2.1995   39.2238 C   0  0  1  0  0  0  0  0  0  0  0  0
   -0.5064    2.6717   38.5793 N   0  3  0  0  0  0  0  0  0  0  0  0
    0.5843    0.7614   39.8064 C   0  0  2  0  0  0  0  0  0  0  0  0
   -0.4649    0.7210   40.7708 O   0  0  0  0  0  0  0  0  0  0  0  0
    1.9003    0.2907   40.4922 C   0  0  1  0  0  0  0  0  0  0  0  0
    1.7564   -1.1124   40.8632 O   0  0  0  0  0  0  0  0  0  0  0  0
    3.1424    0.4561   39.5568 C   0  0  1  0  0  0  0  0  0  0  0  0
    3.2486    1.8860   38.9365 C   0  0  1  0  0  0  0  0  0  0  0  0
    4.3740    1.9826   37.9806 N   0  3  0  0  0  0  0  0  0  0  0  0
    1.9257    2.2736   38.2264 C   0  0  0  0  0  0  0  0  0  0  0  0
    0.8963   -1.4873   41.9863 C   0  0  1  0  0  0  0  0  0  0  0  0
    0.6143   -2.9994   41.9083 C   0  0  2  0  0  0  0  0  0  0  0  0
   -0.6101   -3.3262   42.5597 O   0  0  0  0  0  0  0  0  0  0  0  0
    1.8391   -3.5131   42.6801 C   0  0  1  0  0  0  0  0  0  0  0  0
    1.9183   -2.5428   43.8471 C   0  0  2  0  0  0  0  0  0  0  0  0
    1.5929   -1.3058   43.2318 O   0  0  0  0  0  0  0  0  0  0  0  0
    3.2887   -2.4539   44.5311 C   0  0  0  0  0  0  0  0  0  0  0  0
    3.6318   -3.7089   45.0999 O   0  0  0  0  0  0  0  0  0  0  0  0
    1.8618   -8.4683   40.7418 C   0  0  1  0  0  0  0  0  0  0  0  0
    0.6575   -9.0202   41.2709 O   0  0  0  0  0  0  0  0  0  0  0  0
    1.5388   -7.1393   40.0035 C   0  0  2  0  0  0  0  0  0  0  0  0
    2.6493   -6.7982   39.1770 O   0  0  0  0  0  0  0  0  0  0  0  0
    1.2076   -5.9225   40.9285 C   0  0  1  0  0  0  0  0  0  0  0  0
   -0.2238   -5.9353   41.3025 N   0  3  0  0  0  0  0  0  0  0  0  0
    2.1493   -5.8594   42.1597 C   0  0  1  0  0  0  0  0  0  0  0  0
    1.7538   -4.8846   43.1560 O   0  0  0  0  0  0  0  0  0  0  0  0
    2.8763   -8.2007   41.8818 C   0  0  1  0  0  0  0  0  0  0  0  0
    2.3016   -7.1914   42.7563 O   0  0  0  0  0  0  0  0  0  0  0  0
    3.2670   -9.4607   42.6767 C   0  0  0  0  0  0  0  0  0  0  0  0
    2.1215  -10.0676   43.3824 N   0  3  0  0  0  0  0  0  0  0  0  0
  1  2  1  6  0  0  0
  1  3  1  0  0  0  0
  1 10  1  0  0  0  0
  3  4  1  1  0  0  0
  3  5  1  0  0  0  0
  5  6  1  1  0  0  0
  5  7  1  0  0  0  0
  7  8  1  6  0  0  0
  7  9  1  0  0  0  0
  9 10  1  0  0  0  0
  9 11  1  6  0  0  0
 11 12  1  0  0  0  0
 13 14  1  6  0  0  0
 13 15  1  0  0  0  0
 13 22  1  0  0  0  0
 15 16  1  1  0  0  0
 15 17  1  0  0  0  0
 17 18  1  6  0  0  0
 17 19  1  0  0  0  0
 19  2  1  1  0  0  0
 19 20  1  0  0  0  0
 20 21  1  6  0  0  0
 20 22  1  0  0  0  0
 23 18  1  6  0  0  0
 23 24  1  0  0  0  0
 23 28  1  0  0  0  0
 24 25  1  1  0  0  0
 24 26  1  0  0  0  0
 26 27  1  0  0  0  0
 26 38  1  1  0  0  0
 27 28  1  0  0  0  0
 27 29  1  6  0  0  0
 29 30  1  0  0  0  0
 31 32  1  1  0  0  0
 31 33  1  0  0  0  0
 31 39  1  0  0  0  0
 33 34  1  1  0  0  0
 33 35  1  0  0  0  0
 35 36  1  1  0  0  0
 35 37  1  0  0  0  0
 37 38  1  1  0  0  0
 37 40  1  0  0  0  0
 39 40  1  0  0  0  0
 39 41  1  1  0  0  0
 41 42  1  0  0  0  0
M  CHG  5   4   1  14   1  21   1  36   1  42   1
M  END
>  <CHROM.1>
173.91824120,102.87553774,174.00651795,-163.85042389,69.95045285,-167.64992509
169.28348764,-73.07336000,70.75500670,-72.92983106,164.22930911,174.37407365
51.62978327,84.92717492,-62.65905940,-58.18598294,65.04668870,-63.34550264
167.83114113,-65.65540343,-62.94806599,41.55100813,3.05347140,-2.54281866
40.72634542,-1.24980150,-0.27510408,2.83493192

>  <Name>
1pbr

>  <RI>
0

>  <Rbt.Current_Directory>
/home/itssahil/PROJECTS/Mol_Feturizer/New_Systems/rnas/1pbr

>  <Rbt.Executable>
rbdock ($Id: //depot/dev/client3/rdock/2013.1/src/exe/rbdock.cxx#4 $)

>  <Rbt.Library>
libRbt.so (2013.1, Build901 2013/11/27)

>  <Rbt.Parameter_File>
/export/apps/rDock/src/rDock_2013.1_src/data/scripts/dock_solv.prm

>  <Rbt.Receptor>
prm/pocket_docking_8.prm

>  <SCORE>
-40.4805

>  <SCORE.INTER>
-29.3028

>  <SCORE.INTER.CONST>
1

>  <SCORE.INTER.POLAR>
-5.29274

>  <SCORE.INTER.ROT>
9

>  <SCORE.INTER.SOLV>
15.8194

>  <SCORE.INTER.VDW>
-16.7658

>  <SCORE.INTER.norm>
-0.697685

>  <SCORE.INTRA>
-11.1778

>  <SCORE.INTRA.DIHEDRAL>
-12.2553

>  <SCORE.INTRA.DIHEDRAL.0>
29.7866

>  <SCORE.INTRA.POLAR>
-1.8857

>  <SCORE.INTRA.POLAR.0>
-0.984091

>  <SCORE.INTRA.REPUL>
-0.274115

>  <SCORE.INTRA.REPUL.0>
0.274115

>  <SCORE.INTRA.SOLV>
6.07501

>  <SCORE.INTRA.SOLV.lig_0>
-152.978

>  <SCORE.INTRA.VDW>
-0.305654

>  <SCORE.INTRA.VDW.0>
-6.10719

>  <SCORE.INTRA.norm>
-0.266137

>  <SCORE.RESTR>
0

>  <SCORE.RESTR.CAVITY>
0

>  <SCORE.RESTR.norm>
0

>  <SCORE.SYSTEM>
0

>  <SCORE.SYSTEM.CONST>
0

>  <SCORE.SYSTEM.DIHEDRAL>
0

>  <SCORE.SYSTEM.SOLV>
0

>  <SCORE.SYSTEM.norm>
0

>  <SCORE.heavy>
42

>  <SCORE.norm>
-0.963822

>  <RMSD>
8.509

$$$$
1pbr
 OpenBabel11021811403D
libRbt.so/2013.1/901 2013/11/27
 42 45  0  0  0  0  0  0  0  0999 V2000
    1.0718    1.4780   38.6467 C   0  0  2  0  0  0  0  0  0  0  0  0
    1.0766    0.1096   38.1664 O   0  0  0  0  0  0  0  0  0  0  0  0
   -0.3836    1.9253   39.0465 C   0  0  2  0  0  0  0  0  0  0  0  0
   -1.1688    0.8921   39.7706 N   0  3  0  0  0  0  0  0  0  0  0  0
   -1.2175    2.3130   37.8107 C   0  0  1  0  0  0  0  0  0  0  0  0
   -2.4270    2.9606   38.1992 O   0  0  0  0  0  0  0  0  0  0  0  0
   -0.4217    3.2359   36.8754 C   0  0  2  0  0  0  0  0  0  0  0  0
   -1.2230    3.6185   35.7619 O   0  0  0  0  0  0  0  0  0  0  0  0
    0.9053    2.5701   36.4487 C   0  0  2  0  0  0  0  0  0  0  0  0
    1.6717    2.3540   37.6526 O   0  0  0  0  0  0  0  0  0  0  0  0
    1.7528    3.4136   35.4977 C   0  0  0  0  0  0  0  0  0  0  0  0
    2.3786    4.4904   36.1828 O   0  0  0  0  0  0  0  0  0  0  0  0
    3.7861   -3.1390   37.6073 C   0  0  1  0  0  0  0  0  0  0  0  0
    4.9577   -4.0175   37.4348 N   0  3  0  0  0  0  0  0  0  0  0  0
    3.7034   -2.5404   39.0441 C   0  0  2  0  0  0  0  0  0  0  0  0
    3.6275   -3.5828   40.0138 O   0  0  0  0  0  0  0  0  0  0  0  0
    2.4525   -1.6277   39.2050 C   0  0  1  0  0  0  0  0  0  0  0  0
    2.5216   -0.9672   40.5035 O   0  0  0  0  0  0  0  0  0  0  0  0
    2.3633   -0.5484   38.0771 C   0  0  1  0  0  0  0  0  0  0  0  0
    2.5025   -1.1553   36.6443 C   0  0  1  0  0  0  0  0  0  0  0  0
    2.5142   -0.1017   35.6054 N   0  3  0  0  0  0  0  0  0  0  0  0
    3.7918   -2.0100   36.5354 C   0  0  0  0  0  0  0  0  0  0  0  0
    3.6086   -0.0302   40.7905 C   0  0  1  0  0  0  0  0  0  0  0  0
    3.2139    0.8247   42.0092 C   0  0  2  0  0  0  0  0  0  0  0  0
    3.8915    2.0781   41.9965 O   0  0  0  0  0  0  0  0  0  0  0  0
    3.7212   -0.0996   43.1264 C   0  0  1  0  0  0  0  0  0  0  0  0
    5.0659   -0.5560   42.5851 C   0  0  2  0  0  0  0  0  0  0  0  0
    4.7867   -0.7435   41.2061 O   0  0  0  0  0  0  0  0  0  0  0  0
    5.6121   -1.8513   43.1995 C   0  0  0  0  0  0  0  0  0  0  0  0
    6.8983   -2.1373   42.6701 O   0  0  0  0  0  0  0  0  0  0  0  0
    3.9208   -2.1741   47.8146 C   0  0  1  0  0  0  0  0  0  0  0  0
    5.3382   -2.1610   47.9748 O   0  0  0  0  0  0  0  0  0  0  0  0
    3.3604   -0.7466   48.0671 C   0  0  2  0  0  0  0  0  0  0  0  0
    1.9530   -0.8420   48.2741 O   0  0  0  0  0  0  0  0  0  0  0  0
    3.6323    0.2909   46.9290 C   0  0  1  0  0  0  0  0  0  0  0  0
    4.9681    0.9036   47.0998 N   0  3  0  0  0  0  0  0  0  0  0  0
    3.4321   -0.3298   45.5213 C   0  0  1  0  0  0  0  0  0  0  0  0
    3.8755    0.5185   44.4337 O   0  0  0  0  0  0  0  0  0  0  0  0
    3.5461   -2.6383   46.3846 C   0  0  1  0  0  0  0  0  0  0  0  0
    4.0643   -1.6521   45.4504 O   0  0  0  0  0  0  0  0  0  0  0  0
    4.0542   -4.0495   46.0345 C   0  0  0  0  0  0  0  0  0  0  0  0
    3.5083   -4.5515   44.7584 N   0  3  0  0  0  0  0  0  0  0  0  0
  1  2  1  6  0  0  0
  1  3  1  0  0  0  0
  1 10  1  0  0  0  0
  3  4  1  6  0  0  0
  3  5  1  0  0  0  0
  5  6  1  1  0  0  0
  5  7  1  0  0  0  0
  7  8  1  6  0  0  0
  7  9  1  0  0  0  0
  9 10  1  0  0  0  0
  9 11  1  6  0  0  0
 11 12  1  0  0  0  0
 13 14  1  1  0  0  0
 13 15  1  0  0  0  0
 13 22  1  0  0  0  0
 15 16  1  1  0  0  0
 15 17  1  0  0  0  0
 17 18  1  1  0  0  0
 17 19  1  0  0  0  0
 19  2  1  6  0  0  0
 19 20  1  0  0  0  0
 20 21  1  6  0  0  0
 20 22  1  0  0  0  0
 23 18  1  1  0  0  0
 23 24  1  0  0  0  0
 23 28  1  0  0  0  0
 24 25  1  6  0  0  0
 24 26  1  0  0  0  0
 26 27  1  0  0  0  0
 26 38  1  1  0  0  0
 27 28  1  0  0  0  0
 27 29  1  1  0  0  0
 29 30  1  0  0  0  0
 31 32  1  6  0  0  0
 31 33  1  0  0  0  0
 31 39  1  0  0  0  0
 33 34  1  6  0  0  0
 33 35  1  0  0  0  0
 35 36  1  6  0  0  0
 35 37  1  0  0  0  0
 37 38  1  6  0  0  0
 37 40  1  0  0  0  0
 39 40  1  0  0  0  0
 39 41  1  6  0  0  0
 41 42  1  0  0  0  0
M  CHG  5   4   1  14   1  21   1  36   1  42   1
M  END
>  <CHROM.1>
-165.10342692,108.48570584,-56.92348824,-64.85129006,172.85595445,74.28416829
-62.20526834,168.54126433,-43.73268064,63.92423942,162.77414137,-60.37114513
-173.24314550,139.14560499,-176.91317593,-60.24540581,-62.97748787,-175.86949949
-20.94714757,178.03333605,170.94413801,-175.48796316,2.78448497,-0.23855917
41.12300532,2.13133675,0.92693531,-1.69383004

>  <Name>
1pbr

>  <RI>
0

>  <Rbt.Current_Directory>
/home/itssahil/PROJECTS/Mol_Feturizer/New_Systems/rnas/1pbr

>  <Rbt.Executable>
rbdock ($Id: //depot/dev/client3/rdock/2013.1/src/exe/rbdock.cxx#4 $)

>  <Rbt.Library>
libRbt.so (2013.1, Build901 2013/11/27)

>  <Rbt.Parameter_File>
/export/apps/rDock/src/rDock_2013.1_src/data/scripts/dock_solv.prm

>  <Rbt.Receptor>
prm/pocket_docking_4.prm

>  <SCORE>
-36.9489

>  <SCORE.INTER>
-35.4466

>  <SCORE.INTER.CONST>
1

>  <SCORE.INTER.POLAR>
-6.94632

>  <SCORE.INTER.ROT>
9

>  <SCORE.INTER.SOLV>
36.3687

>  <SCORE.INTER.VDW>
-22.1996

>  <SCORE.INTER.norm>
-0.843966

>  <SCORE.INTRA>
-1.53622

>  <SCORE.INTRA.DIHEDRAL>
-8.34434

>  <SCORE.INTRA.DIHEDRAL.0>
29.7866

>  <SCORE.INTRA.POLAR>
0.979823

>  <SCORE.INTRA.POLAR.0>
-0.984091

>  <SCORE.INTRA.REPUL>
-0.274115

>  <SCORE.INTRA.REPUL.0>
0.274115

>  <SCORE.INTRA.SOLV>
-0.985849

>  <SCORE.INTRA.SOLV.lig_0>
-152.978

>  <SCORE.INTRA.VDW>
1.16806

>  <SCORE.INTRA.VDW.0>
-6.10719

>  <SCORE.INTRA.norm>
-0.0365766

>  <SCORE.RESTR>
0.0338339

>  <SCORE.RESTR.CAVITY>
0.0338339

>  <SCORE.RESTR.norm>
0.000805569

>  <SCORE.SYSTEM>
0

>  <SCORE.SYSTEM.CONST>
0

>  <SCORE.SYSTEM.DIHEDRAL>
0

>  <SCORE.SYSTEM.SOLV>
0

>  <SCORE.SYSTEM.norm>
0

>  <SCORE.heavy>
42

>  <SCORE.norm>
-0.879737

>  <RMSD>
8.511

$$$$
1pbr
 OpenBabel11021811403D
libRbt.so/2013.1/901 2013/11/27
 42 45  0  0  0  0  0  0  0  0999 V2000
    5.6237   -0.7837   38.5274 C   0  0  2  0  0  0  0  0  0  0  0  0
    4.4146   -1.5503   38.2955 O   0  0  0  0  0  0  0  0  0  0  0  0
    6.7401   -1.6833   39.1775 C   0  0  2  0  0  0  0  0  0  0  0  0
    6.8386   -3.0519   38.6069 N   0  3  0  0  0  0  0  0  0  0  0  0
    6.5145   -1.8623   40.6907 C   0  0  1  0  0  0  0  0  0  0  0  0
    7.6594   -2.4476   41.3072 O   0  0  0  0  0  0  0  0  0  0  0  0
    6.2027   -0.5178   41.3650 C   0  0  2  0  0  0  0  0  0  0  0  0
    6.0405   -0.6964   42.7686 O   0  0  0  0  0  0  0  0  0  0  0  0
    4.9756    0.1523   40.7080 C   0  0  2  0  0  0  0  0  0  0  0  0
    5.3189    0.3924   39.3268 O   0  0  0  0  0  0  0  0  0  0  0  0
    4.5815    1.4894   41.3333 C   0  0  0  0  0  0  0  0  0  0  0  0
    5.6688    2.0659   42.0445 O   0  0  0  0  0  0  0  0  0  0  0  0
    1.7301    1.7665   38.2982 C   0  0  1  0  0  0  0  0  0  0  0  0
    0.6351    2.7270   38.0692 N   0  3  0  0  0  0  0  0  0  0  0  0
    1.2403    0.4734   39.0177 C   0  0  2  0  0  0  0  0  0  0  0  0
    0.6569    0.7957   40.2780 O   0  0  0  0  0  0  0  0  0  0  0  0
    2.4155   -0.5186   39.2595 C   0  0  1  0  0  0  0  0  0  0  0  0
    1.8710   -1.7691   39.7759 O   0  0  0  0  0  0  0  0  0  0  0  0
    3.2224   -0.8042   37.9509 C   0  0  1  0  0  0  0  0  0  0  0  0
    3.6600    0.5003   37.2111 C   0  0  1  0  0  0  0  0  0  0  0  0
    4.3333    0.1990   35.9283 N   0  3  0  0  0  0  0  0  0  0  0  0
    2.4381    1.4202   36.9558 C   0  0  0  0  0  0  0  0  0  0  0  0
    2.7545   -2.9142   39.9998 C   0  0  1  0  0  0  0  0  0  0  0  0
    2.7296   -3.2708   41.4979 C   0  0  2  0  0  0  0  0  0  0  0  0
    3.9288   -3.9353   41.8859 O   0  0  0  0  0  0  0  0  0  0  0  0
    1.5156   -4.2120   41.5014 C   0  0  1  0  0  0  0  0  0  0  0  0
    1.7468   -5.0454   40.2518 C   0  0  2  0  0  0  0  0  0  0  0  0
    2.2392   -4.0808   39.3343 O   0  0  0  0  0  0  0  0  0  0  0  0
    0.4980   -5.7324   39.6842 C   0  0  0  0  0  0  0  0  0  0  0  0
    0.8470   -6.5262   38.5598 O   0  0  0  0  0  0  0  0  0  0  0  0
   -2.0274   -5.7181   45.2452 C   0  0  1  0  0  0  0  0  0  0  0  0
   -1.5865   -6.9853   45.7295 O   0  0  0  0  0  0  0  0  0  0  0  0
   -1.0208   -4.6191   45.6865 C   0  0  2  0  0  0  0  0  0  0  0  0
   -1.6430   -3.3458   45.5318 O   0  0  0  0  0  0  0  0  0  0  0  0
    0.3410   -4.6103   44.9176 C   0  0  1  0  0  0  0  0  0  0  0  0
    1.2855   -5.5685   45.5331 N   0  3  0  0  0  0  0  0  0  0  0  0
    0.1479   -4.8504   43.3972 C   0  0  1  0  0  0  0  0  0  0  0  0
    1.3835   -5.0650   42.6717 O   0  0  0  0  0  0  0  0  0  0  0  0
   -2.1331   -5.7410   43.6995 C   0  0  1  0  0  0  0  0  0  0  0  0
   -0.7960   -5.9505   43.1686 O   0  0  0  0  0  0  0  0  0  0  0  0
   -3.1132   -6.7983   43.1577 C   0  0  0  0  0  0  0  0  0  0  0  0
   -3.3087   -7.9254   44.0904 N   0  3  0  0  0  0  0  0  0  0  0  0
  1  2  1  1  0  0  0
  1  3  1  0  0  0  0
  1 10  1  0  0  0  0
  3  4  1  6  0  0  0
  3  5  1  0  0  0  0
  5  6  1  1  0  0  0
  5  7  1  0  0  0  0
  7  8  1  1  0  0  0
  7  9  1  0  0  0  0
  9 10  1  0  0  0  0
  9 11  1  1  0  0  0
 11 12  1  0  0  0  0
 13 14  1  6  0  0  0
 13 15  1  0  0  0  0
 13 22  1  0  0  0  0
 15 16  1  1  0  0  0
 15 17  1  0  0  0  0
 17 18  1  6  0  0  0
 17 19  1  0  0  0  0
 19  2  1  1  0  0  0
 19 20  1  0  0  0  0
 20 21  1  6  0  0  0
 20 22  1  0  0  0  0
 23 18  1  1  0  0  0
 23 24  1  0  0  0  0
 23 28  1  0  0  0  0
 24 25  1  6  0  0  0
 24 26  1  0  0  0  0
 26 27  1  0  0  0  0
 26 38  1  1  0  0  0
 27 28  1  0  0  0  0
 27 29  1  6  0  0  0
 29 30  1  0  0  0  0
 31 32  1  6  0  0  0
 31 33  1  0  0  0  0
 31 39  1  0  0  0  0
 33 34  1  6  0  0  0
 33 35  1  0  0  0  0
 35 36  1  1  0  0  0
 35 37  1  0  0  0  0
 37 38  1  1  0  0  0
 37 40  1  0  0  0  0
 39 40  1  0  0  0  0
 39 41  1  1  0  0  0
 41 42  1  0  0  0  0
M  CHG  5   4   1  14   1  21   1  36   1  42   1
M  END
>  <CHROM.1>
168.14212085,-93.74788454,76.70729340,178.96636090,166.13923186,21.02850059
72.69505914,68.96015568,-59.63426693,175.57549567,118.29590663,60.31877170
-52.37800676,119.97276844,-177.37883357,67.83932641,76.24286900,-27.92130884
-45.11515073,-128.82506246,-24.71257817,82.31067287,2.30608422,-2.56482582
41.03625002,-0.92657878,0.17112177,2.31676024

>  <Name>
1pbr

>  <RI>
0

>  <Rbt.Current_Directory>
/home/itssahil/PROJECTS/Mol_Feturizer/New_Systems/rnas/1pbr

>  <Rbt.Executable>
rbdock ($Id: //depot/dev/client3/rdock/2013.1/src/exe/rbdock.cxx#4 $)

>  <Rbt.Library>
libRbt.so (2013.1, Build901 2013/11/27)

>  <Rbt.Parameter_File>
/export/apps/rDock/src/rDock_2013.1_src/data/scripts/dock_solv.prm

>  <Rbt.Receptor>
prm/pocket_docking_7.prm

>  <SCORE>
-37.2664

>  <SCORE.INTER>
-47.7684

>  <SCORE.INTER.CONST>
1

>  <SCORE.INTER.POLAR>
-7.0411

>  <SCORE.INTER.ROT>
9

>  <SCORE.INTER.SOLV>
25.8356

>  <SCORE.INTER.VDW>
-26.5871

>  <SCORE.INTER.norm>
-1.13734

>  <SCORE.INTRA>
10.502

>  <SCORE.INTRA.DIHEDRAL>
13.9305

>  <SCORE.INTRA.DIHEDRAL.0>
29.7866

>  <SCORE.INTRA.POLAR>
0.0728515

>  <SCORE.INTRA.POLAR.0>
-0.984091

>  <SCORE.INTRA.REPUL>
-0.274115

>  <SCORE.INTRA.REPUL.0>
0.274115

>  <SCORE.INTRA.SOLV>
-0.393985

>  <SCORE.INTRA.SOLV.lig_0>
-152.978

>  <SCORE.INTRA.VDW>
4.85665

>  <SCORE.INTRA.VDW.0>
-6.10719

>  <SCORE.INTRA.norm>
0.250048

>  <SCORE.RESTR>
0

>  <SCORE.RESTR.CAVITY>
0

>  <SCORE.RESTR.norm>
0

>  <SCORE.SYSTEM>
0

>  <SCORE.SYSTEM.CONST>
0

>  <SCORE.SYSTEM.DIHEDRAL>
0

>  <SCORE.SYSTEM.SOLV>
0

>  <SCORE.SYSTEM.norm>
0

>  <SCORE.heavy>
42

>  <SCORE.norm>
-0.887295

>  <RMSD>
8.515

$$$$
1pbr
 OpenBabel11021811403D
libRbt.so/2013.1/901 2013/11/27
 42 45  0  0  0  0  0  0  0  0999 V2000
    4.7368   -0.8341   39.6447 C   0  0  2  0  0  0  0  0  0  0  0  0
    5.1918    0.1551   38.6868 O   0  0  0  0  0  0  0  0  0  0  0  0
    5.7837   -1.0101   40.8071 C   0  0  2  0  0  0  0  0  0  0  0  0
    6.3831    0.2596   41.2939 N   0  3  0  0  0  0  0  0  0  0  0  0
    6.9611   -1.9063   40.3791 C   0  0  1  0  0  0  0  0  0  0  0  0
    7.7553   -2.2708   41.5059 O   0  0  0  0  0  0  0  0  0  0  0  0
    6.4603   -3.1765   39.6751 C   0  0  2  0  0  0  0  0  0  0  0  0
    7.5593   -4.0124   39.3262 O   0  0  0  0  0  0  0  0  0  0  0  0
    5.5805   -2.8165   38.4573 C   0  0  2  0  0  0  0  0  0  0  0  0
    4.4437   -2.0853   38.9634 O   0  0  0  0  0  0  0  0  0  0  0  0
    5.0553   -4.0248   37.6839 C   0  0  0  0  0  0  0  0  0  0  0  0
    6.1120   -4.9042   37.3227 O   0  0  0  0  0  0  0  0  0  0  0  0
    3.0844    2.9887   36.2915 C   0  0  1  0  0  0  0  0  0  0  0  0
    2.2182    3.6898   35.3260 N   0  3  0  0  0  0  0  0  0  0  0  0
    2.2658    2.2775   37.4112 C   0  0  2  0  0  0  0  0  0  0  0  0
    1.4737    3.2234   38.1256 O   0  0  0  0  0  0  0  0  0  0  0  0
    3.2021    1.5559   38.4243 C   0  0  1  0  0  0  0  0  0  0  0  0
    2.3815    0.7736   39.3416 O   0  0  0  0  0  0  0  0  0  0  0  0
    4.2259    0.6138   37.7105 C   0  0  1  0  0  0  0  0  0  0  0  0
    5.0002    1.3242   36.5545 C   0  0  1  0  0  0  0  0  0  0  0  0
    5.8871    0.3835   35.8347 N   0  3  0  0  0  0  0  0  0  0  0  0
    4.0113    1.9779   35.5549 C   0  0  0  0  0  0  0  0  0  0  0  0
    1.4869    1.4507   40.2814 C   0  0  1  0  0  0  0  0  0  0  0  0
    0.3693    0.4730   40.6900 C   0  0  2  0  0  0  0  0  0  0  0  0
   -0.8009    1.1753   41.0997 O   0  0  0  0  0  0  0  0  0  0  0  0
    1.0736   -0.2201   41.8662 C   0  0  1  0  0  0  0  0  0  0  0  0
    1.7299    0.9468   42.5853 C   0  0  2  0  0  0  0  0  0  0  0  0
    2.1811    1.7498   41.5054 O   0  0  0  0  0  0  0  0  0  0  0  0
    2.9041    0.5740   43.4996 C   0  0  0  0  0  0  0  0  0  0  0  0
    4.0654    1.2983   43.1212 O   0  0  0  0  0  0  0  0  0  0  0  0
    1.1214   -4.8957   44.3086 C   0  0  1  0  0  0  0  0  0  0  0  0
    0.9225   -4.5512   45.6785 O   0  0  0  0  0  0  0  0  0  0  0  0
   -0.2198   -4.7417   43.5385 C   0  0  2  0  0  0  0  0  0  0  0  0
   -0.1100   -5.4294   42.2945 O   0  0  0  0  0  0  0  0  0  0  0  0
   -0.6679   -3.2692   43.2614 C   0  0  1  0  0  0  0  0  0  0  0  0
   -1.4008   -2.7267   44.4265 N   0  3  0  0  0  0  0  0  0  0  0  0
    0.5237   -2.3736   42.8316 C   0  0  1  0  0  0  0  0  0  0  0  0
    0.2083   -0.9609   42.7703 O   0  0  0  0  0  0  0  0  0  0  0  0
    2.1974   -3.9784   43.6748 C   0  0  1  0  0  0  0  0  0  0  0  0
    1.6849   -2.6179   43.6948 O   0  0  0  0  0  0  0  0  0  0  0  0
    3.5713   -4.0600   44.3660 C   0  0  0  0  0  0  0  0  0  0  0  0
    3.6163   -3.3085   45.6356 N   0  3  0  0  0  0  0  0  0  0  0  0
  1  2  1  6  0  0  0
  1  3  1  0  0  0  0
  1 10  1  0  0  0  0
  3  4  1  6  0  0  0
  3  5  1  0  0  0  0
  5  6  1  1  0  0  0
  5  7  1  0  0  0  0
  7  8  1  6  0  0  0
  7  9  1  0  0  0  0
  9 10  1  0  0  0  0
  9 11  1  1  0  0  0
 11 12  1  0  0  0  0
 13 14  1  6  0  0  0
 13 15  1  0  0  0  0
 13 22  1  0  0  0  0
 15 16  1  1  0  0  0
 15 17  1  0  0  0  0
 17 18  1  1  0  0  0
 17 19  1  0  0  0  0
 19  2  1  1  0  0  0
 19 20  1  0  0  0  0
 20 21  1  6  0  0  0
 20 22  1  0  0  0  0
 23 18  1  6  0  0  0
 23 24  1  0  0  0  0
 23 28  1  0  0  0  0
 24 25  1  1  0  0  0
 24 26  1  0  0  0  0
 26 27  1  0  0  0  0
 26 38  1  1  0  0  0
 27 28  1  0  0  0  0
 27 29  1  6  0  0  0
 29 30  1  0  0  0  0
 31 32  1  1  0  0  0
 31 33  1  0  0  0  0
 31 39  1  0  0  0  0
 33 34  1  6  0  0  0
 33 35  1  0  0  0  0
 35 36  1  1  0  0  0
 35 37  1  0  0  0  0
 37 38  1  1  0  0  0
 37 40  1  0  0  0  0
 39 40  1  0  0  0  0
 39 41  1  1  0  0  0
 41 42  1  0  0  0  0
M  CHG  5   4   1  14   1  21   1  36   1  42   1
M  END
>  <CHROM.1>
-168.24744289,73.45873867,-45.60302839,56.96224335,-169.09068211,-52.61728200
-174.06018229,51.01412637,63.20815155,-66.76020026,157.06741137,29.52037546
57.35618575,118.99932150,123.78755971,177.21985625,-72.61108204,175.86720169
40.66624348,-155.34226350,-77.29561386,169.03835387,3.11121689,-1.03891969
40.62881974,-1.11960049,-0.56089759,2.40383248

>  <Name>
1pbr

>  <RI>
0

>  <Rbt.Current_Directory>
/home/itssahil/PROJECTS/Mol_Feturizer/New_Systems/rnas/1pbr

>  <Rbt.Executable>
rbdock ($Id: //depot/dev/client3/rdock/2013.1/src/exe/rbdock.cxx#4 $)

>  <Rbt.Library>
libRbt.so (2013.1, Build901 2013/11/27)

>  <Rbt.Parameter_File>
/export/apps/rDock/src/rDock_2013.1_src/data/scripts/dock_solv.prm

>  <Rbt.Receptor>
prm/pocket_docking_5.prm

>  <SCORE>
-51.9681

>  <SCORE.INTER>
-47.3954

>  <SCORE.INTER.CONST>
1

>  <SCORE.INTER.POLAR>
-7.66328

>  <SCORE.INTER.ROT>
9

>  <SCORE.INTER.SOLV>
23.193

>  <SCORE.INTER.VDW>
-23.3837

>  <SCORE.INTER.norm>
-1.12846

>  <SCORE.INTRA>
-4.57265

>  <SCORE.INTRA.DIHEDRAL>
-3.23228

>  <SCORE.INTRA.DIHEDRAL.0>
29.7866

>  <SCORE.INTRA.POLAR>
-1.23326

>  <SCORE.INTRA.POLAR.0>
-0.984091

>  <SCORE.INTRA.REPUL>
-0.274115

>  <SCORE.INTRA.REPUL.0>
0.274115

>  <SCORE.INTRA.SOLV>
1.08655

>  <SCORE.INTRA.SOLV.lig_0>
-152.978

>  <SCORE.INTRA.VDW>
2.06386

>  <SCORE.INTRA.VDW.0>
-6.10719

>  <SCORE.INTRA.norm>
-0.108873

>  <SCORE.RESTR>
0

>  <SCORE.RESTR.CAVITY>
0

>  <SCORE.RESTR.norm>
0

>  <SCORE.SYSTEM>
0

>  <SCORE.SYSTEM.CONST>
0

>  <SCORE.SYSTEM.DIHEDRAL>
0

>  <SCORE.SYSTEM.SOLV>
0

>  <SCORE.SYSTEM.norm>
0

>  <SCORE.heavy>
42

>  <SCORE.norm>
-1.23733

>  <RMSD>
8.518

$$$$
1pbr
 OpenBabel11021811403D
libRbt.so/2013.1/901 2013/11/27
 42 45  0  0  0  0  0  0  0  0999 V2000
    4.9611   -1.7243   39.8835 C   0  0  2  0  0  0  0  0  0  0  0  0
    5.0919   -0.6842   38.8814 O   0  0  0  0  0  0  0  0  0  0  0  0
    6.3081   -2.5242   40.0385 C   0  0  2  0  0  0  0  0  0  0  0  0
    7.5317   -1.6813   40.0130 N   0  3  0  0  0  0  0  0  0  0  0  0
    6.4801   -3.5678   38.9187 C   0  0  1  0  0  0  0  0  0  0  0  0
    7.5566   -4.4550   39.2148 O   0  0  0  0  0  0  0  0  0  0  0  0
    5.1910   -4.3785   38.7172 C   0  0  2  0  0  0  0  0  0  0  0  0
    5.3826   -5.3664   37.7095 O   0  0  0  0  0  0  0  0  0  0  0  0
    3.9992   -3.4444   38.4113 C   0  0  2  0  0  0  0  0  0  0  0  0
    3.8347   -2.5855   39.5595 O   0  0  0  0  0  0  0  0  0  0  0  0
    2.6766   -4.1718   38.1756 C   0  0  0  0  0  0  0  0  0  0  0  0
    1.5750   -3.2772   38.2575 O   0  0  0  0  0  0  0  0  0  0  0  0
    2.5974    2.6588   37.9817 C   0  0  1  0  0  0  0  0  0  0  0  0
    1.5133    3.5737   37.5797 N   0  3  0  0  0  0  0  0  0  0  0  0
    2.2416    1.8498   39.2656 C   0  0  2  0  0  0  0  0  0  0  0  0
    1.9756    2.7331   40.3526 O   0  0  0  0  0  0  0  0  0  0  0  0
    3.4056    0.9013   39.6768 C   0  0  1  0  0  0  0  0  0  0  0  0
    2.9513    0.0545   40.7739 O   0  0  0  0  0  0  0  0  0  0  0  0
    3.8792    0.0023   38.4882 C   0  0  1  0  0  0  0  0  0  0  0  0
    4.1800    0.8200   37.1915 C   0  0  1  0  0  0  0  0  0  0  0  0
    4.5290   -0.0652   36.0583 N   0  3  0  0  0  0  0  0  0  0  0  0
    2.9649    1.7040   36.8084 C   0  0  0  0  0  0  0  0  0  0  0  0
    2.3918    0.6612   41.9825 C   0  0  1  0  0  0  0  0  0  0  0  0
    1.3529   -0.3041   42.5833 C   0  0  2  0  0  0  0  0  0  0  0  0
    0.3896    0.4003   43.3618 O   0  0  0  0  0  0  0  0  0  0  0  0
    2.2904   -1.1578   43.4507 C   0  0  1  0  0  0  0  0  0  0  0  0
    3.1996   -0.1113   44.0734 C   0  0  2  0  0  0  0  0  0  0  0  0
    3.4066    0.7873   42.9944 O   0  0  0  0  0  0  0  0  0  0  0  0
    4.5431   -0.6390   44.5931 C   0  0  0  0  0  0  0  0  0  0  0  0
    5.2979   -1.1881   43.5230 O   0  0  0  0  0  0  0  0  0  0  0  0
   -0.8693   -5.4492   44.0740 C   0  0  1  0  0  0  0  0  0  0  0  0
   -1.7482   -5.1045   45.1432 O   0  0  0  0  0  0  0  0  0  0  0  0
   -0.9770   -4.3783   42.9527 C   0  0  2  0  0  0  0  0  0  0  0  0
   -0.4012   -4.9094   41.7615 O   0  0  0  0  0  0  0  0  0  0  0  0
   -0.2989   -3.0053   43.2703 C   0  0  1  0  0  0  0  0  0  0  0  0
   -1.2234   -2.1396   44.0350 N   0  3  0  0  0  0  0  0  0  0  0  0
    1.0726   -3.1868   43.9723 C   0  0  1  0  0  0  0  0  0  0  0  0
    1.6434   -1.9557   44.4800 O   0  0  0  0  0  0  0  0  0  0  0  0
    0.5917   -5.5282   44.5838 C   0  0  1  0  0  0  0  0  0  0  0  0
    0.9759   -4.1990   45.0303 O   0  0  0  0  0  0  0  0  0  0  0  0
    0.8069   -6.5680   45.6995 C   0  0  0  0  0  0  0  0  0  0  0  0
    0.9376   -7.9432   45.1796 N   0  3  0  0  0  0  0  0  0  0  0  0
  1  2  1  6  0  0  0
  1  3  1  0  0  0  0
  1 10  1  0  0  0  0
  3  4  1  6  0  0  0
  3  5  1  0  0  0  0
  5  6  1  1  0  0  0
  5  7  1  0  0  0  0
  7  8  1  6  0  0  0
  7  9  1  0  0  0  0
  9 10  1  0  0  0  0
  9 11  1  1  0  0  0
 11 12  1  0  0  0  0
 13 14  1  6  0  0  0
 13 15  1  0  0  0  0
 13 22  1  0  0  0  0
 15 16  1  1  0  0  0
 15 17  1  0  0  0  0
 17 18  1  1  0  0  0
 17 19  1  0  0  0  0
 19  2  1  1  0  0  0
 19 20  1  0  0  0  0
 20 21  1  6  0  0  0
 20 22  1  0  0  0  0
 23 18  1  6  0  0  0
 23 24  1  0  0  0  0
 23 28  1  0  0  0  0
 24 25  1  1  0  0  0
 24 26  1  0  0  0  0
 26 27  1  0  0  0  0
 26 38  1  1  0  0  0
 27 28  1  0  0  0  0
 27 29  1  6  0  0  0
 29 30  1  0  0  0  0
 31 32  1  1  0  0  0
 31 33  1  0  0  0  0
 31 39  1  0  0  0  0
 33 34  1  6  0  0  0
 33 35  1  0  0  0  0
 35 36  1  1  0  0  0
 35 37  1  0  0  0  0
 37 38  1  1  0  0  0
 37 40  1  0  0  0  0
 39 40  1  0  0  0  0
 39 41  1  1  0  0  0
 41 42  1  0  0  0  0
M  CHG  5   4   1  14   1  21   1  36   1  42   1
M  END
>  <CHROM.1>
171.06857992,70.30214682,-72.01245358,-64.19826277,167.66659832,164.31898541
-56.56366983,-176.47377525,129.78626208,-54.21937044,149.55206027,64.18863642
-54.09962646,80.52100703,61.67330759,58.06626004,49.78928888,64.83956314
-153.73458943,-79.60173860,80.37267144,-51.90434384,2.71105246,-1.91328026
41.16451930,-0.83237762,-0.80301495,2.79512062

>  <Name>
1pbr

>  <RI>
0

>  <Rbt.Current_Directory>
/home/itssahil/PROJECTS/Mol_Feturizer/New_Systems/rnas/1pbr

>  <Rbt.Executable>
rbdock ($Id: //depot/dev/client3/rdock/2013.1/src/exe/rbdock.cxx#4 $)

>  <Rbt.Library>
libRbt.so (2013.1, Build901 2013/11/27)

>  <Rbt.Parameter_File>
/export/apps/rDock/src/rDock_2013.1_src/data/scripts/dock_solv.prm

>  <Rbt.Receptor>
prm/pocket_docking_6.prm

>  <SCORE>
-35.0196

>  <SCORE.INTER>
-28.7333

>  <SCORE.INTER.CONST>
1

>  <SCORE.INTER.POLAR>
-4.41939

>  <SCORE.INTER.ROT>
9

>  <SCORE.INTER.SOLV>
17.3554

>  <SCORE.INTER.VDW>
-19.8093

>  <SCORE.INTER.norm>
-0.684125

>  <SCORE.INTRA>
-6.28639

>  <SCORE.INTRA.DIHEDRAL>
-7.93195

>  <SCORE.INTRA.DIHEDRAL.0>
29.7866

>  <SCORE.INTRA.POLAR>
-0.300109

>  <SCORE.INTRA.POLAR.0>
-0.984091

>  <SCORE.INTRA.REPUL>
-0.274115

>  <SCORE.INTRA.REPUL.0>
0.274115

>  <SCORE.INTRA.SOLV>
-2.29886

>  <SCORE.INTRA.SOLV.lig_0>
-152.978

>  <SCORE.INTRA.VDW>
1.21996

>  <SCORE.INTRA.VDW.0>
-6.10719

>  <SCORE.INTRA.norm>
-0.149676

>  <SCORE.RESTR>
0

>  <SCORE.RESTR.CAVITY>
0

>  <SCORE.RESTR.norm>
0

>  <SCORE.SYSTEM>
0

>  <SCORE.SYSTEM.CONST>
0

>  <SCORE.SYSTEM.DIHEDRAL>
0

>  <SCORE.SYSTEM.SOLV>
0

>  <SCORE.SYSTEM.norm>
0

>  <SCORE.heavy>
42

>  <SCORE.norm>
-0.833801

>  <RMSD>
8.527

$$$$
1pbr
 OpenBabel11021811403D
libRbt.so/2013.1/901 2013/11/27
 42 45  0  0  0  0  0  0  0  0999 V2000
    5.1524   -0.9213   39.5846 C   0  0  2  0  0  0  0  0  0  0  0  0
    5.5609   -0.0159   38.5280 O   0  0  0  0  0  0  0  0  0  0  0  0
    6.3768   -1.3054   40.4964 C   0  0  2  0  0  0  0  0  0  0  0  0
    7.2887   -0.1753   40.8120 N   0  3  0  0  0  0  0  0  0  0  0  0
    7.2497   -2.3945   39.8448 C   0  0  1  0  0  0  0  0  0  0  0  0
    8.1896   -2.9172   40.7810 O   0  0  0  0  0  0  0  0  0  0  0  0
    6.3851   -3.5395   39.2959 C   0  0  2  0  0  0  0  0  0  0  0  0
    7.2108   -4.5563   38.7369 O   0  0  0  0  0  0  0  0  0  0  0  0
    5.3425   -3.0041   38.2896 C   0  0  2  0  0  0  0  0  0  0  0  0
    4.4954   -2.0860   39.0126 O   0  0  0  0  0  0  0  0  0  0  0  0
    4.4506   -4.0827   37.6768 C   0  0  0  0  0  0  0  0  0  0  0  0
    3.5016   -3.5188   36.7814 O   0  0  0  0  0  0  0  0  0  0  0  0
    3.5135    2.8367   36.1034 C   0  0  1  0  0  0  0  0  0  0  0  0
    2.6068    3.5576   35.1912 N   0  3  0  0  0  0  0  0  0  0  0  0
    2.8045    2.4082   37.4237 C   0  0  2  0  0  0  0  0  0  0  0  0
    2.2959    3.5504   38.1088 O   0  0  0  0  0  0  0  0  0  0  0  0
    3.7846    1.6609   38.3748 C   0  0  1  0  0  0  0  0  0  0  0  0
    3.0282    1.1397   39.5076 O   0  0  0  0  0  0  0  0  0  0  0  0
    4.5195    0.4834   37.6546 C   0  0  1  0  0  0  0  0  0  0  0  0
    5.1790    0.9144   36.3056 C   0  0  1  0  0  0  0  0  0  0  0  0
    5.7796   -0.2393   35.6002 N   0  3  0  0  0  0  0  0  0  0  0  0
    4.1399    1.6057   35.3853 C   0  0  0  0  0  0  0  0  0  0  0  0
    2.0309    0.0890   39.2997 C   0  0  1  0  0  0  0  0  0  0  0  0
    1.6058   -0.4660   40.6720 C   0  0  2  0  0  0  0  0  0  0  0  0
    1.1254   -1.8025   40.5573 O   0  0  0  0  0  0  0  0  0  0  0  0
    0.4825    0.5302   40.9974 C   0  0  1  0  0  0  0  0  0  0  0  0
   -0.2440    0.6465   39.6677 C   0  0  2  0  0  0  0  0  0  0  0  0
    0.8287    0.6449   38.7381 O   0  0  0  0  0  0  0  0  0  0  0  0
   -1.0957    1.9110   39.4968 C   0  0  0  0  0  0  0  0  0  0  0  0
   -1.9127    1.7958   38.3411 O   0  0  0  0  0  0  0  0  0  0  0  0
    0.2433   -0.9606   46.1798 C   0  0  1  0  0  0  0  0  0  0  0  0
   -1.1248   -1.2436   46.4679 O   0  0  0  0  0  0  0  0  0  0  0  0
    0.7598   -1.9558   45.1034 C   0  0  2  0  0  0  0  0  0  0  0  0
    2.1849   -1.9165   45.0961 O   0  0  0  0  0  0  0  0  0  0  0  0
    0.2421   -1.6990   43.6502 C   0  0  1  0  0  0  0  0  0  0  0  0
   -1.0766   -2.3402   43.4531 N   0  3  0  0  0  0  0  0  0  0  0  0
    0.2336   -0.1880   43.2983 C   0  0  1  0  0  0  0  0  0  0  0  0
   -0.4339    0.1238   42.0508 O   0  0  0  0  0  0  0  0  0  0  0  0
    0.3942    0.4928   45.6644 C   0  0  1  0  0  0  0  0  0  0  0  0
   -0.3284    0.5924   44.4067 O   0  0  0  0  0  0  0  0  0  0  0  0
   -0.0883    1.5612   46.6633 C   0  0  0  0  0  0  0  0  0  0  0  0
   -1.5592    1.6181   46.7709 N   0  3  0  0  0  0  0  0  0  0  0  0
  1  2  1  6  0  0  0
  1  3  1  0  0  0  0
  1 10  1  0  0  0  0
  3  4  1  6  0  0  0
  3  5  1  0  0  0  0
  5  6  1  1  0  0  0
  5  7  1  0  0  0  0
  7  8  1  6  0  0  0
  7  9  1  0  0  0  0
  9 10  1  0  0  0  0
  9 11  1  1  0  0  0
 11 12  1  0  0  0  0
 13 14  1  6  0  0  0
 13 15  1  0  0  0  0
 13 22  1  0  0  0  0
 15 16  1  1  0  0  0
 15 17  1  0  0  0  0
 17 18  1  1  0  0  0
 17 19  1  0  0  0  0
 19  2  1  1  0  0  0
 19 20  1  0  0  0  0
 20 21  1  6  0  0  0
 20 22  1  0  0  0  0
 23 18  1  1  0  0  0
 23 24  1  0  0  0  0
 23 28  1  0  0  0  0
 24 25  1  6  0  0  0
 24 26  1  0  0  0  0
 26 27  1  0  0  0  0
 26 38  1  1  0  0  0
 27 28  1  0  0  0  0
 27 29  1  1  0  0  0
 29 30  1  0  0  0  0
 31 32  1  6  0  0  0
 31 33  1  0  0  0  0
 31 39  1  0  0  0  0
 33 34  1  6  0  0  0
 33 35  1  0  0  0  0
 35 36  1  1  0  0  0
 35 37  1  0  0  0  0
 37 38  1  6  0  0  0
 37 40  1  0  0  0  0
 39 40  1  0  0  0  0
 39 41  1  1  0  0  0
 41 42  1  0  0  0  0
M  CHG  5   4   1  14   1  21   1  36   1  42   1
M  END
>  <CHROM.1>
-176.59387796,80.29609996,-163.29777725,-75.25936641,64.54565386,178.93814281
-55.76753206,158.59143850,-179.90320825,66.23062018,168.46143629,51.00600813
74.70945931,55.90857074,-169.21350411,81.79983576,66.06564936,66.24424158
61.07408056,-108.95102479,-73.37460792,172.33561028,2.62664433,-0.32776481
40.39353972,-0.73132494,-0.60450308,2.07448737

>  <Name>
1pbr

>  <RI>
0

>  <Rbt.Current_Directory>
/home/itssahil/PROJECTS/Mol_Feturizer/New_Systems/rnas/1pbr

>  <Rbt.Executable>
rbdock ($Id: //depot/dev/client3/rdock/2013.1/src/exe/rbdock.cxx#4 $)

>  <Rbt.Library>
libRbt.so (2013.1, Build901 2013/11/27)

>  <Rbt.Parameter_File>
/export/apps/rDock/src/rDock_2013.1_src/data/scripts/dock_solv.prm

>  <Rbt.Receptor>
prm/pocket_docking_4.prm

>  <SCORE>
-50.3495

>  <SCORE.INTER>
-42.9067

>  <SCORE.INTER.CONST>
1

>  <SCORE.INTER.POLAR>
-6.41928

>  <SCORE.INTER.ROT>
9

>  <SCORE.INTER.SOLV>
38.521

>  <SCORE.INTER.VDW>
-29.6472

>  <SCORE.INTER.norm>
-1.02159

>  <SCORE.INTRA>
-7.44548

>  <SCORE.INTRA.DIHEDRAL>
-11.7145

>  <SCORE.INTRA.DIHEDRAL.0>
29.7866

>  <SCORE.INTRA.POLAR>
0.203604

>  <SCORE.INTRA.POLAR.0>
-0.984091

>  <SCORE.INTRA.REPUL>
-0.274115

>  <SCORE.INTRA.REPUL.0>
0.274115

>  <SCORE.INTRA.SOLV>
-1.21352

>  <SCORE.INTRA.SOLV.lig_0>
-152.978

>  <SCORE.INTRA.VDW>
-0.303123

>  <SCORE.INTRA.VDW.0>
-6.10719

>  <SCORE.INTRA.norm>
-0.177273

>  <SCORE.RESTR>
0.00268432

>  <SCORE.RESTR.CAVITY>
0.00268432

>  <SCORE.RESTR.norm>
6.39124e-05

>  <SCORE.SYSTEM>
0

>  <SCORE.SYSTEM.CONST>
0

>  <SCORE.SYSTEM.DIHEDRAL>
0

>  <SCORE.SYSTEM.SOLV>
0

>  <SCORE.SYSTEM.norm>
0

>  <SCORE.heavy>
42

>  <SCORE.norm>
-1.1988

>  <RMSD>
8.528

$$$$
1pbr
 OpenBabel11021811403D
libRbt.so/2013.1/901 2013/11/27
 42 45  0  0  0  0  0  0  0  0999 V2000
    2.2310    1.6357   38.9597 C   0  0  2  0  0  0  0  0  0  0  0  0
    2.4235    0.4199   38.1930 O   0  0  0  0  0  0  0  0  0  0  0  0
    1.1296    1.4311   40.0657 C   0  0  2  0  0  0  0  0  0  0  0  0
    1.1988    0.1243   40.7699 N   0  3  0  0  0  0  0  0  0  0  0  0
   -0.2904    1.5289   39.4771 C   0  0  1  0  0  0  0  0  0  0  0  0
   -1.2644    1.6070   40.5156 O   0  0  0  0  0  0  0  0  0  0  0  0
   -0.4239    2.7530   38.5586 C   0  0  2  0  0  0  0  0  0  0  0  0
   -1.7539    2.8515   38.0590 O   0  0  0  0  0  0  0  0  0  0  0  0
    0.6303    2.7083   37.4304 C   0  0  2  0  0  0  0  0  0  0  0  0
    1.9258    2.7418   38.0659 O   0  0  0  0  0  0  0  0  0  0  0  0
    0.5553    3.8817   36.4549 C   0  0  0  0  0  0  0  0  0  0  0  0
   -0.6667    3.8707   35.7289 O   0  0  0  0  0  0  0  0  0  0  0  0
    5.6654   -0.6945   35.6522 C   0  0  1  0  0  0  0  0  0  0  0  0
    6.9698   -1.0378   35.0566 N   0  3  0  0  0  0  0  0  0  0  0  0
    5.1848   -1.7650   36.6782 C   0  0  2  0  0  0  0  0  0  0  0  0
    5.0681   -3.0395   36.0499 O   0  0  0  0  0  0  0  0  0  0  0  0
    3.8010   -1.3870   37.2832 C   0  0  1  0  0  0  0  0  0  0  0  0
    3.4866   -2.3286   38.3516 O   0  0  0  0  0  0  0  0  0  0  0  0
    3.7865    0.0692   37.8529 C   0  0  1  0  0  0  0  0  0  0  0  0
    4.3220    1.1249   36.8334 C   0  0  1  0  0  0  0  0  0  0  0  0
    4.3898    2.4757   37.4335 N   0  3  0  0  0  0  0  0  0  0  0  0
    5.7225    0.7162   36.3080 C   0  0  0  0  0  0  0  0  0  0  0  0
    2.9674   -3.6576   38.0257 C   0  0  1  0  0  0  0  0  0  0  0  0
    3.7599   -4.7069   38.8276 C   0  0  2  0  0  0  0  0  0  0  0  0
    3.7379   -5.9735   38.1753 O   0  0  0  0  0  0  0  0  0  0  0  0
    2.9275   -4.7027   40.1187 C   0  0  1  0  0  0  0  0  0  0  0  0
    1.5039   -4.6776   39.5874 C   0  0  2  0  0  0  0  0  0  0  0  0
    1.6105   -3.7905   38.4845 O   0  0  0  0  0  0  0  0  0  0  0  0
    0.4459   -4.1731   40.5772 C   0  0  0  0  0  0  0  0  0  0  0  0
    0.6805   -2.8074   40.8872 O   0  0  0  0  0  0  0  0  0  0  0  0
    1.8731   -5.6404   45.1321 C   0  0  1  0  0  0  0  0  0  0  0  0
    0.8601   -6.6374   45.0110 O   0  0  0  0  0  0  0  0  0  0  0  0
    3.2620   -6.2806   44.8552 C   0  0  2  0  0  0  0  0  0  0  0  0
    4.2725   -5.3969   45.3351 O   0  0  0  0  0  0  0  0  0  0  0  0
    3.5579   -6.6168   43.3568 C   0  0  1  0  0  0  0  0  0  0  0  0
    2.9994   -7.9414   43.0068 N   0  3  0  0  0  0  0  0  0  0  0  0
    3.0742   -5.4909   42.4054 C   0  0  1  0  0  0  0  0  0  0  0  0
    3.1277   -5.8415   41.0007 O   0  0  0  0  0  0  0  0  0  0  0  0
    1.6172   -4.4897   44.1266 C   0  0  1  0  0  0  0  0  0  0  0  0
    1.7302   -5.0415   42.7862 O   0  0  0  0  0  0  0  0  0  0  0  0
    0.2620   -3.7837   44.3194 C   0  0  0  0  0  0  0  0  0  0  0  0
    0.3980   -2.4451   44.9263 N   0  3  0  0  0  0  0  0  0  0  0  0
  1  2  1  6  0  0  0
  1  3  1  0  0  0  0
  1 10  1  0  0  0  0
  3  4  1  6  0  0  0
  3  5  1  0  0  0  0
  5  6  1  1  0  0  0
  5  7  1  0  0  0  0
  7  8  1  6  0  0  0
  7  9  1  0  0  0  0
  9 10  1  0  0  0  0
  9 11  1  6  0  0  0
 11 12  1  0  0  0  0
 13 14  1  1  0  0  0
 13 15  1  0  0  0  0
 13 22  1  0  0  0  0
 15 16  1  6  0  0  0
 15 17  1  0  0  0  0
 17 18  1  1  0  0  0
 17 19  1  0  0  0  0
 19  2  1  6  0  0  0
 19 20  1  0  0  0  0
 20 21  1  1  0  0  0
 20 22  1  0  0  0  0
 23 18  1  1  0  0  0
 23 24  1  0  0  0  0
 23 28  1  0  0  0  0
 24 25  1  6  0  0  0
 24 26  1  0  0  0  0
 26 27  1  0  0  0  0
 26 38  1  6  0  0  0
 27 28  1  0  0  0  0
 27 29  1  1  0  0  0
 29 30  1  0  0  0  0
 31 32  1  6  0  0  0
 31 33  1  0  0  0  0
 31 39  1  0  0  0  0
 33 34  1  6  0  0  0
 33 35  1  0  0  0  0
 35 36  1  6  0  0  0
 35 37  1  0  0  0  0
 37 38  1  6  0  0  0
 37 40  1  0  0  0  0
 39 40  1  0  0  0  0
 39 41  1  1  0  0  0
 41 42  1  0  0  0  0
M  CHG  5   4   1  14   1  21   1  36   1  42   1
M  END
>  <CHROM.1>
-139.23932942,169.14127103,-54.12713988,-172.53368662,-59.68898318,-64.77249588
-179.02792320,175.22153718,-62.42849518,-79.37278659,132.11703352,46.89960431
61.27980902,143.38494264,64.83521961,173.45816767,-177.83115389,63.31034094
-53.75010934,-168.54795392,106.19162037,174.84704383,2.32145452,-1.91405801
39.79163449,1.61178104,0.74701090,-0.71302522

>  <Name>
1pbr

>  <RI>
0

>  <Rbt.Current_Directory>
/home/itssahil/PROJECTS/Mol_Feturizer/New_Systems/rnas/1pbr

>  <Rbt.Executable>
rbdock ($Id: //depot/dev/client3/rdock/2013.1/src/exe/rbdock.cxx#4 $)

>  <Rbt.Library>
libRbt.so (2013.1, Build901 2013/11/27)

>  <Rbt.Parameter_File>
/export/apps/rDock/src/rDock_2013.1_src/data/scripts/dock_solv.prm

>  <Rbt.Receptor>
prm/pocket_docking_7.prm

>  <SCORE>
-40.5656

>  <SCORE.INTER>
-39.7489

>  <SCORE.INTER.CONST>
1

>  <SCORE.INTER.POLAR>
-5.71294

>  <SCORE.INTER.ROT>
9

>  <SCORE.INTER.SOLV>
24.6174

>  <SCORE.INTER.VDW>
-25.2619

>  <SCORE.INTER.norm>
-0.946401

>  <SCORE.INTRA>
-0.816783

>  <SCORE.INTRA.DIHEDRAL>
-3.21065

>  <SCORE.INTRA.DIHEDRAL.0>
29.7866

>  <SCORE.INTRA.POLAR>
-0.231523

>  <SCORE.INTRA.POLAR.0>
-0.984091

>  <SCORE.INTRA.REPUL>
-0.274115

>  <SCORE.INTRA.REPUL.0>
0.274115

>  <SCORE.INTRA.SOLV>
1.97512

>  <SCORE.INTRA.SOLV.lig_0>
-152.978

>  <SCORE.INTRA.VDW>
1.95873

>  <SCORE.INTRA.VDW.0>
-6.10719

>  <SCORE.INTRA.norm>
-0.0194472

>  <SCORE.RESTR>
0

>  <SCORE.RESTR.CAVITY>
0

>  <SCORE.RESTR.norm>
0

>  <SCORE.SYSTEM>
0

>  <SCORE.SYSTEM.CONST>
0

>  <SCORE.SYSTEM.DIHEDRAL>
0

>  <SCORE.SYSTEM.SOLV>
0

>  <SCORE.SYSTEM.norm>
0

>  <SCORE.heavy>
42

>  <SCORE.norm>
-0.965849

>  <RMSD>
8.528

$$$$
1pbr
 OpenBabel11021811403D
libRbt.so/2013.1/901 2013/11/27
 42 45  0  0  0  0  0  0  0  0999 V2000
    5.7580    0.2281   37.5331 C   0  0  2  0  0  0  0  0  0  0  0  0
    4.6397   -0.6203   37.1687 O   0  0  0  0  0  0  0  0  0  0  0  0
    7.0986   -0.3167   36.9133 C   0  0  2  0  0  0  0  0  0  0  0  0
    6.9766   -0.8079   35.5161 N   0  3  0  0  0  0  0  0  0  0  0  0
    7.6678   -1.4892   37.7342 C   0  0  1  0  0  0  0  0  0  0  0  0
    8.9985   -1.7956   37.3236 O   0  0  0  0  0  0  0  0  0  0  0  0
    7.6582   -1.1671   39.2362 C   0  0  2  0  0  0  0  0  0  0  0  0
    8.2276   -2.2436   39.9747 O   0  0  0  0  0  0  0  0  0  0  0  0
    6.2314   -0.8131   39.7110 C   0  0  2  0  0  0  0  0  0  0  0  0
    5.8264    0.3634   38.9796 O   0  0  0  0  0  0  0  0  0  0  0  0
    6.1266   -0.4983   41.2023 C   0  0  0  0  0  0  0  0  0  0  0  0
    6.3663   -1.6561   41.9912 O   0  0  0  0  0  0  0  0  0  0  0  0
    1.7069    2.3941   37.8896 C   0  0  1  0  0  0  0  0  0  0  0  0
    0.4754    3.1809   38.0854 N   0  3  0  0  0  0  0  0  0  0  0  0
    1.9289    1.3520   39.0273 C   0  0  2  0  0  0  0  0  0  0  0  0
    2.0118    2.0056   40.2916 O   0  0  0  0  0  0  0  0  0  0  0  0
    3.2406    0.5434   38.8052 C   0  0  1  0  0  0  0  0  0  0  0  0
    3.3051   -0.5220   39.7990 O   0  0  0  0  0  0  0  0  0  0  0  0
    3.3127   -0.0777   37.3720 C   0  0  1  0  0  0  0  0  0  0  0  0
    3.0344    0.9664   36.2436 C   0  0  1  0  0  0  0  0  0  0  0  0
    3.0110    0.3308   34.9076 N   0  3  0  0  0  0  0  0  0  0  0  0
    1.6917    1.6997   36.4964 C   0  0  0  0  0  0  0  0  0  0  0  0
    2.3121   -1.5970   39.7842 C   0  0  1  0  0  0  0  0  0  0  0  0
    2.7566   -2.6927   40.7710 C   0  0  2  0  0  0  0  0  0  0  0  0
    2.2120   -3.9588   40.4097 O   0  0  0  0  0  0  0  0  0  0  0  0
    2.1247   -2.1322   42.0542 C   0  0  1  0  0  0  0  0  0  0  0  0
    0.7567   -1.6793   41.5716 C   0  0  2  0  0  0  0  0  0  0  0  0
    1.0553   -1.1238   40.3001 O   0  0  0  0  0  0  0  0  0  0  0  0
    0.0627   -0.6377   42.4589 C   0  0  0  0  0  0  0  0  0  0  0  0
    0.8441    0.5462   42.5229 O   0  0  0  0  0  0  0  0  0  0  0  0
    4.8861   -3.3528   46.3582 C   0  0  1  0  0  0  0  0  0  0  0  0
    3.9436   -3.1326   47.4060 O   0  0  0  0  0  0  0  0  0  0  0  0
    4.5347   -4.6736   45.6181 C   0  0  2  0  0  0  0  0  0  0  0  0
    5.6630   -5.0735   44.8438 O   0  0  0  0  0  0  0  0  0  0  0  0
    3.2823   -4.6054   44.6840 C   0  0  1  0  0  0  0  0  0  0  0  0
    2.0465   -4.8410   45.4626 N   0  3  0  0  0  0  0  0  0  0  0  0
    3.2378   -3.2839   43.8726 C   0  0  1  0  0  0  0  0  0  0  0  0
    1.9966   -3.0728   43.1558 O   0  0  0  0  0  0  0  0  0  0  0  0
    4.8631   -2.1700   45.3576 C   0  0  1  0  0  0  0  0  0  0  0  0
    3.5478   -2.1407   44.7389 O   0  0  0  0  0  0  0  0  0  0  0  0
    5.2033   -0.8092   45.9937 C   0  0  0  0  0  0  0  0  0  0  0  0
    4.2725   -0.4378   47.0772 N   0  3  0  0  0  0  0  0  0  0  0  0
  1  2  1  1  0  0  0
  1  3  1  0  0  0  0
  1 10  1  0  0  0  0
  3  4  1  6  0  0  0
  3  5  1  0  0  0  0
  5  6  1  6  0  0  0
  5  7  1  0  0  0  0
  7  8  1  1  0  0  0
  7  9  1  0  0  0  0
  9 10  1  0  0  0  0
  9 11  1  1  0  0  0
 11 12  1  0  0  0  0
 13 14  1  1  0  0  0
 13 15  1  0  0  0  0
 13 22  1  0  0  0  0
 15 16  1  1  0  0  0
 15 17  1  0  0  0  0
 17 18  1  1  0  0  0
 17 19  1  0  0  0  0
 19  2  1  6  0  0  0
 19 20  1  0  0  0  0
 20 21  1  6  0  0  0
 20 22  1  0  0  0  0
 23 18  1  1  0  0  0
 23 24  1  0  0  0  0
 23 28  1  0  0  0  0
 24 25  1  6  0  0  0
 24 26  1  0  0  0  0
 26 27  1  0  0  0  0
 26 38  1  1  0  0  0
 27 28  1  0  0  0  0
 27 29  1  1  0  0  0
 29 30  1  0  0  0  0
 31 32  1  1  0  0  0
 31 33  1  0  0  0  0
 31 39  1  0  0  0  0
 33 34  1  6  0  0  0
 33 35  1  0  0  0  0
 35 36  1  1  0  0  0
 35 37  1  0  0  0  0
 37 38  1  1  0  0  0
 37 40  1  0  0  0  0
 39 40  1  0  0  0  0
 39 41  1  1  0  0  0
 41 42  1  0  0  0  0
M  CHG  5   4   1  14   1  21   1  36   1  42   1
M  END
>  <CHROM.1>
-164.84708375,-47.42821934,54.40627373,62.22304658,-57.08535068,-67.83781982
-171.69052899,74.80715489,166.00093283,64.88427760,170.40639420,-79.78174455
-52.62215579,78.67044754,61.35160941,-67.05830425,55.33594593,-178.99362938
-40.42382632,-159.10199810,-59.44739962,-95.85445990,3.92700265,-1.19812380
40.90260146,-1.50325820,-0.34639402,1.99246139

>  <Name>
1pbr

>  <RI>
0

>  <Rbt.Current_Directory>
/home/itssahil/PROJECTS/Mol_Feturizer/New_Systems/rnas/1pbr

>  <Rbt.Executable>
rbdock ($Id: //depot/dev/client3/rdock/2013.1/src/exe/rbdock.cxx#4 $)

>  <Rbt.Library>
libRbt.so (2013.1, Build901 2013/11/27)

>  <Rbt.Parameter_File>
/export/apps/rDock/src/rDock_2013.1_src/data/scripts/dock_solv.prm

>  <Rbt.Receptor>
prm/pocket_docking_8.prm

>  <SCORE>
-34.5742

>  <SCORE.INTER>
-23.9977

>  <SCORE.INTER.CONST>
1

>  <SCORE.INTER.POLAR>
-4.56762

>  <SCORE.INTER.ROT>
9

>  <SCORE.INTER.SOLV>
24.7299

>  <SCORE.INTER.VDW>
-18.6164

>  <SCORE.INTER.norm>
-0.571374

>  <SCORE.INTRA>
-10.5765

>  <SCORE.INTRA.DIHEDRAL>
-16.1949

>  <SCORE.INTRA.DIHEDRAL.0>
29.7866

>  <SCORE.INTRA.POLAR>
-0.940345

>  <SCORE.INTRA.POLAR.0>
-0.984091

>  <SCORE.INTRA.REPUL>
-0.265164

>  <SCORE.INTRA.REPUL.0>
0.274115

>  <SCORE.INTRA.SOLV>
1.21992

>  <SCORE.INTRA.SOLV.lig_0>
-152.978

>  <SCORE.INTRA.VDW>
1.43398

>  <SCORE.INTRA.VDW.0>
-6.10719

>  <SCORE.INTRA.norm>
-0.251821

>  <SCORE.RESTR>
0

>  <SCORE.RESTR.CAVITY>
0

>  <SCORE.RESTR.norm>
0

>  <SCORE.SYSTEM>
0

>  <SCORE.SYSTEM.CONST>
0

>  <SCORE.SYSTEM.DIHEDRAL>
0

>  <SCORE.SYSTEM.SOLV>
0

>  <SCORE.SYSTEM.norm>
0

>  <SCORE.heavy>
42

>  <SCORE.norm>
-0.823195

>  <RMSD>
8.530

$$$$
1pbr
 OpenBabel11021811403D
libRbt.so/2013.1/901 2013/11/27
 42 45  0  0  0  0  0  0  0  0999 V2000
    1.0662    1.9411   38.3881 C   0  0  2  0  0  0  0  0  0  0  0  0
    1.0330    0.6079   37.8184 O   0  0  0  0  0  0  0  0  0  0  0  0
   -0.3760    2.4003   38.8211 C   0  0  2  0  0  0  0  0  0  0  0  0
   -1.1881    1.3432   39.4777 N   0  3  0  0  0  0  0  0  0  0  0  0
   -1.2005    2.8914   37.6163 C   0  0  1  0  0  0  0  0  0  0  0  0
   -2.3914    3.5445   38.0504 O   0  0  0  0  0  0  0  0  0  0  0  0
   -0.3811    3.8522   36.7416 C   0  0  2  0  0  0  0  0  0  0  0  0
   -1.1729    4.3293   35.6583 O   0  0  0  0  0  0  0  0  0  0  0  0
    0.9268    3.1804   36.2677 C   0  0  2  0  0  0  0  0  0  0  0  0
    1.6885    2.8644   37.4523 O   0  0  0  0  0  0  0  0  0  0  0  0
    1.7958    4.0616   35.3719 C   0  0  0  0  0  0  0  0  0  0  0  0
    2.2182    5.2337   36.0563 O   0  0  0  0  0  0  0  0  0  0  0  0
    3.7000   -2.3680   36.3220 C   0  0  1  0  0  0  0  0  0  0  0  0
    4.8397   -3.1365   35.7888 N   0  3  0  0  0  0  0  0  0  0  0  0
    3.9468   -1.8825   37.7825 C   0  0  2  0  0  0  0  0  0  0  0  0
    4.1788   -2.9944   38.6440 O   0  0  0  0  0  0  0  0  0  0  0  0
    2.7255   -1.0853   38.3271 C   0  0  1  0  0  0  0  0  0  0  0  0
    3.0805   -0.5163   39.6222 O   0  0  0  0  0  0  0  0  0  0  0  0
    2.2921    0.0617   37.3568 C   0  0  1  0  0  0  0  0  0  0  0  0
    2.1013   -0.4280   35.8855 C   0  0  1  0  0  0  0  0  0  0  0  0
    1.7892    0.6951   34.9741 N   0  3  0  0  0  0  0  0  0  0  0  0
    3.3693   -1.1681   35.3869 C   0  0  0  0  0  0  0  0  0  0  0  0
    2.0924    0.2549   40.3777 C   0  0  1  0  0  0  0  0  0  0  0  0
    1.4166   -0.6772   41.4007 C   0  0  2  0  0  0  0  0  0  0  0  0
    0.1166   -0.2050   41.7429 O   0  0  0  0  0  0  0  0  0  0  0  0
    2.4140   -0.5267   42.5594 C   0  0  1  0  0  0  0  0  0  0  0  0
    2.6902    0.9677   42.5584 C   0  0  2  0  0  0  0  0  0  0  0  0
    2.7447    1.2622   41.1710 O   0  0  0  0  0  0  0  0  0  0  0  0
    3.9951    1.3915   43.2451 C   0  0  0  0  0  0  0  0  0  0  0  0
    5.1102    0.8758   42.5332 O   0  0  0  0  0  0  0  0  0  0  0  0
    3.2804   -0.0143   47.8597 C   0  0  1  0  0  0  0  0  0  0  0  0
    2.6041   -1.1021   48.4874 O   0  0  0  0  0  0  0  0  0  0  0  0
    4.3491   -0.5697   46.8774 C   0  0  2  0  0  0  0  0  0  0  0  0
    5.2525    0.4828   46.5476 O   0  0  0  0  0  0  0  0  0  0  0  0
    3.7873   -1.1838   45.5534 C   0  0  1  0  0  0  0  0  0  0  0  0
    3.4044   -2.5973   45.7638 N   0  3  0  0  0  0  0  0  0  0  0  0
    2.6332   -0.3304   44.9647 C   0  0  1  0  0  0  0  0  0  0  0  0
    1.9358   -0.9608   43.8623 O   0  0  0  0  0  0  0  0  0  0  0  0
    2.2709    0.8725   47.0882 C   0  0  1  0  0  0  0  0  0  0  0  0
    1.6975    0.0650   46.0237 O   0  0  0  0  0  0  0  0  0  0  0  0
    1.1675    1.4775   47.9763 C   0  0  0  0  0  0  0  0  0  0  0  0
   -0.0833    1.7343   47.2359 N   0  3  0  0  0  0  0  0  0  0  0  0
  1  2  1  6  0  0  0
  1  3  1  0  0  0  0
  1 10  1  0  0  0  0
  3  4  1  6  0  0  0
  3  5  1  0  0  0  0
  5  6  1  1  0  0  0
  5  7  1  0  0  0  0
  7  8  1  6  0  0  0
  7  9  1  0  0  0  0
  9 10  1  0  0  0  0
  9 11  1  6  0  0  0
 11 12  1  0  0  0  0
 13 14  1  6  0  0  0
 13 15  1  0  0  0  0
 13 22  1  0  0  0  0
 15 16  1  1  0  0  0
 15 17  1  0  0  0  0
 17 18  1  1  0  0  0
 17 19  1  0  0  0  0
 19  2  1  1  0  0  0
 19 20  1  0  0  0  0
 20 21  1  6  0  0  0
 20 22  1  0  0  0  0
 23 18  1  1  0  0  0
 23 24  1  0  0  0  0
 23 28  1  0  0  0  0
 24 25  1  1  0  0  0
 24 26  1  0  0  0  0
 26 27  1  0  0  0  0
 26 38  1  1  0  0  0
 27 28  1  0  0  0  0
 27 29  1  1  0  0  0
 29 30  1  0  0  0  0
 31 32  1  6  0  0  0
 31 33  1  0  0  0  0
 31 39  1  0  0  0  0
 33 34  1  6  0  0  0
 33 35  1  0  0  0  0
 35 36  1  1  0  0  0
 35 37  1  0  0  0  0
 37 38  1  6  0  0  0
 37 40  1  0  0  0  0
 39 40  1  0  0  0  0
 39 41  1  1  0  0  0
 41 42  1  0  0  0  0
M  CHG  5   4   1  14   1  21   1  36   1  42   1
M  END
>  <CHROM.1>
179.15341236,109.32082656,-44.24099620,-170.58930997,-177.37749118,61.65773857
-65.53248873,-33.91813634,69.79742378,-178.23928735,96.08212057,-75.08239851
85.10585768,-156.27722525,64.92305781,-173.42339667,-63.00150463,177.34851066
-40.96745257,-96.78577301,-152.05901398,-119.87160782,2.05624884,0.59241333
40.76001951,1.79804695,0.86351272,-1.56429751

>  <Name>
1pbr

>  <RI>
0

>  <Rbt.Current_Directory>
/home/itssahil/PROJECTS/Mol_Feturizer/New_Systems/rnas/1pbr

>  <Rbt.Executable>
rbdock ($Id: //depot/dev/client3/rdock/2013.1/src/exe/rbdock.cxx#4 $)

>  <Rbt.Library>
libRbt.so (2013.1, Build901 2013/11/27)

>  <Rbt.Parameter_File>
/export/apps/rDock/src/rDock_2013.1_src/data/scripts/dock_solv.prm

>  <Rbt.Receptor>
prm/blind_docking_100.prm

>  <SCORE>
-31.1436

>  <SCORE.INTER>
-42.2047

>  <SCORE.INTER.CONST>
1

>  <SCORE.INTER.POLAR>
-4.95567

>  <SCORE.INTER.ROT>
9

>  <SCORE.INTER.SOLV>
42.5508

>  <SCORE.INTER.VDW>
-35.4011

>  <SCORE.INTER.norm>
-1.00487

>  <SCORE.INTRA>
9.24634

>  <SCORE.INTRA.DIHEDRAL>
2.61091

>  <SCORE.INTRA.DIHEDRAL.0>
29.7866

>  <SCORE.INTRA.POLAR>
0.182139

>  <SCORE.INTRA.POLAR.0>
-0.984091

>  <SCORE.INTRA.REPUL>
-0.0988846

>  <SCORE.INTRA.REPUL.0>
0.274115

>  <SCORE.INTRA.SOLV>
4.86349

>  <SCORE.INTRA.SOLV.lig_0>
-152.978

>  <SCORE.INTRA.VDW>
5.38429

>  <SCORE.INTRA.VDW.0>
-6.10719

>  <SCORE.INTRA.norm>
0.220151

>  <SCORE.RESTR>
1.81471

>  <SCORE.RESTR.CAVITY>
1.81471

>  <SCORE.RESTR.norm>
0.0432073

>  <SCORE.SYSTEM>
0

>  <SCORE.SYSTEM.CONST>
0

>  <SCORE.SYSTEM.DIHEDRAL>
0

>  <SCORE.SYSTEM.SOLV>
0

>  <SCORE.SYSTEM.norm>
0

>  <SCORE.heavy>
42

>  <SCORE.norm>
-0.741514

>  <RMSD>
8.534

$$$$
1pbr
 OpenBabel11021811403D
libRbt.so/2013.1/901 2013/11/27
 42 45  0  0  0  0  0  0  0  0999 V2000
    1.4345    2.1359   38.1143 C   0  0  2  0  0  0  0  0  0  0  0  0
    1.3570    1.0637   37.1409 O   0  0  0  0  0  0  0  0  0  0  0  0
    0.2066    3.1107   37.9714 C   0  0  2  0  0  0  0  0  0  0  0  0
   -1.0936    2.4328   37.7303 N   0  3  0  0  0  0  0  0  0  0  0  0
    0.3999    4.0994   36.8062 C   0  0  1  0  0  0  0  0  0  0  0  0
   -0.5802    5.1340   36.8525 O   0  0  0  0  0  0  0  0  0  0  0  0
    1.8032    4.7235   36.8390 C   0  0  2  0  0  0  0  0  0  0  0  0
    1.9481    5.6662   35.7814 O   0  0  0  0  0  0  0  0  0  0  0  0
    2.8908    3.6269   36.8075 C   0  0  2  0  0  0  0  0  0  0  0  0
    2.7102    2.8237   37.9931 O   0  0  0  0  0  0  0  0  0  0  0  0
    4.3217    4.1622   36.8163 C   0  0  0  0  0  0  0  0  0  0  0  0
    5.2673    3.1062   36.7107 O   0  0  0  0  0  0  0  0  0  0  0  0
    3.9135   -2.2599   36.3496 C   0  0  1  0  0  0  0  0  0  0  0  0
    5.0234   -3.1663   36.0024 N   0  3  0  0  0  0  0  0  0  0  0  0
    4.1866   -1.4686   37.6645 C   0  0  2  0  0  0  0  0  0  0  0  0
    4.3879   -2.3669   38.7531 O   0  0  0  0  0  0  0  0  0  0  0  0
    2.9963   -0.5290   38.0164 C   0  0  1  0  0  0  0  0  0  0  0  0
    3.3791    0.3029   39.1514 O   0  0  0  0  0  0  0  0  0  0  0  0
    2.5940    0.3858   36.8137 C   0  0  1  0  0  0  0  0  0  0  0  0
    2.3767   -0.4138   35.4893 C   0  0  1  0  0  0  0  0  0  0  0  0
    2.0954    0.4869   34.3495 N   0  3  0  0  0  0  0  0  0  0  0  0
    3.6160   -1.2891   35.1695 C   0  0  0  0  0  0  0  0  0  0  0  0
    2.3739    0.7024   40.1372 C   0  0  1  0  0  0  0  0  0  0  0  0
    2.0474   -0.5108   41.0281 C   0  0  2  0  0  0  0  0  0  0  0  0
    0.7408   -0.3998   41.5855 O   0  0  0  0  0  0  0  0  0  0  0  0
    3.1478   -0.3363   42.0856 C   0  0  1  0  0  0  0  0  0  0  0  0
    3.1190    1.1616   42.3407 C   0  0  2  0  0  0  0  0  0  0  0  0
    2.9182    1.6845   41.0365 O   0  0  0  0  0  0  0  0  0  0  0  0
    4.3971    1.7441   42.9578 C   0  0  0  0  0  0  0  0  0  0  0  0
    5.4277    1.7994   41.9825 O   0  0  0  0  0  0  0  0  0  0  0  0
    2.3540    0.4362   47.3299 C   0  0  1  0  0  0  0  0  0  0  0  0
    1.6212   -0.6980   47.7899 O   0  0  0  0  0  0  0  0  0  0  0  0
    3.7986    0.0000   46.9577 C   0  0  2  0  0  0  0  0  0  0  0  0
    4.6141    1.1656   46.8634 O   0  0  0  0  0  0  0  0  0  0  0  0
    3.9310   -0.8153   45.6297 C   0  0  1  0  0  0  0  0  0  0  0  0
    3.6792   -2.2515   45.8806 N   0  3  0  0  0  0  0  0  0  0  0  0
    3.0341   -0.2362   44.5041 C   0  0  1  0  0  0  0  0  0  0  0  0
    2.9535   -1.0731   43.3242 O   0  0  0  0  0  0  0  0  0  0  0  0
    1.6597    1.0584   46.0923 C   0  0  1  0  0  0  0  0  0  0  0  0
    1.6971    0.0735   45.0235 O   0  0  0  0  0  0  0  0  0  0  0  0
    0.2174    1.5289   46.3580 C   0  0  0  0  0  0  0  0  0  0  0  0
    0.0311    2.0518   47.7256 N   0  3  0  0  0  0  0  0  0  0  0  0
  1  2  1  6  0  0  0
  1  3  1  0  0  0  0
  1 10  1  0  0  0  0
  3  4  1  6  0  0  0
  3  5  1  0  0  0  0
  5  6  1  1  0  0  0
  5  7  1  0  0  0  0
  7  8  1  6  0  0  0
  7  9  1  0  0  0  0
  9 10  1  0  0  0  0
  9 11  1  1  0  0  0
 11 12  1  0  0  0  0
 13 14  1  6  0  0  0
 13 15  1  0  0  0  0
 13 22  1  0  0  0  0
 15 16  1  1  0  0  0
 15 17  1  0  0  0  0
 17 18  1  1  0  0  0
 17 19  1  0  0  0  0
 19  2  1  1  0  0  0
 19 20  1  0  0  0  0
 20 21  1  6  0  0  0
 20 22  1  0  0  0  0
 23 18  1  6  0  0  0
 23 24  1  0  0  0  0
 23 28  1  0  0  0  0
 24 25  1  1  0  0  0
 24 26  1  0  0  0  0
 26 27  1  0  0  0  0
 26 38  1  1  0  0  0
 27 28  1  0  0  0  0
 27 29  1  6  0  0  0
 29 30  1  0  0  0  0
 31 32  1  6  0  0  0
 31 33  1  0  0  0  0
 31 39  1  0  0  0  0
 33 34  1  6  0  0  0
 33 35  1  0  0  0  0
 35 36  1  1  0  0  0
 35 37  1  0  0  0  0
 37 38  1  6  0  0  0
 37 40  1  0  0  0  0
 39 40  1  0  0  0  0
 39 41  1  1  0  0  0
 41 42  1  0  0  0  0
M  CHG  5   4   1  14   1  21   1  36   1  42   1
M  END
>  <CHROM.1>
158.36815889,73.36169461,-54.84674900,62.01021082,162.63728251,-176.72679036
76.17295654,112.40282761,71.98353612,-146.25668614,74.82595145,154.34494611
169.83085812,-126.73958001,73.82010736,65.13773320,-73.61731941,99.63351964
177.22092391,-132.71320124,34.22488839,-12.68350096,2.59356804,0.92926333
40.48952892,1.58535696,1.04666609,-1.42036882

>  <Name>
1pbr

>  <RI>
0

>  <Rbt.Current_Directory>
/home/itssahil/PROJECTS/Mol_Feturizer/New_Systems/rnas/1pbr

>  <Rbt.Executable>
rbdock ($Id: //depot/dev/client3/rdock/2013.1/src/exe/rbdock.cxx#4 $)

>  <Rbt.Library>
libRbt.so (2013.1, Build901 2013/11/27)

>  <Rbt.Parameter_File>
/export/apps/rDock/src/rDock_2013.1_src/data/scripts/dock_solv.prm

>  <Rbt.Receptor>
prm/blind_docking_60.prm

>  <SCORE>
-22.8846

>  <SCORE.INTER>
-42.3822

>  <SCORE.INTER.CONST>
1

>  <SCORE.INTER.POLAR>
-5.0011

>  <SCORE.INTER.ROT>
9

>  <SCORE.INTER.SOLV>
45.1875

>  <SCORE.INTER.VDW>
-36.247

>  <SCORE.INTER.norm>
-1.0091

>  <SCORE.INTRA>
18.005

>  <SCORE.INTRA.DIHEDRAL>
13.469

>  <SCORE.INTRA.DIHEDRAL.0>
29.7866

>  <SCORE.INTRA.POLAR>
0.963172

>  <SCORE.INTRA.POLAR.0>
-0.984091

>  <SCORE.INTRA.REPUL>
-0.209496

>  <SCORE.INTRA.REPUL.0>
0.274115

>  <SCORE.INTRA.SOLV>
-2.26168

>  <SCORE.INTRA.SOLV.lig_0>
-152.978

>  <SCORE.INTRA.VDW>
10.1741

>  <SCORE.INTRA.VDW.0>
-6.10719

>  <SCORE.INTRA.norm>
0.428691

>  <SCORE.RESTR>
1.49255

>  <SCORE.RESTR.CAVITY>
1.49255

>  <SCORE.RESTR.norm>
0.035537

>  <SCORE.SYSTEM>
0

>  <SCORE.SYSTEM.CONST>
0

>  <SCORE.SYSTEM.DIHEDRAL>
0

>  <SCORE.SYSTEM.SOLV>
0

>  <SCORE.SYSTEM.norm>
0

>  <SCORE.heavy>
42

>  <SCORE.norm>
-0.544871

>  <RMSD>
8.534

$$$$
1pbr
 OpenBabel11021811403D
libRbt.so/2013.1/901 2013/11/27
 42 45  0  0  0  0  0  0  0  0999 V2000
    0.7381    2.5188   37.4165 C   0  0  2  0  0  0  0  0  0  0  0  0
    0.8269    1.3214   36.6032 O   0  0  0  0  0  0  0  0  0  0  0  0
   -0.7216    2.7092   37.9743 C   0  0  2  0  0  0  0  0  0  0  0  0
   -1.3710    1.4568   38.4413 N   0  3  0  0  0  0  0  0  0  0  0  0
   -1.6606    3.3115   36.9122 C   0  0  1  0  0  0  0  0  0  0  0  0
   -2.8932    3.7214   37.5005 O   0  0  0  0  0  0  0  0  0  0  0  0
   -1.0048    4.5116   36.2127 C   0  0  2  0  0  0  0  0  0  0  0  0
   -1.9032    5.0817   35.2661 O   0  0  0  0  0  0  0  0  0  0  0  0
    0.3439    4.1052   35.5782 C   0  0  2  0  0  0  0  0  0  0  0  0
    1.1994    3.6695   36.6559 O   0  0  0  0  0  0  0  0  0  0  0  0
    1.0568    5.2377   34.8411 C   0  0  0  0  0  0  0  0  0  0  0  0
    1.2677    6.3550   35.6941 O   0  0  0  0  0  0  0  0  0  0  0  0
    3.4655   -1.9872   36.0565 C   0  0  1  0  0  0  0  0  0  0  0  0
    4.6156   -2.9039   35.9523 N   0  3  0  0  0  0  0  0  0  0  0  0
    3.1870   -1.5541   37.5277 C   0  0  2  0  0  0  0  0  0  0  0  0
    2.9248   -2.6951   38.3412 O   0  0  0  0  0  0  0  0  0  0  0  0
    1.9616   -0.5977   37.6131 C   0  0  1  0  0  0  0  0  0  0  0  0
    1.8566   -0.0957   38.9784 O   0  0  0  0  0  0  0  0  0  0  0  0
    2.0864    0.6074   36.6245 C   0  0  1  0  0  0  0  0  0  0  0  0
    2.4196    0.1623   35.1645 C   0  0  1  0  0  0  0  0  0  0  0  0
    2.6294    1.3261   34.2751 N   0  3  0  0  0  0  0  0  0  0  0  0
    3.6772   -0.7446   35.1429 C   0  0  0  0  0  0  0  0  0  0  0  0
    2.3786    1.2302   39.3122 C   0  0  1  0  0  0  0  0  0  0  0  0
    2.0956    1.5115   40.7998 C   0  0  2  0  0  0  0  0  0  0  0  0
    2.0299    2.9122   41.0525 O   0  0  0  0  0  0  0  0  0  0  0  0
    3.3504    0.8685   41.4095 C   0  0  1  0  0  0  0  0  0  0  0  0
    4.4465    1.3371   40.4669 C   0  0  2  0  0  0  0  0  0  0  0  0
    3.8127    1.2456   39.2002 O   0  0  0  0  0  0  0  0  0  0  0  0
    5.7279    0.4936   40.4841 C   0  0  0  0  0  0  0  0  0  0  0  0
    6.4051    0.6612   41.7209 O   0  0  0  0  0  0  0  0  0  0  0  0
    1.6170   -1.0875   45.7921 C   0  0  1  0  0  0  0  0  0  0  0  0
    2.7031   -1.9839   46.0191 O   0  0  0  0  0  0  0  0  0  0  0  0
    2.0433    0.3515   46.1962 C   0  0  2  0  0  0  0  0  0  0  0  0
    0.8711    1.1530   46.3230 O   0  0  0  0  0  0  0  0  0  0  0  0
    3.0321    1.0585   45.2122 C   0  0  1  0  0  0  0  0  0  0  0  0
    4.4273    0.6758   45.5216 N   0  3  0  0  0  0  0  0  0  0  0  0
    2.6540    0.8021   43.7296 C   0  0  1  0  0  0  0  0  0  0  0  0
    3.6516    1.2511   42.7798 O   0  0  0  0  0  0  0  0  0  0  0  0
    1.2039   -1.1113   44.2989 C   0  0  1  0  0  0  0  0  0  0  0  0
    2.3276   -0.6135   43.5221 O   0  0  0  0  0  0  0  0  0  0  0  0
    0.7586   -2.4978   43.7977 C   0  0  0  0  0  0  0  0  0  0  0  0
   -0.5319   -2.9245   44.3731 N   0  3  0  0  0  0  0  0  0  0  0  0
  1  2  1  6  0  0  0
  1  3  1  0  0  0  0
  1 10  1  0  0  0  0
  3  4  1  6  0  0  0
  3  5  1  0  0  0  0
  5  6  1  1  0  0  0
  5  7  1  0  0  0  0
  7  8  1  6  0  0  0
  7  9  1  0  0  0  0
  9 10  1  0  0  0  0
  9 11  1  1  0  0  0
 11 12  1  0  0  0  0
 13 14  1  1  0  0  0
 13 15  1  0  0  0  0
 13 22  1  0  0  0  0
 15 16  1  1  0  0  0
 15 17  1  0  0  0  0
 17 18  1  1  0  0  0
 17 19  1  0  0  0  0
 19  2  1  6  0  0  0
 19 20  1  0  0  0  0
 20 21  1  6  0  0  0
 20 22  1  0  0  0  0
 23 18  1  1  0  0  0
 23 24  1  0  0  0  0
 23 28  1  0  0  0  0
 24 25  1  6  0  0  0
 24 26  1  0  0  0  0
 26 27  1  0  0  0  0
 26 38  1  1  0  0  0
 27 28  1  0  0  0  0
 27 29  1  6  0  0  0
 29 30  1  0  0  0  0
 31 32  1  6  0  0  0
 31 33  1  0  0  0  0
 31 39  1  0  0  0  0
 33 34  1  6  0  0  0
 33 35  1  0  0  0  0
 35 36  1  6  0  0  0
 35 37  1  0  0  0  0
 37 38  1  6  0  0  0
 37 40  1  0  0  0  0
 39 40  1  0  0  0  0
 39 41  1  6  0  0  0
 41 42  1  0  0  0  0
M  CHG  5   4   1  14   1  21   1  36   1  42   1
M  END
>  <CHROM.1>
-147.14328861,99.00570956,21.53800059,-174.07001116,179.29522798,56.22381255
84.44011926,-46.98465259,-175.97067806,99.01971800,178.34257328,172.50616724
-168.26240193,65.55426489,-68.88844360,84.14053731,93.89200739,-58.81458362
154.13980727,173.47788691,69.57380969,171.51485763,1.89210877,0.97434022
39.70921833,1.85531636,0.82415311,-1.41665274

>  <Name>
1pbr

>  <RI>
0

>  <Rbt.Current_Directory>
/home/itssahil/PROJECTS/Mol_Feturizer/New_Systems/rnas/1pbr

>  <Rbt.Executable>
rbdock ($Id: //depot/dev/client3/rdock/2013.1/src/exe/rbdock.cxx#4 $)

>  <Rbt.Library>
libRbt.so (2013.1, Build901 2013/11/27)

>  <Rbt.Parameter_File>
/export/apps/rDock/src/rDock_2013.1_src/data/scripts/dock_solv.prm

>  <Rbt.Receptor>
prm/blind_docking_100.prm

>  <SCORE>
-37.198

>  <SCORE.INTER>
-42.8624

>  <SCORE.INTER.CONST>
1

>  <SCORE.INTER.POLAR>
-6.91196

>  <SCORE.INTER.ROT>
9

>  <SCORE.INTER.SOLV>
38.6845

>  <SCORE.INTER.VDW>
-28.0299

>  <SCORE.INTER.norm>
-1.02053

>  <SCORE.INTRA>
3.36841

>  <SCORE.INTRA.DIHEDRAL>
1.87894

>  <SCORE.INTRA.DIHEDRAL.0>
29.7866

>  <SCORE.INTRA.POLAR>
0.783852

>  <SCORE.INTRA.POLAR.0>
-0.984091

>  <SCORE.INTRA.REPUL>
-0.265027

>  <SCORE.INTRA.REPUL.0>
0.274115

>  <SCORE.INTRA.SOLV>
-1.79835

>  <SCORE.INTRA.SOLV.lig_0>
-152.978

>  <SCORE.INTRA.VDW>
1.98815

>  <SCORE.INTRA.VDW.0>
-6.10719

>  <SCORE.INTRA.norm>
0.0802002

>  <SCORE.RESTR>
2.29605

>  <SCORE.RESTR.CAVITY>
2.29605

>  <SCORE.RESTR.norm>
0.0546678

>  <SCORE.SYSTEM>
0

>  <SCORE.SYSTEM.CONST>
0

>  <SCORE.SYSTEM.DIHEDRAL>
0

>  <SCORE.SYSTEM.SOLV>
0

>  <SCORE.SYSTEM.norm>
0

>  <SCORE.heavy>
42

>  <SCORE.norm>
-0.885666

>  <RMSD>
8.543

$$$$
1pbr
 OpenBabel11021811403D
libRbt.so/2013.1/901 2013/11/27
 42 45  0  0  0  0  0  0  0  0999 V2000
    0.4672    2.5945   37.3126 C   0  0  2  0  0  0  0  0  0  0  0  0
    0.6002    1.4180   36.4751 O   0  0  0  0  0  0  0  0  0  0  0  0
   -1.0272    2.7918   37.7665 C   0  0  2  0  0  0  0  0  0  0  0  0
   -1.7256    1.5373   38.1495 N   0  3  0  0  0  0  0  0  0  0  0  0
   -1.8771    3.4365   36.6554 C   0  0  1  0  0  0  0  0  0  0  0  0
   -3.1444    3.8490   37.1626 O   0  0  0  0  0  0  0  0  0  0  0  0
   -1.1557    4.6448   36.0396 C   0  0  2  0  0  0  0  0  0  0  0  0
   -1.9742    5.2535   35.0457 O   0  0  0  0  0  0  0  0  0  0  0  0
    0.2307    4.2353   35.4950 C   0  0  2  0  0  0  0  0  0  0  0  0
    0.9985    3.7581   36.6202 O   0  0  0  0  0  0  0  0  0  0  0  0
    1.0110    5.3762   34.8442 C   0  0  0  0  0  0  0  0  0  0  0  0
    1.1017    6.4987   35.7115 O   0  0  0  0  0  0  0  0  0  0  0  0
    3.2529   -1.8958   36.0394 C   0  0  1  0  0  0  0  0  0  0  0  0
    4.4048   -2.8143   35.9817 N   0  3  0  0  0  0  0  0  0  0  0  0
    2.9200   -1.4570   37.4976 C   0  0  2  0  0  0  0  0  0  0  0  0
    2.6259   -2.5948   38.3048 O   0  0  0  0  0  0  0  0  0  0  0  0
    1.6936   -0.4988   37.5336 C   0  0  1  0  0  0  0  0  0  0  0  0
    1.5381    0.0082   38.8922 O   0  0  0  0  0  0  0  0  0  0  0  0
    1.8571    0.7026   36.5461 C   0  0  1  0  0  0  0  0  0  0  0  0
    2.2442    0.2519   35.1012 C   0  0  1  0  0  0  0  0  0  0  0  0
    2.4889    1.4122   34.2162 N   0  3  0  0  0  0  0  0  0  0  0  0
    3.5005   -0.6567   35.1301 C   0  0  0  0  0  0  0  0  0  0  0  0
    2.1891    1.2587   39.2850 C   0  0  1  0  0  0  0  0  0  0  0  0
    2.0886    1.4077   40.8147 C   0  0  2  0  0  0  0  0  0  0  0  0
    2.1537    2.7776   41.2010 O   0  0  0  0  0  0  0  0  0  0  0  0
    3.3508    0.6293   41.2160 C   0  0  1  0  0  0  0  0  0  0  0  0
    4.3711    1.1195   40.2019 C   0  0  2  0  0  0  0  0  0  0  0  0
    3.6002    1.1948   39.0125 O   0  0  0  0  0  0  0  0  0  0  0  0
    5.5813    0.1995   39.9956 C   0  0  0  0  0  0  0  0  0  0  0  0
    6.1270   -0.1769   41.2513 O   0  0  0  0  0  0  0  0  0  0  0  0
    1.1833   -0.9746   45.4645 C   0  0  1  0  0  0  0  0  0  0  0  0
    1.8011   -2.2593   45.4137 O   0  0  0  0  0  0  0  0  0  0  0  0
    2.2015    0.0656   46.0094 C   0  0  2  0  0  0  0  0  0  0  0  0
    1.4877    1.2346   46.4052 O   0  0  0  0  0  0  0  0  0  0  0  0
    3.3333    0.4806   45.0131 C   0  0  1  0  0  0  0  0  0  0  0  0
    4.4527   -0.4849   45.0752 N   0  3  0  0  0  0  0  0  0  0  0  0
    2.7913    0.6797   43.5732 C   0  0  1  0  0  0  0  0  0  0  0  0
    3.8244    0.8539   42.5724 O   0  0  0  0  0  0  0  0  0  0  0  0
    0.7073   -0.5511   44.0522 C   0  0  1  0  0  0  0  0  0  0  0  0
    1.8856   -0.4166   43.2111 O   0  0  0  0  0  0  0  0  0  0  0  0
   -0.3120   -1.5187   43.4221 C   0  0  0  0  0  0  0  0  0  0  0  0
   -1.3094   -2.0081   44.3938 N   0  3  0  0  0  0  0  0  0  0  0  0
  1  2  1  6  0  0  0
  1  3  1  0  0  0  0
  1 10  1  0  0  0  0
  3  4  1  6  0  0  0
  3  5  1  0  0  0  0
  5  6  1  1  0  0  0
  5  7  1  0  0  0  0
  7  8  1  6  0  0  0
  7  9  1  0  0  0  0
  9 10  1  0  0  0  0
  9 11  1  1  0  0  0
 11 12  1  0  0  0  0
 13 14  1  1  0  0  0
 13 15  1  0  0  0  0
 13 22  1  0  0  0  0
 15 16  1  1  0  0  0
 15 17  1  0  0  0  0
 17 18  1  1  0  0  0
 17 19  1  0  0  0  0
 19  2  1  6  0  0  0
 19 20  1  0  0  0  0
 20 21  1  6  0  0  0
 20 22  1  0  0  0  0
 23 18  1  1  0  0  0
 23 24  1  0  0  0  0
 23 28  1  0  0  0  0
 24 25  1  6  0  0  0
 24 26  1  0  0  0  0
 26 27  1  0  0  0  0
 26 38  1  1  0  0  0
 27 28  1  0  0  0  0
 27 29  1  6  0  0  0
 29 30  1  0  0  0  0
 31 32  1  6  0  0  0
 31 33  1  0  0  0  0
 31 39  1  0  0  0  0
 33 34  1  6  0  0  0
 33 35  1  0  0  0  0
 35 36  1  6  0  0  0
 35 37  1  0  0  0  0
 37 38  1  6  0  0  0
 37 40  1  0  0  0  0
 39 40  1  0  0  0  0
 39 41  1  6  0  0  0
 41 42  1  0  0  0  0
M  CHG  5   4   1  14   1  21   1  36   1  42   1
M  END
>  <CHROM.1>
-148.53121890,97.09307536,145.07919522,-39.75220181,89.77274434,52.61980678
110.88970650,92.66208376,64.15878117,91.54139778,-169.08265823,170.76237985
90.98753586,51.58566638,-48.44550302,-50.03771051,-179.60718834,63.69839798
-156.10898740,162.20836085,40.72188192,170.52685354,1.69445619,0.98120140
39.54981045,1.84847205,0.73097433,-1.36198264

>  <Name>
1pbr

>  <RI>
0

>  <Rbt.Current_Directory>
/home/itssahil/PROJECTS/Mol_Feturizer/New_Systems/rnas/1pbr

>  <Rbt.Executable>
rbdock ($Id: //depot/dev/client3/rdock/2013.1/src/exe/rbdock.cxx#4 $)

>  <Rbt.Library>
libRbt.so (2013.1, Build901 2013/11/27)

>  <Rbt.Parameter_File>
/export/apps/rDock/src/rDock_2013.1_src/data/scripts/dock_solv.prm

>  <Rbt.Receptor>
prm/blind_docking_100.prm

>  <SCORE>
-35.3023

>  <SCORE.INTER>
-47.1974

>  <SCORE.INTER.CONST>
1

>  <SCORE.INTER.POLAR>
-6.96898

>  <SCORE.INTER.ROT>
9

>  <SCORE.INTER.SOLV>
36.5495

>  <SCORE.INTER.VDW>
-30.0182

>  <SCORE.INTER.norm>
-1.12375

>  <SCORE.INTRA>
9.79539

>  <SCORE.INTRA.DIHEDRAL>
10.0228

>  <SCORE.INTRA.DIHEDRAL.0>
29.7866

>  <SCORE.INTRA.POLAR>
0.984091

>  <SCORE.INTRA.POLAR.0>
-0.984091

>  <SCORE.INTRA.REPUL>
-0.262472

>  <SCORE.INTRA.REPUL.0>
0.274115

>  <SCORE.INTRA.SOLV>
0.631266

>  <SCORE.INTRA.SOLV.lig_0>
-152.978

>  <SCORE.INTRA.VDW>
2.43481

>  <SCORE.INTRA.VDW.0>
-6.10719

>  <SCORE.INTRA.norm>
0.233224

>  <SCORE.RESTR>
2.09971

>  <SCORE.RESTR.CAVITY>
2.09971

>  <SCORE.RESTR.norm>
0.0499932

>  <SCORE.SYSTEM>
0

>  <SCORE.SYSTEM.CONST>
0

>  <SCORE.SYSTEM.DIHEDRAL>
0

>  <SCORE.SYSTEM.SOLV>
0

>  <SCORE.SYSTEM.norm>
0

>  <SCORE.heavy>
42

>  <SCORE.norm>
-0.840532

>  <RMSD>
8.550

$$$$
1pbr
 OpenBabel11021811403D
libRbt.so/2013.1/901 2013/11/27
 42 45  0  0  0  0  0  0  0  0999 V2000
    5.5066   -0.2092   39.4631 C   0  0  2  0  0  0  0  0  0  0  0  0
    5.8010   -1.0414   40.6138 O   0  0  0  0  0  0  0  0  0  0  0  0
    4.8133    1.1329   39.9063 C   0  0  2  0  0  0  0  0  0  0  0  0
    5.3908    1.7505   41.1284 N   0  3  0  0  0  0  0  0  0  0  0  0
    3.3139    0.9289   40.1937 C   0  0  1  0  0  0  0  0  0  0  0  0
    2.6501    2.1831   40.3333 O   0  0  0  0  0  0  0  0  0  0  0  0
    2.6430    0.1178   39.0749 C   0  0  2  0  0  0  0  0  0  0  0  0
    1.2500   -0.0231   39.3358 O   0  0  0  0  0  0  0  0  0  0  0  0
    3.3502   -1.2425   38.8854 C   0  0  2  0  0  0  0  0  0  0  0  0
    4.7119   -0.9568   38.5014 O   0  0  0  0  0  0  0  0  0  0  0  0
    2.7322   -2.1253   37.8024 C   0  0  0  0  0  0  0  0  0  0  0  0
    2.7410   -1.4733   36.5394 O   0  0  0  0  0  0  0  0  0  0  0  0
    5.9862   -4.6633   38.3654 C   0  0  1  0  0  0  0  0  0  0  0  0
    6.2308   -6.0246   37.8544 N   0  3  0  0  0  0  0  0  0  0  0  0
    5.0363   -4.6585   39.6013 C   0  0  2  0  0  0  0  0  0  0  0  0
    3.7799   -5.2428   39.2656 O   0  0  0  0  0  0  0  0  0  0  0  0
    4.7834   -3.2105   40.1141 C   0  0  1  0  0  0  0  0  0  0  0  0
    4.0332   -3.2827   41.3628 O   0  0  0  0  0  0  0  0  0  0  0  0
    6.1172   -2.4302   40.3535 C   0  0  1  0  0  0  0  0  0  0  0  0
    7.0830   -2.4892   39.1271 C   0  0  1  0  0  0  0  0  0  0  0  0
    8.3744   -1.8283   39.4188 N   0  3  0  0  0  0  0  0  0  0  0  0
    7.3335   -3.9583   38.6986 C   0  0  0  0  0  0  0  0  0  0  0  0
    2.9823   -2.3033   41.6422 C   0  0  1  0  0  0  0  0  0  0  0  0
    1.7787   -3.0354   42.2648 C   0  0  2  0  0  0  0  0  0  0  0  0
    0.5684   -2.3205   42.0321 O   0  0  0  0  0  0  0  0  0  0  0  0
    2.2063   -2.9913   43.7396 C   0  0  1  0  0  0  0  0  0  0  0  0
    2.7309   -1.5722   43.8835 C   0  0  2  0  0  0  0  0  0  0  0  0
    3.4166   -1.3794   42.6558 O   0  0  0  0  0  0  0  0  0  0  0  0
    3.6807   -1.3435   45.0664 C   0  0  0  0  0  0  0  0  0  0  0  0
    3.9683    0.0406   45.1999 O   0  0  0  0  0  0  0  0  0  0  0  0
   -0.7610   -6.9905   45.7272 C   0  0  1  0  0  0  0  0  0  0  0  0
   -1.1157   -6.6003   47.0526 O   0  0  0  0  0  0  0  0  0  0  0  0
   -1.5024   -6.0824   44.7067 C   0  0  2  0  0  0  0  0  0  0  0  0
   -1.4440   -6.7007   43.4234 O   0  0  0  0  0  0  0  0  0  0  0  0
   -0.9542   -4.6226   44.5872 C   0  0  1  0  0  0  0  0  0  0  0  0
   -1.5571   -3.7600   45.6271 N   0  3  0  0  0  0  0  0  0  0  0  0
    0.5967   -4.5848   44.6008 C   0  0  1  0  0  0  0  0  0  0  0  0
    1.1537   -3.2516   44.7085 O   0  0  0  0  0  0  0  0  0  0  0  0
    0.7699   -6.8669   45.5224 C   0  0  1  0  0  0  0  0  0  0  0  0
    1.1208   -5.4622   45.6538 O   0  0  0  0  0  0  0  0  0  0  0  0
    1.5996   -7.7348   46.4869 C   0  0  0  0  0  0  0  0  0  0  0  0
    1.1841   -7.5791   47.8947 N   0  3  0  0  0  0  0  0  0  0  0  0
  1  2  1  1  0  0  0
  1  3  1  0  0  0  0
  1 10  1  0  0  0  0
  3  4  1  1  0  0  0
  3  5  1  0  0  0  0
  5  6  1  6  0  0  0
  5  7  1  0  0  0  0
  7  8  1  1  0  0  0
  7  9  1  0  0  0  0
  9 10  1  0  0  0  0
  9 11  1  6  0  0  0
 11 12  1  0  0  0  0
 13 14  1  1  0  0  0
 13 15  1  0  0  0  0
 13 22  1  0  0  0  0
 15 16  1  6  0  0  0
 15 17  1  0  0  0  0
 17 18  1  1  0  0  0
 17 19  1  0  0  0  0
 19  2  1  6  0  0  0
 19 20  1  0  0  0  0
 20 21  1  1  0  0  0
 20 22  1  0  0  0  0
 23 18  1  1  0  0  0
 23 24  1  0  0  0  0
 23 28  1  0  0  0  0
 24 25  1  1  0  0  0
 24 26  1  0  0  0  0
 26 27  1  0  0  0  0
 26 38  1  1  0  0  0
 27 28  1  0  0  0  0
 27 29  1  1  0  0  0
 29 30  1  0  0  0  0
 31 32  1  1  0  0  0
 31 33  1  0  0  0  0
 31 39  1  0  0  0  0
 33 34  1  6  0  0  0
 33 35  1  0  0  0  0
 35 36  1  1  0  0  0
 35 37  1  0  0  0  0
 37 38  1  1  0  0  0
 37 40  1  0  0  0  0
 39 40  1  0  0  0  0
 39 41  1  1  0  0  0
 41 42  1  0  0  0  0
M  CHG  5   4   1  14   1  21   1  36   1  42   1
M  END
>  <CHROM.1>
164.61148085,-79.57458095,76.22005803,63.23074041,-55.15673346,58.75040731
-64.79469046,98.11095918,63.17371552,-141.49833140,138.17886260,87.67242172
58.37066362,63.07214585,-172.64022189,-93.83870136,90.64511321,-176.91900351
53.20536201,-132.00457455,-49.12763650,-172.91144914,2.93114364,-2.93758280
41.88520687,0.60288660,0.85828676,-0.13006210

>  <Name>
1pbr

>  <RI>
0

>  <Rbt.Current_Directory>
/home/itssahil/PROJECTS/Mol_Feturizer/New_Systems/rnas/1pbr

>  <Rbt.Executable>
rbdock ($Id: //depot/dev/client3/rdock/2013.1/src/exe/rbdock.cxx#4 $)

>  <Rbt.Library>
libRbt.so (2013.1, Build901 2013/11/27)

>  <Rbt.Parameter_File>
/export/apps/rDock/src/rDock_2013.1_src/data/scripts/dock_solv.prm

>  <Rbt.Receptor>
prm/pocket_docking_8.prm

>  <SCORE>
-32.8073

>  <SCORE.INTER>
-39.8255

>  <SCORE.INTER.CONST>
1

>  <SCORE.INTER.POLAR>
-6.80401

>  <SCORE.INTER.ROT>
9

>  <SCORE.INTER.SOLV>
28.3872

>  <SCORE.INTER.VDW>
-22.9327

>  <SCORE.INTER.norm>
-0.948226

>  <SCORE.INTRA>
7.01817

>  <SCORE.INTRA.DIHEDRAL>
4.88932

>  <SCORE.INTRA.DIHEDRAL.0>
29.7866

>  <SCORE.INTRA.POLAR>
0.874246

>  <SCORE.INTRA.POLAR.0>
-0.984091

>  <SCORE.INTRA.REPUL>
-0.19818

>  <SCORE.INTRA.REPUL.0>
0.274115

>  <SCORE.INTRA.SOLV>
0.364188

>  <SCORE.INTRA.SOLV.lig_0>
-152.978

>  <SCORE.INTRA.VDW>
2.40989

>  <SCORE.INTRA.VDW.0>
-6.10719

>  <SCORE.INTRA.norm>
0.167099

>  <SCORE.RESTR>
0

>  <SCORE.RESTR.CAVITY>
0

>  <SCORE.RESTR.norm>
0

>  <SCORE.SYSTEM>
0

>  <SCORE.SYSTEM.CONST>
0

>  <SCORE.SYSTEM.DIHEDRAL>
0

>  <SCORE.SYSTEM.SOLV>
0

>  <SCORE.SYSTEM.norm>
0

>  <SCORE.heavy>
42

>  <SCORE.norm>
-0.781126

>  <RMSD>
8.550

$$$$
1pbr
 OpenBabel11021811403D
libRbt.so/2013.1/901 2013/11/27
 42 45  0  0  0  0  0  0  0  0999 V2000
    4.9080   -2.0721   39.6448 C   0  0  2  0  0  0  0  0  0  0  0  0
    4.7796   -0.8761   38.8348 O   0  0  0  0  0  0  0  0  0  0  0  0
    5.8848   -3.1042   38.9673 C   0  0  2  0  0  0  0  0  0  0  0  0
    7.0975   -2.4974   38.3595 N   0  3  0  0  0  0  0  0  0  0  0  0
    5.1868   -3.8916   37.8425 C   0  0  1  0  0  0  0  0  0  0  0  0
    5.9898   -4.9922   37.4216 O   0  0  0  0  0  0  0  0  0  0  0  0
    3.8137   -4.4067   38.2995 C   0  0  2  0  0  0  0  0  0  0  0  0
    3.2030   -5.1684   37.2626 O   0  0  0  0  0  0  0  0  0  0  0  0
    2.9231   -3.2392   38.7792 C   0  0  2  0  0  0  0  0  0  0  0  0
    3.5935   -2.6367   39.9066 O   0  0  0  0  0  0  0  0  0  0  0  0
    1.5268   -3.6610   39.2338 C   0  0  0  0  0  0  0  0  0  0  0  0
    1.2019   -4.9613   38.7602 O   0  0  0  0  0  0  0  0  0  0  0  0
    1.9199    0.9058   36.2166 C   0  0  1  0  0  0  0  0  0  0  0  0
    0.8603    1.1987   35.2340 N   0  3  0  0  0  0  0  0  0  0  0  0
    1.3594    0.2337   37.5065 C   0  0  2  0  0  0  0  0  0  0  0  0
    0.3938    1.0783   38.1284 O   0  0  0  0  0  0  0  0  0  0  0  0
    2.4942   -0.0537   38.5328 C   0  0  1  0  0  0  0  0  0  0  0  0
    1.9395   -0.8304   39.6356 O   0  0  0  0  0  0  0  0  0  0  0  0
    3.6831   -0.8400   37.8898 C   0  0  1  0  0  0  0  0  0  0  0  0
    4.1991   -0.1856   36.5684 C   0  0  1  0  0  0  0  0  0  0  0  0
    5.2549   -1.0040   35.9318 N   0  3  0  0  0  0  0  0  0  0  0  0
    3.0309    0.0270   35.5711 C   0  0  0  0  0  0  0  0  0  0  0  0
    1.2519   -0.1517   40.7348 C   0  0  1  0  0  0  0  0  0  0  0  0
    0.5750   -1.2124   41.6230 C   0  0  2  0  0  0  0  0  0  0  0  0
   -0.5378   -0.6609   42.3214 O   0  0  0  0  0  0  0  0  0  0  0  0
    1.7510   -1.5287   42.5593 C   0  0  1  0  0  0  0  0  0  0  0  0
    2.3109   -0.1474   42.8560 C   0  0  2  0  0  0  0  0  0  0  0  0
    2.2045    0.4969   41.5958 O   0  0  0  0  0  0  0  0  0  0  0  0
    3.7643   -0.1229   43.3464 C   0  0  0  0  0  0  0  0  0  0  0  0
    4.1098    1.1837   43.7820 O   0  0  0  0  0  0  0  0  0  0  0  0
   -0.7691   -5.8975   44.4440 C   0  0  1  0  0  0  0  0  0  0  0  0
   -1.2288   -5.5491   45.7486 O   0  0  0  0  0  0  0  0  0  0  0  0
   -1.3672   -4.9079   43.4054 C   0  0  2  0  0  0  0  0  0  0  0  0
   -1.2169   -5.4705   42.1041 O   0  0  0  0  0  0  0  0  0  0  0  0
   -0.7423   -3.4743   43.4089 C   0  0  1  0  0  0  0  0  0  0  0  0
   -1.3997   -2.6291   44.4299 N   0  3  0  0  0  0  0  0  0  0  0  0
    0.8004   -3.5167   43.5673 C   0  0  1  0  0  0  0  0  0  0  0  0
    1.4066   -2.2201   43.7914 O   0  0  0  0  0  0  0  0  0  0  0  0
    0.7784   -5.8436   44.3876 C   0  0  1  0  0  0  0  0  0  0  0  0
    1.1808   -4.4659   44.6198 O   0  0  0  0  0  0  0  0  0  0  0  0
    1.4716   -6.7951   45.3807 C   0  0  0  0  0  0  0  0  0  0  0  0
    1.4869   -8.1949   44.9129 N   0  3  0  0  0  0  0  0  0  0  0  0
  1  2  1  6  0  0  0
  1  3  1  0  0  0  0
  1 10  1  0  0  0  0
  3  4  1  6  0  0  0
  3  5  1  0  0  0  0
  5  6  1  1  0  0  0
  5  7  1  0  0  0  0
  7  8  1  6  0  0  0
  7  9  1  0  0  0  0
  9 10  1  0  0  0  0
  9 11  1  1  0  0  0
 11 12  1  0  0  0  0
 13 14  1  6  0  0  0
 13 15  1  0  0  0  0
 13 22  1  0  0  0  0
 15 16  1  1  0  0  0
 15 17  1  0  0  0  0
 17 18  1  1  0  0  0
 17 19  1  0  0  0  0
 19  2  1  1  0  0  0
 19 20  1  0  0  0  0
 20 21  1  6  0  0  0
 20 22  1  0  0  0  0
 23 18  1  6  0  0  0
 23 24  1  0  0  0  0
 23 28  1  0  0  0  0
 24 25  1  1  0  0  0
 24 26  1  0  0  0  0
 26 27  1  0  0  0  0
 26 38  1  1  0  0  0
 27 28  1  0  0  0  0
 27 29  1  6  0  0  0
 29 30  1  0  0  0  0
 31 32  1  1  0  0  0
 31 33  1  0  0  0  0
 31 39  1  0  0  0  0
 33 34  1  6  0  0  0
 33 35  1  0  0  0  0
 35 36  1  1  0  0  0
 35 37  1  0  0  0  0
 37 38  1  1  0  0  0
 37 40  1  0  0  0  0
 39 40  1  0  0  0  0
 39 41  1  1  0  0  0
 41 42  1  0  0  0  0
M  CHG  5   4   1  14   1  21   1  36   1  42   1
M  END
>  <CHROM.1>
93.07136466,97.32448271,-135.21088480,-72.82936633,39.91702905,-17.21296951
-81.33097959,48.39909336,168.14503885,-83.52099969,170.75962156,-178.07846991
143.33010615,61.07835082,-171.16337307,-174.58570688,62.59155892,-65.63860110
-43.77831713,-88.33816669,78.55750017,-54.84431007,2.16373974,-2.45436123
40.56461089,-0.85545046,-0.89443253,2.66264890

>  <Name>
1pbr

>  <RI>
0

>  <Rbt.Current_Directory>
/home/itssahil/PROJECTS/Mol_Feturizer/New_Systems/rnas/1pbr

>  <Rbt.Executable>
rbdock ($Id: //depot/dev/client3/rdock/2013.1/src/exe/rbdock.cxx#4 $)

>  <Rbt.Library>
libRbt.so (2013.1, Build901 2013/11/27)

>  <Rbt.Parameter_File>
/export/apps/rDock/src/rDock_2013.1_src/data/scripts/dock_solv.prm

>  <Rbt.Receptor>
prm/pocket_docking_4.prm

>  <SCORE>
-38.1716

>  <SCORE.INTER>
-48.8117

>  <SCORE.INTER.CONST>
1

>  <SCORE.INTER.POLAR>
-8.02155

>  <SCORE.INTER.ROT>
9

>  <SCORE.INTER.SOLV>
25.9026

>  <SCORE.INTER.VDW>
-24.0368

>  <SCORE.INTER.norm>
-1.16218

>  <SCORE.INTRA>
10.2292

>  <SCORE.INTRA.DIHEDRAL>
5.9146

>  <SCORE.INTRA.DIHEDRAL.0>
29.7866

>  <SCORE.INTRA.POLAR>
0.634575

>  <SCORE.INTRA.POLAR.0>
-0.984091

>  <SCORE.INTRA.REPUL>
-0.274115

>  <SCORE.INTRA.REPUL.0>
0.274115

>  <SCORE.INTRA.SOLV>
4.35151

>  <SCORE.INTRA.SOLV.lig_0>
-152.978

>  <SCORE.INTRA.VDW>
4.30921

>  <SCORE.INTRA.VDW.0>
-6.10719

>  <SCORE.INTRA.norm>
0.243553

>  <SCORE.RESTR>
0.410893

>  <SCORE.RESTR.CAVITY>
0.410893

>  <SCORE.RESTR.norm>
0.00978316

>  <SCORE.SYSTEM>
0

>  <SCORE.SYSTEM.CONST>
0

>  <SCORE.SYSTEM.DIHEDRAL>
0

>  <SCORE.SYSTEM.SOLV>
0

>  <SCORE.SYSTEM.norm>
0

>  <SCORE.heavy>
42

>  <SCORE.norm>
-0.908847

>  <RMSD>
8.553

$$$$
1pbr
 OpenBabel11021811403D
libRbt.so/2013.1/901 2013/11/27
 42 45  0  0  0  0  0  0  0  0999 V2000
    0.6257    2.4035   37.8827 C   0  0  2  0  0  0  0  0  0  0  0  0
    0.7341    1.1890   37.0976 O   0  0  0  0  0  0  0  0  0  0  0  0
   -0.8758    2.6978   38.2532 C   0  0  2  0  0  0  0  0  0  0  0  0
   -1.6597    1.4985   38.6472 N   0  3  0  0  0  0  0  0  0  0  0  0
   -1.6345    3.3415   37.0773 C   0  0  1  0  0  0  0  0  0  0  0  0
   -2.9001    3.8406   37.5043 O   0  0  0  0  0  0  0  0  0  0  0  0
   -0.8189    4.4842   36.4538 C   0  0  2  0  0  0  0  0  0  0  0  0
   -1.5539    5.0950   35.3979 O   0  0  0  0  0  0  0  0  0  0  0  0
    0.5676    3.9803   35.9954 C   0  0  2  0  0  0  0  0  0  0  0  0
    1.2528    3.5085   37.1749 O   0  0  0  0  0  0  0  0  0  0  0  0
    1.4398    5.0511   35.3423 C   0  0  0  0  0  0  0  0  0  0  0  0
    0.8351    5.5571   34.1595 O   0  0  0  0  0  0  0  0  0  0  0  0
    3.6396   -1.7209   35.9581 C   0  0  1  0  0  0  0  0  0  0  0  0
    4.8633   -2.4956   35.6819 N   0  3  0  0  0  0  0  0  0  0  0  0
    3.3712   -1.5657   37.4857 C   0  0  2  0  0  0  0  0  0  0  0  0
    3.2388   -2.8453   38.1002 O   0  0  0  0  0  0  0  0  0  0  0  0
    2.0684   -0.7559   37.7513 C   0  0  1  0  0  0  0  0  0  0  0  0
    1.9630   -0.4992   39.1831 O   0  0  0  0  0  0  0  0  0  0  0  0
    2.0525    0.6027   36.9772 C   0  0  1  0  0  0  0  0  0  0  0  0
    2.3769    0.4390   35.4578 C   0  0  1  0  0  0  0  0  0  0  0  0
    2.4527    1.7486   34.7732 N   0  3  0  0  0  0  0  0  0  0  0  0
    3.7094   -0.3297   35.2629 C   0  0  0  0  0  0  0  0  0  0  0  0
    2.5694    0.7027   39.7571 C   0  0  1  0  0  0  0  0  0  0  0  0
    2.0237    0.8969   41.1843 C   0  0  2  0  0  0  0  0  0  0  0  0
    2.0862    2.2658   41.5744 O   0  0  0  0  0  0  0  0  0  0  0  0
    3.0334    0.0273   41.9487 C   0  0  1  0  0  0  0  0  0  0  0  0
    4.3509    0.4068   41.2932 C   0  0  2  0  0  0  0  0  0  0  0  0
    3.9858    0.5162   39.9260 O   0  0  0  0  0  0  0  0  0  0  0  0
    5.4831   -0.6145   41.4627 C   0  0  0  0  0  0  0  0  0  0  0  0
    5.8139   -0.7518   42.8368 O   0  0  0  0  0  0  0  0  0  0  0  0
   -0.4861   -0.7024   45.6179 C   0  0  1  0  0  0  0  0  0  0  0  0
   -0.0061   -1.9514   46.1124 O   0  0  0  0  0  0  0  0  0  0  0  0
    0.3997    0.4470   46.1747 C   0  0  2  0  0  0  0  0  0  0  0  0
   -0.2908    1.6809   45.9919 O   0  0  0  0  0  0  0  0  0  0  0  0
    1.8218    0.5667   45.5351 C   0  0  1  0  0  0  0  0  0  0  0  0
    2.7693   -0.3449   46.2134 N   0  3  0  0  0  0  0  0  0  0  0  0
    1.7837    0.3580   43.9983 C   0  0  1  0  0  0  0  0  0  0  0  0
    3.0916    0.2453   43.3853 O   0  0  0  0  0  0  0  0  0  0  0  0
   -0.4498   -0.6881   44.0690 C   0  0  1  0  0  0  0  0  0  0  0  0
    0.9411   -0.7945   43.6591 O   0  0  0  0  0  0  0  0  0  0  0  0
   -1.3029   -1.7914   43.4156 C   0  0  0  0  0  0  0  0  0  0  0  0
   -1.0880   -3.1166   44.0289 N   0  3  0  0  0  0  0  0  0  0  0  0
  1  2  1  6  0  0  0
  1  3  1  0  0  0  0
  1 10  1  0  0  0  0
  3  4  1  6  0  0  0
  3  5  1  0  0  0  0
  5  6  1  1  0  0  0
  5  7  1  0  0  0  0
  7  8  1  6  0  0  0
  7  9  1  0  0  0  0
  9 10  1  0  0  0  0
  9 11  1  1  0  0  0
 11 12  1  0  0  0  0
 13 14  1  1  0  0  0
 13 15  1  0  0  0  0
 13 22  1  0  0  0  0
 15 16  1  6  0  0  0
 15 17  1  0  0  0  0
 17 18  1  1  0  0  0
 17 19  1  0  0  0  0
 19  2  1  6  0  0  0
 19 20  1  0  0  0  0
 20 21  1  1  0  0  0
 20 22  1  0  0  0  0
 23 18  1  1  0  0  0
 23 24  1  0  0  0  0
 23 28  1  0  0  0  0
 24 25  1  1  0  0  0
 24 26  1  0  0  0  0
 26 27  1  0  0  0  0
 26 38  1  1  0  0  0
 27 28  1  0  0  0  0
 27 29  1  6  0  0  0
 29 30  1  0  0  0  0
 31 32  1  1  0  0  0
 31 33  1  0  0  0  0
 31 39  1  0  0  0  0
 33 34  1  6  0  0  0
 33 35  1  0  0  0  0
 35 36  1  1  0  0  0
 35 37  1  0  0  0  0
 37 38  1  1  0  0  0
 37 40  1  0  0  0  0
 39 40  1  0  0  0  0
 39 41  1  6  0  0  0
 41 42  1  0  0  0  0
M  CHG  5   4   1  14   1  21   1  36   1  42   1
M  END
>  <CHROM.1>
-164.41346548,111.94240567,153.79223234,-176.34989961,-56.62517768,-61.94279888
-66.27926200,-56.46235731,72.23438771,89.14423077,166.36301549,140.09161955
-66.24882795,43.88748357,-63.00696130,-56.16546422,61.81839944,-52.04383595
38.90352628,179.00856693,-46.88619951,148.95691572,1.47640310,0.76861990
39.91133771,1.61316730,0.68092132,-1.24473644

>  <Name>
1pbr

>  <RI>
0

>  <Rbt.Current_Directory>
/home/itssahil/PROJECTS/Mol_Feturizer/New_Systems/rnas/1pbr

>  <Rbt.Executable>
rbdock ($Id: //depot/dev/client3/rdock/2013.1/src/exe/rbdock.cxx#4 $)

>  <Rbt.Library>
libRbt.so (2013.1, Build901 2013/11/27)

>  <Rbt.Parameter_File>
/export/apps/rDock/src/rDock_2013.1_src/data/scripts/dock_solv.prm

>  <Rbt.Receptor>
prm/blind_docking_60.prm

>  <SCORE>
-44.3071

>  <SCORE.INTER>
-44.7592

>  <SCORE.INTER.CONST>
1

>  <SCORE.INTER.POLAR>
-6.63895

>  <SCORE.INTER.ROT>
9

>  <SCORE.INTER.SOLV>
31.57

>  <SCORE.INTER.VDW>
-27.833

>  <SCORE.INTER.norm>
-1.0657

>  <SCORE.INTRA>
-0.559647

>  <SCORE.INTRA.DIHEDRAL>
-5.82393

>  <SCORE.INTRA.DIHEDRAL.0>
29.7866

>  <SCORE.INTRA.POLAR>
-0.238113

>  <SCORE.INTRA.POLAR.0>
-0.984091

>  <SCORE.INTRA.REPUL>
-0.274115

>  <SCORE.INTRA.REPUL.0>
0.274115

>  <SCORE.INTRA.SOLV>
3.1323

>  <SCORE.INTRA.SOLV.lig_0>
-152.978

>  <SCORE.INTRA.VDW>
2.96633

>  <SCORE.INTRA.VDW.0>
-6.10719

>  <SCORE.INTRA.norm>
-0.0133249

>  <SCORE.RESTR>
1.01174

>  <SCORE.RESTR.CAVITY>
1.01174

>  <SCORE.RESTR.norm>
0.0240891

>  <SCORE.SYSTEM>
0

>  <SCORE.SYSTEM.CONST>
0

>  <SCORE.SYSTEM.DIHEDRAL>
0

>  <SCORE.SYSTEM.SOLV>
0

>  <SCORE.SYSTEM.norm>
0

>  <SCORE.heavy>
42

>  <SCORE.norm>
-1.05493

>  <RMSD>
8.562

$$$$
1pbr
 OpenBabel11021811403D
libRbt.so/2013.1/901 2013/11/27
 42 45  0  0  0  0  0  0  0  0999 V2000
    2.5395    2.2191   39.1345 C   0  0  2  0  0  0  0  0  0  0  0  0
    2.9290    1.1695   38.2127 O   0  0  0  0  0  0  0  0  0  0  0  0
    1.4109    1.7161   40.1101 C   0  0  2  0  0  0  0  0  0  0  0  0
    1.6049    0.3322   40.6154 N   0  3  0  0  0  0  0  0  0  0  0  0
    0.0264    1.7386   39.4354 C   0  0  1  0  0  0  0  0  0  0  0  0
   -1.0081    1.5384   40.3962 O   0  0  0  0  0  0  0  0  0  0  0  0
   -0.2084    3.0676   38.7016 C   0  0  2  0  0  0  0  0  0  0  0  0
   -1.5090    3.0872   38.1217 O   0  0  0  0  0  0  0  0  0  0  0  0
    0.9065    3.3239   37.6634 C   0  0  2  0  0  0  0  0  0  0  0  0
    2.1482    3.4084   38.3944 O   0  0  0  0  0  0  0  0  0  0  0  0
    0.7394    4.6190   36.8704 C   0  0  0  0  0  0  0  0  0  0  0  0
    1.9860    5.0776   36.3643 O   0  0  0  0  0  0  0  0  0  0  0  0
    6.4030    0.1426   35.9578 C   0  0  1  0  0  0  0  0  0  0  0  0
    7.7669   -0.0658   35.4379 N   0  3  0  0  0  0  0  0  0  0  0  0
    6.1172   -0.7163   37.2267 C   0  0  2  0  0  0  0  0  0  0  0  0
    6.2781   -2.1027   36.9358 O   0  0  0  0  0  0  0  0  0  0  0  0
    4.6684   -0.4887   37.7488 C   0  0  1  0  0  0  0  0  0  0  0  0
    4.5181   -1.1815   39.0233 O   0  0  0  0  0  0  0  0  0  0  0  0
    4.3442    1.0289   37.9408 C   0  0  1  0  0  0  0  0  0  0  0  0
    4.6866    1.8865   36.6807 C   0  0  1  0  0  0  0  0  0  0  0  0
    4.4633    3.3285   36.9265 N   0  3  0  0  0  0  0  0  0  0  0  0
    6.1557    1.6529   36.2430 C   0  0  0  0  0  0  0  0  0  0  0  0
    5.0290   -2.5440   39.1798 C   0  0  1  0  0  0  0  0  0  0  0  0
    5.1752   -2.8464   40.6829 C   0  0  2  0  0  0  0  0  0  0  0  0
    6.1600   -3.8508   40.9096 O   0  0  0  0  0  0  0  0  0  0  0  0
    3.7525   -3.3517   40.9665 C   0  0  1  0  0  0  0  0  0  0  0  0
    3.4766   -4.2383   39.7634 C   0  0  2  0  0  0  0  0  0  0  0  0
    4.0630   -3.4979   38.7039 O   0  0  0  0  0  0  0  0  0  0  0  0
    1.9936   -4.5022   39.4726 C   0  0  0  0  0  0  0  0  0  0  0  0
    1.8611   -5.3170   38.3172 O   0  0  0  0  0  0  0  0  0  0  0  0
   -0.0490   -5.2630   44.2350 C   0  0  1  0  0  0  0  0  0  0  0  0
    0.4661   -5.0656   45.5505 O   0  0  0  0  0  0  0  0  0  0  0  0
   -0.0762   -3.9032   43.4828 C   0  0  2  0  0  0  0  0  0  0  0  0
   -0.9188   -4.0338   42.3402 O   0  0  0  0  0  0  0  0  0  0  0  0
    1.3177   -3.3650   43.0211 C   0  0  1  0  0  0  0  0  0  0  0  0
    1.9710   -2.6198   44.1197 N   0  3  0  0  0  0  0  0  0  0  0  0
    2.2123   -4.4951   42.4471 C   0  0  1  0  0  0  0  0  0  0  0  0
    3.5838   -4.0963   42.2041 O   0  0  0  0  0  0  0  0  0  0  0  0
    0.8329   -6.2731   43.4588 C   0  0  1  0  0  0  0  0  0  0  0  0
    2.1526   -5.6820   43.3079 O   0  0  0  0  0  0  0  0  0  0  0  0
    0.9229   -7.6601   44.1224 C   0  0  0  0  0  0  0  0  0  0  0  0
    1.6423   -8.6445   43.2904 N   0  3  0  0  0  0  0  0  0  0  0  0
  1  2  1  6  0  0  0
  1  3  1  0  0  0  0
  1 10  1  0  0  0  0
  3  4  1  6  0  0  0
  3  5  1  0  0  0  0
  5  6  1  1  0  0  0
  5  7  1  0  0  0  0
  7  8  1  6  0  0  0
  7  9  1  0  0  0  0
  9 10  1  0  0  0  0
  9 11  1  1  0  0  0
 11 12  1  0  0  0  0
 13 14  1  1  0  0  0
 13 15  1  0  0  0  0
 13 22  1  0  0  0  0
 15 16  1  6  0  0  0
 15 17  1  0  0  0  0
 17 18  1  1  0  0  0
 17 19  1  0  0  0  0
 19  2  1  6  0  0  0
 19 20  1  0  0  0  0
 20 21  1  1  0  0  0
 20 22  1  0  0  0  0
 23 18  1  1  0  0  0
 23 24  1  0  0  0  0
 23 28  1  0  0  0  0
 24 25  1  6  0  0  0
 24 26  1  0  0  0  0
 26 27  1  0  0  0  0
 26 38  1  1  0  0  0
 27 28  1  0  0  0  0
 27 29  1  6  0  0  0
 29 30  1  0  0  0  0
 31 32  1  1  0  0  0
 31 33  1  0  0  0  0
 31 39  1  0  0  0  0
 33 34  1  6  0  0  0
 33 35  1  0  0  0  0
 35 36  1  1  0  0  0
 35 37  1  0  0  0  0
 37 38  1  1  0  0  0
 37 40  1  0  0  0  0
 39 40  1  0  0  0  0
 39 41  1  1  0  0  0
 41 42  1  0  0  0  0
M  CHG  5   4   1  14   1  21   1  36   1  42   1
M  END
>  <CHROM.1>
-138.59552292,144.91429545,-56.24382417,56.93332265,-171.72181347,156.09522782
-88.45785102,-170.04467470,68.78732843,-44.56105605,161.10042786,161.14834117
177.05224201,177.39722481,178.89327124,-162.92459044,-64.53090483,162.26163029
79.20615945,-79.59862365,173.61954262,-63.44282739,2.67309232,-1.35499943
39.86013494,1.37854965,0.53812120,-0.53083425

>  <Name>
1pbr

>  <RI>
0

>  <Rbt.Current_Directory>
/home/itssahil/PROJECTS/Mol_Feturizer/New_Systems/rnas/1pbr

>  <Rbt.Executable>
rbdock ($Id: //depot/dev/client3/rdock/2013.1/src/exe/rbdock.cxx#4 $)

>  <Rbt.Library>
libRbt.so (2013.1, Build901 2013/11/27)

>  <Rbt.Parameter_File>
/export/apps/rDock/src/rDock_2013.1_src/data/scripts/dock_solv.prm

>  <Rbt.Receptor>
prm/pocket_docking_5.prm

>  <SCORE>
-37.3484

>  <SCORE.INTER>
-37.1308

>  <SCORE.INTER.CONST>
1

>  <SCORE.INTER.POLAR>
-5.71494

>  <SCORE.INTER.ROT>
9

>  <SCORE.INTER.SOLV>
20.1528

>  <SCORE.INTER.VDW>
-22.0217

>  <SCORE.INTER.norm>
-0.884067

>  <SCORE.INTRA>
-0.217538

>  <SCORE.INTRA.DIHEDRAL>
-3.47067

>  <SCORE.INTRA.DIHEDRAL.0>
29.7866

>  <SCORE.INTRA.POLAR>
-0.125108

>  <SCORE.INTRA.POLAR.0>
-0.984091

>  <SCORE.INTRA.REPUL>
-0.27391

>  <SCORE.INTRA.REPUL.0>
0.274115

>  <SCORE.INTRA.SOLV>
1.34238

>  <SCORE.INTRA.SOLV.lig_0>
-152.978

>  <SCORE.INTRA.VDW>
2.64152

>  <SCORE.INTRA.VDW.0>
-6.10719

>  <SCORE.INTRA.norm>
-0.00517947

>  <SCORE.RESTR>
0

>  <SCORE.RESTR.CAVITY>
0

>  <SCORE.RESTR.norm>
0

>  <SCORE.SYSTEM>
0

>  <SCORE.SYSTEM.CONST>
0

>  <SCORE.SYSTEM.DIHEDRAL>
0

>  <SCORE.SYSTEM.SOLV>
0

>  <SCORE.SYSTEM.norm>
0

>  <SCORE.heavy>
42

>  <SCORE.norm>
-0.889247

>  <RMSD>
8.563

$$$$
1pbr
 OpenBabel11021811403D
libRbt.so/2013.1/901 2013/11/27
 42 45  0  0  0  0  0  0  0  0999 V2000
    4.9365   -1.7923   39.5062 C   0  0  2  0  0  0  0  0  0  0  0  0
    5.0000   -0.9237   38.3467 O   0  0  0  0  0  0  0  0  0  0  0  0
    6.1414   -1.5137   40.4803 C   0  0  2  0  0  0  0  0  0  0  0  0
    6.4690   -0.0753   40.6596 N   0  3  0  0  0  0  0  0  0  0  0  0
    7.4347   -2.1926   39.9915 C   0  0  1  0  0  0  0  0  0  0  0  0
    8.4388   -2.1568   41.0034 O   0  0  0  0  0  0  0  0  0  0  0  0
    7.1726   -3.6503   39.5837 C   0  0  2  0  0  0  0  0  0  0  0  0
    8.3865   -4.2739   39.1765 O   0  0  0  0  0  0  0  0  0  0  0  0
    6.0753   -3.7262   38.4989 C   0  0  2  0  0  0  0  0  0  0  0  0
    4.8721   -3.1818   39.0814 O   0  0  0  0  0  0  0  0  0  0  0  0
    5.7652   -5.1430   38.0186 C   0  0  0  0  0  0  0  0  0  0  0  0
    6.9320   -5.7857   37.5227 O   0  0  0  0  0  0  0  0  0  0  0  0
    2.0409    0.9050   35.8754 C   0  0  1  0  0  0  0  0  0  0  0  0
    0.9139    1.2168   34.9771 N   0  3  0  0  0  0  0  0  0  0  0  0
    1.5622    0.3805   37.2630 C   0  0  2  0  0  0  0  0  0  0  0  0
    0.7349    1.3493   37.9029 O   0  0  0  0  0  0  0  0  0  0  0  0
    2.7686    0.0708   38.1969 C   0  0  1  0  0  0  0  0  0  0  0  0
    2.2683   -0.5719   39.4068 O   0  0  0  0  0  0  0  0  0  0  0  0
    3.8198   -0.8612   37.5101 C   0  0  1  0  0  0  0  0  0  0  0  0
    4.2498   -0.3526   36.0969 C   0  0  1  0  0  0  0  0  0  0  0  0
    5.1670   -1.3043   35.4317 N   0  3  0  0  0  0  0  0  0  0  0  0
    3.0072   -0.1122   35.2010 C   0  0  0  0  0  0  0  0  0  0  0  0
    1.5097    0.2056   40.3876 C   0  0  1  0  0  0  0  0  0  0  0  0
    0.8136   -0.7681   41.3569 C   0  0  2  0  0  0  0  0  0  0  0  0
   -0.3460   -0.1744   41.9339 O   0  0  0  0  0  0  0  0  0  0  0  0
    1.9474   -0.9429   42.3785 C   0  0  1  0  0  0  0  0  0  0  0  0
    2.4587    0.4788   42.5430 C   0  0  2  0  0  0  0  0  0  0  0  0
    2.4016    0.9742   41.2141 O   0  0  0  0  0  0  0  0  0  0  0  0
    3.8843    0.6006   43.0967 C   0  0  0  0  0  0  0  0  0  0  0  0
    3.9614   -0.0008   44.3808 O   0  0  0  0  0  0  0  0  0  0  0  0
   -0.3527   -5.2635   44.6024 C   0  0  1  0  0  0  0  0  0  0  0  0
   -1.0527   -4.7745   45.7450 O   0  0  0  0  0  0  0  0  0  0  0  0
   -0.8575   -4.5228   43.3327 C   0  0  2  0  0  0  0  0  0  0  0  0
   -0.4422   -5.2576   42.1838 O   0  0  0  0  0  0  0  0  0  0  0  0
   -0.3751   -3.0425   43.1844 C   0  0  1  0  0  0  0  0  0  0  0  0
   -1.2673   -2.1330   43.9365 N   0  3  0  0  0  0  0  0  0  0  0  0
    1.1171   -2.8790   43.5760 C   0  0  1  0  0  0  0  0  0  0  0  0
    1.5570   -1.5013   43.6632 O   0  0  0  0  0  0  0  0  0  0  0  0
    1.1712   -5.0380   44.7690 C   0  0  1  0  0  0  0  0  0  0  0  0
    1.4022   -3.6035   44.8198 O   0  0  0  0  0  0  0  0  0  0  0  0
    1.7733   -5.7373   46.0021 C   0  0  0  0  0  0  0  0  0  0  0  0
    1.7301   -7.2091   45.9006 N   0  3  0  0  0  0  0  0  0  0  0  0
  1  2  1  6  0  0  0
  1  3  1  0  0  0  0
  1 10  1  0  0  0  0
  3  4  1  6  0  0  0
  3  5  1  0  0  0  0
  5  6  1  1  0  0  0
  5  7  1  0  0  0  0
  7  8  1  6  0  0  0
  7  9  1  0  0  0  0
  9 10  1  0  0  0  0
  9 11  1  1  0  0  0
 11 12  1  0  0  0  0
 13 14  1  6  0  0  0
 13 15  1  0  0  0  0
 13 22  1  0  0  0  0
 15 16  1  1  0  0  0
 15 17  1  0  0  0  0
 17 18  1  1  0  0  0
 17 19  1  0  0  0  0
 19  2  1  1  0  0  0
 19 20  1  0  0  0  0
 20 21  1  6  0  0  0
 20 22  1  0  0  0  0
 23 18  1  6  0  0  0
 23 24  1  0  0  0  0
 23 28  1  0  0  0  0
 24 25  1  1  0  0  0
 24 26  1  0  0  0  0
 26 27  1  0  0  0  0
 26 38  1  1  0  0  0
 27 28  1  0  0  0  0
 27 29  1  6  0  0  0
 29 30  1  0  0  0  0
 31 32  1  1  0  0  0
 31 33  1  0  0  0  0
 31 39  1  0  0  0  0
 33 34  1  6  0  0  0
 33 35  1  0  0  0  0
 35 36  1  1  0  0  0
 35 37  1  0  0  0  0
 37 38  1  1  0  0  0
 37 40  1  0  0  0  0
 39 40  1  0  0  0  0
 39 41  1  1  0  0  0
 41 42  1  0  0  0  0
M  CHG  5   4   1  14   1  21   1  36   1  42   1
M  END
>  <CHROM.1>
-167.20487359,78.51688487,-61.38827723,63.18792038,65.93736726,-56.86201504
-55.08608191,46.95239784,68.15069734,-71.16747130,165.84311527,-56.36969250
-56.71782606,66.80875677,-59.90093444,-175.02597239,-74.85944212,58.83593208
-163.21554800,-84.21905621,66.41466432,179.35114205,2.98892538,-2.02206436
40.70825990,-0.99235503,-0.46266915,2.23161087

>  <Name>
1pbr

>  <RI>
0

>  <Rbt.Current_Directory>
/home/itssahil/PROJECTS/Mol_Feturizer/New_Systems/rnas/1pbr

>  <Rbt.Executable>
rbdock ($Id: //depot/dev/client3/rdock/2013.1/src/exe/rbdock.cxx#4 $)

>  <Rbt.Library>
libRbt.so (2013.1, Build901 2013/11/27)

>  <Rbt.Parameter_File>
/export/apps/rDock/src/rDock_2013.1_src/data/scripts/dock_solv.prm

>  <Rbt.Receptor>
prm/pocket_docking_5.prm

>  <SCORE>
-47.2745

>  <SCORE.INTER>
-37.5566

>  <SCORE.INTER.CONST>
1

>  <SCORE.INTER.POLAR>
-5.25608

>  <SCORE.INTER.ROT>
9

>  <SCORE.INTER.SOLV>
28.3447

>  <SCORE.INTER.VDW>
-26.5657

>  <SCORE.INTER.norm>
-0.894205

>  <SCORE.INTRA>
-9.71791

>  <SCORE.INTRA.DIHEDRAL>
-19.0038

>  <SCORE.INTRA.DIHEDRAL.0>
29.7866

>  <SCORE.INTRA.POLAR>
0.0862812

>  <SCORE.INTRA.POLAR.0>
-0.984091

>  <SCORE.INTRA.REPUL>
-0.230649

>  <SCORE.INTRA.REPUL.0>
0.274115

>  <SCORE.INTRA.SOLV>
0.170424

>  <SCORE.INTRA.SOLV.lig_0>
-152.978

>  <SCORE.INTRA.VDW>
0.558656

>  <SCORE.INTRA.VDW.0>
-6.10719

>  <SCORE.INTRA.norm>
-0.231379

>  <SCORE.RESTR>
0

>  <SCORE.RESTR.CAVITY>
0

>  <SCORE.RESTR.norm>
0

>  <SCORE.SYSTEM>
0

>  <SCORE.SYSTEM.CONST>
0

>  <SCORE.SYSTEM.DIHEDRAL>
0

>  <SCORE.SYSTEM.SOLV>
0

>  <SCORE.SYSTEM.norm>
0

>  <SCORE.heavy>
42

>  <SCORE.norm>
-1.12558

>  <RMSD>
8.568

$$$$
1pbr
 OpenBabel11021811403D
libRbt.so/2013.1/901 2013/11/27
 42 45  0  0  0  0  0  0  0  0999 V2000
    1.5789    2.7326   36.0911 C   0  0  2  0  0  0  0  0  0  0  0  0
    2.5947    2.5383   37.1078 O   0  0  0  0  0  0  0  0  0  0  0  0
    1.3982    4.2624   35.7663 C   0  0  2  0  0  0  0  0  0  0  0  0
    2.6681    5.0301   35.6890 N   0  3  0  0  0  0  0  0  0  0  0  0
    0.5312    4.9686   36.8256 C   0  0  1  0  0  0  0  0  0  0  0  0
    0.1583    6.2730   36.3866 O   0  0  0  0  0  0  0  0  0  0  0  0
   -0.7332    4.1536   37.1365 C   0  0  2  0  0  0  0  0  0  0  0  0
   -1.5428    4.8424   38.0844 O   0  0  0  0  0  0  0  0  0  0  0  0
   -0.3645    2.7266   37.5993 C   0  0  2  0  0  0  0  0  0  0  0  0
    0.3366    2.0993   36.5047 O   0  0  0  0  0  0  0  0  0  0  0  0
   -1.5662    1.8510   37.9506 C   0  0  0  0  0  0  0  0  0  0  0  0
   -2.6301    2.0421   37.0275 O   0  0  0  0  0  0  0  0  0  0  0  0
    3.2592   -1.5606   36.1253 C   0  0  1  0  0  0  0  0  0  0  0  0
    3.7842   -2.9266   35.9456 N   0  3  0  0  0  0  0  0  0  0  0  0
    2.9291   -1.2463   37.6159 C   0  0  2  0  0  0  0  0  0  0  0  0
    1.9621   -2.1666   38.1163 O   0  0  0  0  0  0  0  0  0  0  0  0
    2.3650    0.1956   37.7781 C   0  0  1  0  0  0  0  0  0  0  0  0
    2.2374    0.4889   39.2010 O   0  0  0  0  0  0  0  0  0  0  0  0
    3.2864    1.2663   37.1074 C   0  0  1  0  0  0  0  0  0  0  0  0
    3.6540    0.9112   35.6311 C   0  0  1  0  0  0  0  0  0  0  0  0
    4.6048    1.8887   35.0566 N   0  3  0  0  0  0  0  0  0  0  0  0
    4.2563   -0.5151   35.5456 C   0  0  0  0  0  0  0  0  0  0  0  0
    2.7060    1.7711   39.7283 C   0  0  1  0  0  0  0  0  0  0  0  0
    2.3331    1.8568   41.2202 C   0  0  2  0  0  0  0  0  0  0  0  0
    2.2177    3.2129   41.6420 O   0  0  0  0  0  0  0  0  0  0  0  0
    3.5677    1.1647   41.8173 C   0  0  1  0  0  0  0  0  0  0  0  0
    4.7026    1.7686   41.0068 C   0  0  2  0  0  0  0  0  0  0  0  0
    4.1433    1.8266   39.7036 O   0  0  0  0  0  0  0  0  0  0  0  0
    6.0020    0.9532   40.9935 C   0  0  0  0  0  0  0  0  0  0  0  0
    6.9074    1.4632   41.9613 O   0  0  0  0  0  0  0  0  0  0  0  0
    3.0987   -1.3621   46.5136 C   0  0  1  0  0  0  0  0  0  0  0  0
    2.5193   -0.3891   47.3809 O   0  0  0  0  0  0  0  0  0  0  0  0
    2.1978   -1.5359   45.2591 C   0  0  2  0  0  0  0  0  0  0  0  0
    2.5683   -2.7438   44.5986 O   0  0  0  0  0  0  0  0  0  0  0  0
    2.2518   -0.3616   44.2276 C   0  0  1  0  0  0  0  0  0  0  0  0
    1.3112    0.7110   44.6196 N   0  3  0  0  0  0  0  0  0  0  0  0
    3.6989    0.1563   44.0168 C   0  0  1  0  0  0  0  0  0  0  0  0
    3.7819    1.3765   43.2400 O   0  0  0  0  0  0  0  0  0  0  0  0
    4.5188   -0.9183   46.0809 C   0  0  1  0  0  0  0  0  0  0  0  0
    4.3823    0.3048   45.3069 O   0  0  0  0  0  0  0  0  0  0  0  0
    5.4948   -0.7209   47.2558 C   0  0  0  0  0  0  0  0  0  0  0  0
    5.7736   -1.9752   47.9823 N   0  3  0  0  0  0  0  0  0  0  0  0
  1  2  1  1  0  0  0
  1  3  1  0  0  0  0
  1 10  1  0  0  0  0
  3  4  1  1  0  0  0
  3  5  1  0  0  0  0
  5  6  1  6  0  0  0
  5  7  1  0  0  0  0
  7  8  1  1  0  0  0
  7  9  1  0  0  0  0
  9 10  1  0  0  0  0
  9 11  1  6  0  0  0
 11 12  1  0  0  0  0
 13 14  1  1  0  0  0
 13 15  1  0  0  0  0
 13 22  1  0  0  0  0
 15 16  1  6  0  0  0
 15 17  1  0  0  0  0
 17 18  1  1  0  0  0
 17 19  1  0  0  0  0
 19  2  1  6  0  0  0
 19 20  1  0  0  0  0
 20 21  1  1  0  0  0
 20 22  1  0  0  0  0
 23 18  1  1  0  0  0
 23 24  1  0  0  0  0
 23 28  1  0  0  0  0
 24 25  1  1  0  0  0
 24 26  1  0  0  0  0
 26 27  1  0  0  0  0
 26 38  1  1  0  0  0
 27 28  1  0  0  0  0
 27 29  1  6  0  0  0
 29 30  1  0  0  0  0
 31 32  1  1  0  0  0
 31 33  1  0  0  0  0
 31 39  1  0  0  0  0
 33 34  1  6  0  0  0
 33 35  1  0  0  0  0
 35 36  1  1  0  0  0
 35 37  1  0  0  0  0
 37 38  1  1  0  0  0
 37 40  1  0  0  0  0
 39 40  1  0  0  0  0
 39 41  1  1  0  0  0
 41 42  1  0  0  0  0
M  CHG  5   4   1  14   1  21   1  36   1  42   1
M  END
>  <CHROM.1>
-153.75602303,-78.74125550,-146.72464129,62.21062603,66.40419107,40.51209764
-174.61723099,170.19150188,67.19257786,134.30779733,174.96951773,-67.05115693
-120.98602700,116.62934492,-97.38058438,71.23751735,-177.79252538,64.46318064
58.36486753,-75.27712232,64.43506975,-53.11793072,2.58946021,1.11358035,40.14217612
-1.95931569,-0.79453565,1.63975767

>  <Name>
1pbr

>  <RI>
0

>  <Rbt.Current_Directory>
/home/itssahil/PROJECTS/Mol_Feturizer/New_Systems/rnas/1pbr

>  <Rbt.Executable>
rbdock ($Id: //depot/dev/client3/rdock/2013.1/src/exe/rbdock.cxx#4 $)

>  <Rbt.Library>
libRbt.so (2013.1, Build901 2013/11/27)

>  <Rbt.Parameter_File>
/export/apps/rDock/src/rDock_2013.1_src/data/scripts/dock_solv.prm

>  <Rbt.Receptor>
prm/blind_docking_100.prm

>  <SCORE>
-25.177

>  <SCORE.INTER>
-34.4887

>  <SCORE.INTER.CONST>
1

>  <SCORE.INTER.POLAR>
-5.82824

>  <SCORE.INTER.ROT>
9

>  <SCORE.INTER.SOLV>
39.0835

>  <SCORE.INTER.VDW>
-26.1929

>  <SCORE.INTER.norm>
-0.82116

>  <SCORE.INTRA>
7.59

>  <SCORE.INTRA.DIHEDRAL>
5.60328

>  <SCORE.INTRA.DIHEDRAL.0>
29.7866

>  <SCORE.INTRA.POLAR>
0.722912

>  <SCORE.INTRA.POLAR.0>
-0.984091

>  <SCORE.INTRA.REPUL>
-0.274115

>  <SCORE.INTRA.REPUL.0>
0.274115

>  <SCORE.INTRA.SOLV>
-0.165563

>  <SCORE.INTRA.SOLV.lig_0>
-152.978

>  <SCORE.INTRA.VDW>
3.78381

>  <SCORE.INTRA.VDW.0>
-6.10719

>  <SCORE.INTRA.norm>
0.180714

>  <SCORE.RESTR>
1.72171

>  <SCORE.RESTR.CAVITY>
1.72171

>  <SCORE.RESTR.norm>
0.040993

>  <SCORE.SYSTEM>
0

>  <SCORE.SYSTEM.CONST>
0

>  <SCORE.SYSTEM.DIHEDRAL>
0

>  <SCORE.SYSTEM.SOLV>
0

>  <SCORE.SYSTEM.norm>
0

>  <SCORE.heavy>
42

>  <SCORE.norm>
-0.599453

>  <RMSD>
8.577

$$$$
1pbr
 OpenBabel11021811403D
libRbt.so/2013.1/901 2013/11/27
 42 45  0  0  0  0  0  0  0  0999 V2000
    5.2706   -3.1393   39.6058 C   0  0  2  0  0  0  0  0  0  0  0  0
    5.5085   -2.2136   38.5151 O   0  0  0  0  0  0  0  0  0  0  0  0
    6.1165   -2.7407   40.8722 C   0  0  2  0  0  0  0  0  0  0  0  0
    6.1636   -1.2811   41.1473 N   0  3  0  0  0  0  0  0  0  0  0  0
    7.5803   -3.2030   40.7451 C   0  0  1  0  0  0  0  0  0  0  0  0
    8.2615   -3.0749   41.9912 O   0  0  0  0  0  0  0  0  0  0  0  0
    7.6591   -4.6608   40.2675 C   0  0  2  0  0  0  0  0  0  0  0  0
    9.0172   -5.0839   40.1980 O   0  0  0  0  0  0  0  0  0  0  0  0
    6.9145   -4.8382   38.9257 C   0  0  2  0  0  0  0  0  0  0  0  0
    5.5319   -4.5008   39.1660 O   0  0  0  0  0  0  0  0  0  0  0  0
    6.9607   -6.2589   38.3657 C   0  0  0  0  0  0  0  0  0  0  0  0
    6.8867   -6.2557   36.9462 O   0  0  0  0  0  0  0  0  0  0  0  0
    3.1498   -0.2345   35.5609 C   0  0  1  0  0  0  0  0  0  0  0  0
    2.1880    0.1446   34.5096 N   0  3  0  0  0  0  0  0  0  0  0  0
    2.4489   -0.5461   36.9178 C   0  0  2  0  0  0  0  0  0  0  0  0
    1.7150    0.5890   37.3711 O   0  0  0  0  0  0  0  0  0  0  0  0
    3.4851   -0.9310   38.0140 C   0  0  1  0  0  0  0  0  0  0  0  0
    2.7641   -1.3734   39.2021 O   0  0  0  0  0  0  0  0  0  0  0  0
    4.4496   -2.0664   37.5386 C   0  0  1  0  0  0  0  0  0  0  0  0
    5.1031   -1.7660   36.1517 C   0  0  1  0  0  0  0  0  0  0  0  0
    5.9306   -2.8996   35.6829 N   0  3  0  0  0  0  0  0  0  0  0  0
    4.0165   -1.4405   35.0944 C   0  0  0  0  0  0  0  0  0  0  0  0
    1.9394   -0.4253   39.9523 C   0  0  1  0  0  0  0  0  0  0  0  0
    1.0584   -1.2124   40.9405 C   0  0  2  0  0  0  0  0  0  0  0  0
   -0.1232   -0.4849   41.2644 O   0  0  0  0  0  0  0  0  0  0  0  0
    2.0353   -1.2922   42.1234 C   0  0  1  0  0  0  0  0  0  0  0  0
    2.6166    0.1115   42.1600 C   0  0  2  0  0  0  0  0  0  0  0  0
    2.7667    0.4106   40.7807 O   0  0  0  0  0  0  0  0  0  0  0  0
    3.9631    0.2423   42.8836 C   0  0  0  0  0  0  0  0  0  0  0  0
    4.3610    1.6046   42.9300 O   0  0  0  0  0  0  0  0  0  0  0  0
   -0.6001   -5.2073   44.7348 C   0  0  1  0  0  0  0  0  0  0  0  0
   -1.2163   -4.5934   45.8653 O   0  0  0  0  0  0  0  0  0  0  0  0
   -1.1311   -4.5426   43.4341 C   0  0  2  0  0  0  0  0  0  0  0  0
   -0.8116   -5.3865   42.3304 O   0  0  0  0  0  0  0  0  0  0  0  0
   -0.5840   -3.1065   43.1441 C   0  0  1  0  0  0  0  0  0  0  0  0
   -1.3907   -2.0943   43.8608 N   0  3  0  0  0  0  0  0  0  0  0  0
    0.9324   -2.9929   43.4513 C   0  0  1  0  0  0  0  0  0  0  0  0
    1.4440   -1.6381   43.4061 O   0  0  0  0  0  0  0  0  0  0  0  0
    0.9396   -5.0514   44.8115 C   0  0  1  0  0  0  0  0  0  0  0  0
    1.2438   -3.6317   44.7352 O   0  0  0  0  0  0  0  0  0  0  0  0
    1.5679   -5.6829   46.0678 C   0  0  0  0  0  0  0  0  0  0  0  0
    2.9398   -5.2017   46.3224 N   0  3  0  0  0  0  0  0  0  0  0  0
  1  2  1  6  0  0  0
  1  3  1  0  0  0  0
  1 10  1  0  0  0  0
  3  4  1  6  0  0  0
  3  5  1  0  0  0  0
  5  6  1  1  0  0  0
  5  7  1  0  0  0  0
  7  8  1  6  0  0  0
  7  9  1  0  0  0  0
  9 10  1  0  0  0  0
  9 11  1  1  0  0  0
 11 12  1  0  0  0  0
 13 14  1  6  0  0  0
 13 15  1  0  0  0  0
 13 22  1  0  0  0  0
 15 16  1  1  0  0  0
 15 17  1  0  0  0  0
 17 18  1  1  0  0  0
 17 19  1  0  0  0  0
 19  2  1  1  0  0  0
 19 20  1  0  0  0  0
 20 21  1  6  0  0  0
 20 22  1  0  0  0  0
 23 18  1  1  0  0  0
 23 24  1  0  0  0  0
 23 28  1  0  0  0  0
 24 25  1  1  0  0  0
 24 26  1  0  0  0  0
 26 27  1  0  0  0  0
 26 38  1  1  0  0  0
 27 28  1  0  0  0  0
 27 29  1  1  0  0  0
 29 30  1  0  0  0  0
 31 32  1  1  0  0  0
 31 33  1  0  0  0  0
 31 39  1  0  0  0  0
 33 34  1  6  0  0  0
 33 35  1  0  0  0  0
 35 36  1  1  0  0  0
 35 37  1  0  0  0  0
 37 38  1  1  0  0  0
 37 40  1  0  0  0  0
 39 40  1  0  0  0  0
 39 41  1  1  0  0  0
 41 42  1  0  0  0  0
M  CHG  5   4   1  14   1  21   1  36   1  42   1
M  END
>  <CHROM.1>
-153.95679340,89.25163439,39.92678991,-61.41255558,169.88587891,-151.02884006
-70.83994869,-32.23305316,-61.24257629,-65.98633428,167.27756784,65.23027335
161.30326808,67.10925742,-176.17415724,176.79910065,-173.36131736,-69.51302370
-47.25757972,-95.45761720,-163.48014869,152.07733401,3.32211507,-2.56405572
40.68801170,-0.83029785,-0.48879893,2.13031936

>  <Name>
1pbr

>  <RI>
0

>  <Rbt.Current_Directory>
/home/itssahil/PROJECTS/Mol_Feturizer/New_Systems/rnas/1pbr

>  <Rbt.Executable>
rbdock ($Id: //depot/dev/client3/rdock/2013.1/src/exe/rbdock.cxx#4 $)

>  <Rbt.Library>
libRbt.so (2013.1, Build901 2013/11/27)

>  <Rbt.Parameter_File>
/export/apps/rDock/src/rDock_2013.1_src/data/scripts/dock_solv.prm

>  <Rbt.Receptor>
prm/pocket_docking_7.prm

>  <SCORE>
-40.8275

>  <SCORE.INTER>
-41.1557

>  <SCORE.INTER.CONST>
1

>  <SCORE.INTER.POLAR>
-6.12728

>  <SCORE.INTER.ROT>
9

>  <SCORE.INTER.SOLV>
36.4223

>  <SCORE.INTER.VDW>
-28.7537

>  <SCORE.INTER.norm>
-0.979898

>  <SCORE.INTRA>
0.328248

>  <SCORE.INTRA.DIHEDRAL>
-5.83068

>  <SCORE.INTRA.DIHEDRAL.0>
29.7866

>  <SCORE.INTRA.POLAR>
0.83017

>  <SCORE.INTRA.POLAR.0>
-0.984091

>  <SCORE.INTRA.REPUL>
-0.274115

>  <SCORE.INTRA.REPUL.0>
0.274115

>  <SCORE.INTRA.SOLV>
2.09277

>  <SCORE.INTRA.SOLV.lig_0>
-152.978

>  <SCORE.INTRA.VDW>
0.7452

>  <SCORE.INTRA.VDW.0>
-6.10719

>  <SCORE.INTRA.norm>
0.00781542

>  <SCORE.RESTR>
0

>  <SCORE.RESTR.CAVITY>
0

>  <SCORE.RESTR.norm>
0

>  <SCORE.SYSTEM>
0

>  <SCORE.SYSTEM.CONST>
0

>  <SCORE.SYSTEM.DIHEDRAL>
0

>  <SCORE.SYSTEM.SOLV>
0

>  <SCORE.SYSTEM.norm>
0

>  <SCORE.heavy>
42

>  <SCORE.norm>
-0.972083

>  <RMSD>
8.580

$$$$
1pbr
 OpenBabel11021811403D
libRbt.so/2013.1/901 2013/11/27
 42 45  0  0  0  0  0  0  0  0999 V2000
    5.0659   -0.7791   39.5518 C   0  0  2  0  0  0  0  0  0  0  0  0
    5.4589    0.2299   38.5870 O   0  0  0  0  0  0  0  0  0  0  0  0
    6.2122   -1.8397   39.7503 C   0  0  2  0  0  0  0  0  0  0  0  0
    7.5809   -1.2640   39.8087 N   0  3  0  0  0  0  0  0  0  0  0  0
    6.2289   -2.8766   38.6114 C   0  0  1  0  0  0  0  0  0  0  0  0
    7.0853   -3.9699   38.9350 O   0  0  0  0  0  0  0  0  0  0  0  0
    4.8148   -3.4035   38.3240 C   0  0  2  0  0  0  0  0  0  0  0  0
    4.8560   -4.3918   37.2994 O   0  0  0  0  0  0  0  0  0  0  0  0
    3.8557   -2.2405   37.9862 C   0  0  2  0  0  0  0  0  0  0  0  0
    3.8073   -1.3864   39.1487 O   0  0  0  0  0  0  0  0  0  0  0  0
    2.4276   -2.6783   37.6653 C   0  0  0  0  0  0  0  0  0  0  0  0
    1.9941   -3.7068   38.5456 O   0  0  0  0  0  0  0  0  0  0  0  0
    3.1431    2.9423   36.2445 C   0  0  1  0  0  0  0  0  0  0  0  0
    2.2263    3.5946   35.2916 N   0  3  0  0  0  0  0  0  0  0  0  0
    2.3805    2.1491   37.3486 C   0  0  2  0  0  0  0  0  0  0  0  0
    1.5188    3.0178   38.0801 O   0  0  0  0  0  0  0  0  0  0  0  0
    3.3687    1.4807   38.3488 C   0  0  1  0  0  0  0  0  0  0  0  0
    2.6095    0.6204   39.2491 O   0  0  0  0  0  0  0  0  0  0  0  0
    4.4611    0.6333   37.6183 C   0  0  1  0  0  0  0  0  0  0  0  0
    5.1796    1.4231   36.4779 C   0  0  1  0  0  0  0  0  0  0  0  0
    6.1354    0.5668   35.7412 N   0  3  0  0  0  0  0  0  0  0  0  0
    4.1441    2.0195   35.4897 C   0  0  0  0  0  0  0  0  0  0  0  0
    1.5739    1.1946   40.1092 C   0  0  1  0  0  0  0  0  0  0  0  0
    0.3665    0.2387   40.1327 C   0  0  2  0  0  0  0  0  0  0  0  0
   -0.8365    0.9408   40.4330 O   0  0  0  0  0  0  0  0  0  0  0  0
    0.8076   -0.6786   41.2832 C   0  0  1  0  0  0  0  0  0  0  0  0
    1.3519    0.3125   42.2987 C   0  0  2  0  0  0  0  0  0  0  0  0
    2.0292    1.2473   41.4728 O   0  0  0  0  0  0  0  0  0  0  0  0
    2.3150   -0.2779   43.3367 C   0  0  0  0  0  0  0  0  0  0  0  0
    2.5408    0.6584   44.3800 O   0  0  0  0  0  0  0  0  0  0  0  0
   -0.5455   -3.1905   45.8381 C   0  0  1  0  0  0  0  0  0  0  0  0
   -1.9583   -3.3815   45.7914 O   0  0  0  0  0  0  0  0  0  0  0  0
    0.1301   -4.0740   44.7523 C   0  0  2  0  0  0  0  0  0  0  0  0
    1.5223   -4.1670   45.0451 O   0  0  0  0  0  0  0  0  0  0  0  0
   -0.0422   -3.5751   43.2802 C   0  0  1  0  0  0  0  0  0  0  0  0
   -1.3236   -4.0580   42.7200 N   0  3  0  0  0  0  0  0  0  0  0  0
    0.1198   -2.0362   43.1689 C   0  0  1  0  0  0  0  0  0  0  0  0
   -0.2397   -1.4970   41.8730 O   0  0  0  0  0  0  0  0  0  0  0  0
   -0.1963   -1.7011   45.5928 C   0  0  1  0  0  0  0  0  0  0  0  0
   -0.6204   -1.3647   44.2434 O   0  0  0  0  0  0  0  0  0  0  0  0
   -0.8172   -0.7379   46.6218 C   0  0  0  0  0  0  0  0  0  0  0  0
    0.1945    0.0752   47.3245 N   0  3  0  0  0  0  0  0  0  0  0  0
  1  2  1  6  0  0  0
  1  3  1  0  0  0  0
  1 10  1  0  0  0  0
  3  4  1  6  0  0  0
  3  5  1  0  0  0  0
  5  6  1  1  0  0  0
  5  7  1  0  0  0  0
  7  8  1  6  0  0  0
  7  9  1  0  0  0  0
  9 10  1  0  0  0  0
  9 11  1  1  0  0  0
 11 12  1  0  0  0  0
 13 14  1  6  0  0  0
 13 15  1  0  0  0  0
 13 22  1  0  0  0  0
 15 16  1  1  0  0  0
 15 17  1  0  0  0  0
 17 18  1  1  0  0  0
 17 19  1  0  0  0  0
 19  2  1  1  0  0  0
 19 20  1  0  0  0  0
 20 21  1  6  0  0  0
 20 22  1  0  0  0  0
 23 18  1  6  0  0  0
 23 24  1  0  0  0  0
 23 28  1  0  0  0  0
 24 25  1  1  0  0  0
 24 26  1  0  0  0  0
 26 27  1  0  0  0  0
 26 38  1  1  0  0  0
 27 28  1  0  0  0  0
 27 29  1  1  0  0  0
 29 30  1  0  0  0  0
 31 32  1  6  0  0  0
 31 33  1  0  0  0  0
 31 39  1  0  0  0  0
 33 34  1  1  0  0  0
 33 35  1  0  0  0  0
 35 36  1  1  0  0  0
 35 37  1  0  0  0  0
 37 38  1  6  0  0  0
 37 40  1  0  0  0  0
 39 40  1  0  0  0  0
 39 41  1  1  0  0  0
 41 42  1  0  0  0  0
M  CHG  5   4   1  14   1  21   1  36   1  42   1
M  END
>  <CHROM.1>
137.34341828,71.53279086,-54.41209060,-117.77783036,-57.80785490,41.19329590
-173.04643622,177.40508265,69.21798034,-60.86147118,139.45340434,-139.50266091
155.73085481,-163.11896594,-168.16975151,-47.58854464,60.19962706,39.54592857
-70.22251642,-126.74064944,122.43930405,-172.20228566,2.39540704,-0.86990306
40.58175281,-0.78105466,-0.75712884,2.46939985

>  <Name>
1pbr

>  <RI>
0

>  <Rbt.Current_Directory>
/home/itssahil/PROJECTS/Mol_Feturizer/New_Systems/rnas/1pbr

>  <Rbt.Executable>
rbdock ($Id: //depot/dev/client3/rdock/2013.1/src/exe/rbdock.cxx#4 $)

>  <Rbt.Library>
libRbt.so (2013.1, Build901 2013/11/27)

>  <Rbt.Parameter_File>
/export/apps/rDock/src/rDock_2013.1_src/data/scripts/dock_solv.prm

>  <Rbt.Receptor>
prm/pocket_docking_5.prm

>  <SCORE>
-32.2072

>  <SCORE.INTER>
-46.4205

>  <SCORE.INTER.CONST>
1

>  <SCORE.INTER.POLAR>
-7.38774

>  <SCORE.INTER.ROT>
9

>  <SCORE.INTER.SOLV>
30.7854

>  <SCORE.INTER.VDW>
-26.183

>  <SCORE.INTER.norm>
-1.10525

>  <SCORE.INTRA>
14.2132

>  <SCORE.INTRA.DIHEDRAL>
13.8499

>  <SCORE.INTRA.DIHEDRAL.0>
29.7866

>  <SCORE.INTRA.POLAR>
0.92841

>  <SCORE.INTRA.POLAR.0>
-0.984091

>  <SCORE.INTRA.REPUL>
-0.0533822

>  <SCORE.INTRA.REPUL.0>
0.274115

>  <SCORE.INTRA.SOLV>
-2.78486

>  <SCORE.INTRA.SOLV.lig_0>
-152.978

>  <SCORE.INTRA.VDW>
5.79102

>  <SCORE.INTRA.VDW.0>
-6.10719

>  <SCORE.INTRA.norm>
0.33841

>  <SCORE.RESTR>
0

>  <SCORE.RESTR.CAVITY>
0

>  <SCORE.RESTR.norm>
0

>  <SCORE.SYSTEM>
0

>  <SCORE.SYSTEM.CONST>
0

>  <SCORE.SYSTEM.DIHEDRAL>
0

>  <SCORE.SYSTEM.SOLV>
0

>  <SCORE.SYSTEM.norm>
0

>  <SCORE.heavy>
42

>  <SCORE.norm>
-0.766839

>  <RMSD>
8.604

$$$$
1pbr
 OpenBabel11021811403D
libRbt.so/2013.1/901 2013/11/27
 42 45  0  0  0  0  0  0  0  0999 V2000
    3.4760   -2.0759   36.9303 C   0  0  2  0  0  0  0  0  0  0  0  0
    2.6133   -1.3423   37.8362 O   0  0  0  0  0  0  0  0  0  0  0  0
    3.5793   -3.5876   37.3574 C   0  0  2  0  0  0  0  0  0  0  0  0
    2.2953   -4.1927   37.7973 N   0  3  0  0  0  0  0  0  0  0  0  0
    4.5686   -3.7816   38.5220 C   0  0  1  0  0  0  0  0  0  0  0  0
    4.8512   -5.1651   38.7207 O   0  0  0  0  0  0  0  0  0  0  0  0
    5.8801   -3.0246   38.2639 C   0  0  2  0  0  0  0  0  0  0  0  0
    6.7977   -3.2510   39.3293 O   0  0  0  0  0  0  0  0  0  0  0  0
    5.6075   -1.5226   38.0268 C   0  0  2  0  0  0  0  0  0  0  0  0
    4.7759   -1.4283   36.8508 O   0  0  0  0  0  0  0  0  0  0  0  0
    6.8636   -0.6881   37.7819 C   0  0  0  0  0  0  0  0  0  0  0  0
    7.6554   -0.5918   38.9585 O   0  0  0  0  0  0  0  0  0  0  0  0
    4.0587    2.5209   36.7435 C   0  0  1  0  0  0  0  0  0  0  0  0
    4.2454    3.9545   36.4541 N   0  3  0  0  0  0  0  0  0  0  0  0
    3.9008    2.2421   38.2689 C   0  0  2  0  0  0  0  0  0  0  0  0
    5.0506    2.6959   38.9793 O   0  0  0  0  0  0  0  0  0  0  0  0
    3.7180    0.7218   38.5497 C   0  0  1  0  0  0  0  0  0  0  0  0
    3.4069    0.5432   39.9634 O   0  0  0  0  0  0  0  0  0  0  0  0
    2.5761    0.0971   37.6833 C   0  0  1  0  0  0  0  0  0  0  0  0
    2.7164    0.4300   36.1634 C   0  0  1  0  0  0  0  0  0  0  0  0
    1.5706   -0.0892   35.3842 N   0  3  0  0  0  0  0  0  0  0  0  0
    2.8433    1.9604   35.9484 C   0  0  0  0  0  0  0  0  0  0  0  0
    4.3123   -0.2235   40.8202 C   0  0  1  0  0  0  0  0  0  0  0  0
    4.1619    0.2766   42.2691 C   0  0  2  0  0  0  0  0  0  0  0  0
    5.3460    0.0287   43.0218 O   0  0  0  0  0  0  0  0  0  0  0  0
    2.9931   -0.6163   42.7122 C   0  0  1  0  0  0  0  0  0  0  0  0
    3.3749   -1.9658   42.1268 C   0  0  2  0  0  0  0  0  0  0  0  0
    3.9107   -1.6043   40.8630 O   0  0  0  0  0  0  0  0  0  0  0  0
    2.2145   -2.9538   41.9511 C   0  0  0  0  0  0  0  0  0  0  0  0
    1.2532   -2.4215   41.0516 O   0  0  0  0  0  0  0  0  0  0  0  0
   -0.9274   -0.6352   46.3565 C   0  0  1  0  0  0  0  0  0  0  0  0
   -0.4674   -1.4676   47.4196 O   0  0  0  0  0  0  0  0  0  0  0  0
   -0.0987    0.6795   46.3359 C   0  0  2  0  0  0  0  0  0  0  0  0
   -0.7905    1.6393   45.5404 O   0  0  0  0  0  0  0  0  0  0  0  0
    1.3636    0.5413   45.7989 C   0  0  1  0  0  0  0  0  0  0  0  0
    2.2724    0.1142   46.8855 N   0  3  0  0  0  0  0  0  0  0  0  0
    1.4377   -0.3838   44.5558 C   0  0  1  0  0  0  0  0  0  0  0  0
    2.7873   -0.7178   44.1482 O   0  0  0  0  0  0  0  0  0  0  0  0
   -0.7811   -1.3676   44.9990 C   0  0  1  0  0  0  0  0  0  0  0  0
    0.6366   -1.5944   44.7704 O   0  0  0  0  0  0  0  0  0  0  0  0
   -1.5710   -2.6871   44.9147 C   0  0  0  0  0  0  0  0  0  0  0  0
   -1.2877   -3.4431   43.6791 N   0  3  0  0  0  0  0  0  0  0  0  0
  1  2  1  1  0  0  0
  1  3  1  0  0  0  0
  1 10  1  0  0  0  0
  3  4  1  1  0  0  0
  3  5  1  0  0  0  0
  5  6  1  6  0  0  0
  5  7  1  0  0  0  0
  7  8  1  1  0  0  0
  7  9  1  0  0  0  0
  9 10  1  0  0  0  0
  9 11  1  6  0  0  0
 11 12  1  0  0  0  0
 13 14  1  1  0  0  0
 13 15  1  0  0  0  0
 13 22  1  0  0  0  0
 15 16  1  1  0  0  0
 15 17  1  0  0  0  0
 17 18  1  1  0  0  0
 17 19  1  0  0  0  0
 19  2  1  6  0  0  0
 19 20  1  0  0  0  0
 20 21  1  6  0  0  0
 20 22  1  0  0  0  0
 23 18  1  6  0  0  0
 23 24  1  0  0  0  0
 23 28  1  0  0  0  0
 24 25  1  1  0  0  0
 24 26  1  0  0  0  0
 26 27  1  0  0  0  0
 26 38  1  1  0  0  0
 27 28  1  0  0  0  0
 27 29  1  6  0  0  0
 29 30  1  0  0  0  0
 31 32  1  1  0  0  0
 31 33  1  0  0  0  0
 31 39  1  0  0  0  0
 33 34  1  6  0  0  0
 33 35  1  0  0  0  0
 35 36  1  1  0  0  0
 35 37  1  0  0  0  0
 37 38  1  1  0  0  0
 37 40  1  0  0  0  0
 39 40  1  0  0  0  0
 39 41  1  1  0  0  0
 41 42  1  0  0  0  0
M  CHG  5   4   1  14   1  21   1  36   1  42   1
M  END
>  <CHROM.1>
171.35044132,-87.90870225,-123.77155101,-176.42979299,-54.21258123,-68.73708503
60.53816075,88.93031136,36.36586969,-117.96656836,153.26516897,-158.00597240
-48.90890188,125.86675666,61.52967514,51.70233948,179.94583295,55.54350786
66.55167754,-135.23178524,-173.10902746,-50.12182992,2.93601681,-0.83924003
40.75216874,-0.08006439,-1.09493925,3.09437697

>  <Name>
1pbr

>  <RI>
0

>  <Rbt.Current_Directory>
/home/itssahil/PROJECTS/Mol_Feturizer/New_Systems/rnas/1pbr

>  <Rbt.Executable>
rbdock ($Id: //depot/dev/client3/rdock/2013.1/src/exe/rbdock.cxx#4 $)

>  <Rbt.Library>
libRbt.so (2013.1, Build901 2013/11/27)

>  <Rbt.Parameter_File>
/export/apps/rDock/src/rDock_2013.1_src/data/scripts/dock_solv.prm

>  <Rbt.Receptor>
prm/pocket_docking_6.prm

>  <SCORE>
-20.2392

>  <SCORE.INTER>
-25.8214

>  <SCORE.INTER.CONST>
1

>  <SCORE.INTER.POLAR>
-3.70732

>  <SCORE.INTER.ROT>
9

>  <SCORE.INTER.SOLV>
38.6241

>  <SCORE.INTER.VDW>
-27.3312

>  <SCORE.INTER.norm>
-0.614794

>  <SCORE.INTRA>
5.54287

>  <SCORE.INTRA.DIHEDRAL>
8.21062

>  <SCORE.INTRA.DIHEDRAL.0>
29.7866

>  <SCORE.INTRA.POLAR>
0.501386

>  <SCORE.INTRA.POLAR.0>
-0.984091

>  <SCORE.INTRA.REPUL>
-0.274115

>  <SCORE.INTRA.REPUL.0>
0.274115

>  <SCORE.INTRA.SOLV>
0.11653

>  <SCORE.INTRA.SOLV.lig_0>
-152.978

>  <SCORE.INTRA.VDW>
1.04516

>  <SCORE.INTRA.VDW.0>
-6.10719

>  <SCORE.INTRA.norm>
0.131973

>  <SCORE.RESTR>
0.0392958

>  <SCORE.RESTR.CAVITY>
0.0392958

>  <SCORE.RESTR.norm>
0.000935615

>  <SCORE.SYSTEM>
0

>  <SCORE.SYSTEM.CONST>
0

>  <SCORE.SYSTEM.DIHEDRAL>
0

>  <SCORE.SYSTEM.SOLV>
0

>  <SCORE.SYSTEM.norm>
0

>  <SCORE.heavy>
42

>  <SCORE.norm>
-0.481886

>  <RMSD>
8.604

$$$$
1pbr
 OpenBabel11021811403D
libRbt.so/2013.1/901 2013/11/27
 42 45  0  0  0  0  0  0  0  0999 V2000
    4.5461   -4.2348   38.0551 C   0  0  2  0  0  0  0  0  0  0  0  0
    4.7394   -2.8700   38.5058 O   0  0  0  0  0  0  0  0  0  0  0  0
    3.1066   -4.7494   38.4311 C   0  0  2  0  0  0  0  0  0  0  0  0
    2.0238   -3.7516   38.2310 N   0  3  0  0  0  0  0  0  0  0  0  0
    3.0266   -5.1823   39.9072 C   0  0  1  0  0  0  0  0  0  0  0  0
    1.8127   -5.8853   40.1633 O   0  0  0  0  0  0  0  0  0  0  0  0
    4.2210   -6.0704   40.2873 C   0  0  2  0  0  0  0  0  0  0  0  0
    4.1072   -6.4961   41.6416 O   0  0  0  0  0  0  0  0  0  0  0  0
    5.5548   -5.3439   40.0054 C   0  0  2  0  0  0  0  0  0  0  0  0
    5.5994   -5.0857   38.5860 O   0  0  0  0  0  0  0  0  0  0  0  0
    6.7986   -6.1503   40.3753 C   0  0  0  0  0  0  0  0  0  0  0  0
    6.9127   -7.3182   39.5731 O   0  0  0  0  0  0  0  0  0  0  0  0
    5.3671    0.8280   36.4714 C   0  0  1  0  0  0  0  0  0  0  0  0
    5.3293    1.9960   35.5724 N   0  3  0  0  0  0  0  0  0  0  0  0
    4.0986    0.7353   37.3726 C   0  0  2  0  0  0  0  0  0  0  0  0
    3.9679    1.9097   38.1702 O   0  0  0  0  0  0  0  0  0  0  0  0
    4.1677   -0.4974   38.3209 C   0  0  1  0  0  0  0  0  0  0  0  0
    2.8894   -0.6268   39.0109 O   0  0  0  0  0  0  0  0  0  0  0  0
    4.4756   -1.8196   37.5448 C   0  0  1  0  0  0  0  0  0  0  0  0
    5.7167   -1.6960   36.6041 C   0  0  1  0  0  0  0  0  0  0  0  0
    5.9231   -2.9276   35.8104 N   0  3  0  0  0  0  0  0  0  0  0  0
    5.5626   -0.4814   35.6524 C   0  0  0  0  0  0  0  0  0  0  0  0
    2.3959    0.4678   39.8476 C   0  0  1  0  0  0  0  0  0  0  0  0
    0.9290    0.1816   40.2196 C   0  0  2  0  0  0  0  0  0  0  0  0
    0.2287    1.3889   40.5066 O   0  0  0  0  0  0  0  0  0  0  0  0
    1.1609   -0.6696   41.4771 C   0  0  1  0  0  0  0  0  0  0  0  0
    2.2694    0.0917   42.1851 C   0  0  2  0  0  0  0  0  0  0  0  0
    3.0969    0.4922   41.1036 O   0  0  0  0  0  0  0  0  0  0  0  0
    3.0779   -0.7256   43.2009 C   0  0  0  0  0  0  0  0  0  0  0  0
    3.9062   -1.6605   42.5254 O   0  0  0  0  0  0  0  0  0  0  0  0
   -0.4837   -3.1941   45.9351 C   0  0  1  0  0  0  0  0  0  0  0  0
   -1.8848   -3.4010   45.7653 O   0  0  0  0  0  0  0  0  0  0  0  0
    0.2821   -3.8621   44.7591 C   0  0  2  0  0  0  0  0  0  0  0  0
    1.6564   -3.9779   45.1204 O   0  0  0  0  0  0  0  0  0  0  0  0
    0.1838   -3.1180   43.3870 C   0  0  1  0  0  0  0  0  0  0  0  0
   -1.0466   -3.5205   42.6706 N   0  3  0  0  0  0  0  0  0  0  0  0
    0.3058   -1.5804   43.5535 C   0  0  1  0  0  0  0  0  0  0  0  0
    0.0088   -0.8309   42.3496 O   0  0  0  0  0  0  0  0  0  0  0  0
   -0.1653   -1.6783   45.9734 C   0  0  1  0  0  0  0  0  0  0  0  0
   -0.5174   -1.1204   44.6778 O   0  0  0  0  0  0  0  0  0  0  0  0
   -0.8756   -0.9210   47.1110 C   0  0  0  0  0  0  0  0  0  0  0  0
   -0.7229    0.5431   47.0034 N   0  3  0  0  0  0  0  0  0  0  0  0
  1  2  1  1  0  0  0
  1  3  1  0  0  0  0
  1 10  1  0  0  0  0
  3  4  1  1  0  0  0
  3  5  1  0  0  0  0
  5  6  1  6  0  0  0
  5  7  1  0  0  0  0
  7  8  1  1  0  0  0
  7  9  1  0  0  0  0
  9 10  1  0  0  0  0
  9 11  1  6  0  0  0
 11 12  1  0  0  0  0
 13 14  1  6  0  0  0
 13 15  1  0  0  0  0
 13 22  1  0  0  0  0
 15 16  1  1  0  0  0
 15 17  1  0  0  0  0
 17 18  1  6  0  0  0
 17 19  1  0  0  0  0
 19  2  1  1  0  0  0
 19 20  1  0  0  0  0
 20 21  1  6  0  0  0
 20 22  1  0  0  0  0
 23 18  1  6  0  0  0
 23 24  1  0  0  0  0
 23 28  1  0  0  0  0
 24 25  1  1  0  0  0
 24 26  1  0  0  0  0
 26 27  1  0  0  0  0
 26 38  1  1  0  0  0
 27 28  1  0  0  0  0
 27 29  1  1  0  0  0
 29 30  1  0  0  0  0
 31 32  1  6  0  0  0
 31 33  1  0  0  0  0
 31 39  1  0  0  0  0
 33 34  1  1  0  0  0
 33 35  1  0  0  0  0
 35 36  1  1  0  0  0
 35 37  1  0  0  0  0
 37 38  1  6  0  0  0
 37 40  1  0  0  0  0
 39 40  1  0  0  0  0
 39 41  1  1  0  0  0
 41 42  1  0  0  0  0
M  CHG  5   4   1  14   1  21   1  36   1  42   1
M  END
>  <CHROM.1>
-94.70644612,157.21068899,34.84783407,-58.18377406,-57.66744111,64.72542768
69.31935070,107.98815781,67.81379109,-59.33229100,169.01667952,42.77707834
171.69649544,-176.82604739,71.32315371,66.36318341,-68.11606183,178.51732270
-64.67112676,-86.41892576,-171.22854447,-56.47589849,2.68921813,-2.21462912
40.81050756,-0.31532513,-0.91231929,2.70744071

>  <Name>
1pbr

>  <RI>
0

>  <Rbt.Current_Directory>
/home/itssahil/PROJECTS/Mol_Feturizer/New_Systems/rnas/1pbr

>  <Rbt.Executable>
rbdock ($Id: //depot/dev/client3/rdock/2013.1/src/exe/rbdock.cxx#4 $)

>  <Rbt.Library>
libRbt.so (2013.1, Build901 2013/11/27)

>  <Rbt.Parameter_File>
/export/apps/rDock/src/rDock_2013.1_src/data/scripts/dock_solv.prm

>  <Rbt.Receptor>
prm/pocket_docking_6.prm

>  <SCORE>
-21.8482

>  <SCORE.INTER>
-22.7819

>  <SCORE.INTER.CONST>
1

>  <SCORE.INTER.POLAR>
-5.19359

>  <SCORE.INTER.ROT>
9

>  <SCORE.INTER.SOLV>
38.7189

>  <SCORE.INTER.VDW>
-20.3822

>  <SCORE.INTER.norm>
-0.542425

>  <SCORE.INTRA>
0.933698

>  <SCORE.INTRA.DIHEDRAL>
-10.6713

>  <SCORE.INTRA.DIHEDRAL.0>
29.7866

>  <SCORE.INTRA.POLAR>
0.966703

>  <SCORE.INTRA.POLAR.0>
-0.984091

>  <SCORE.INTRA.REPUL>
-0.156993

>  <SCORE.INTRA.REPUL.0>
0.274115

>  <SCORE.INTRA.SOLV>
0.7227

>  <SCORE.INTRA.SOLV.lig_0>
-152.978

>  <SCORE.INTRA.VDW>
3.40618

>  <SCORE.INTRA.VDW.0>
-6.10719

>  <SCORE.INTRA.norm>
0.0222309

>  <SCORE.RESTR>
0

>  <SCORE.RESTR.CAVITY>
0

>  <SCORE.RESTR.norm>
0

>  <SCORE.SYSTEM>
0

>  <SCORE.SYSTEM.CONST>
0

>  <SCORE.SYSTEM.DIHEDRAL>
0

>  <SCORE.SYSTEM.SOLV>
0

>  <SCORE.SYSTEM.norm>
0

>  <SCORE.heavy>
42

>  <SCORE.norm>
-0.520194

>  <RMSD>
8.613

$$$$
1pbr
 OpenBabel11021811403D
libRbt.so/2013.1/901 2013/11/27
 42 45  0  0  0  0  0  0  0  0999 V2000
    3.8695   -0.0568   37.9555 C   0  0  2  0  0  0  0  0  0  0  0  0
    3.2824    0.5041   36.7538 O   0  0  0  0  0  0  0  0  0  0  0  0
    5.4270   -0.2188   37.7939 C   0  0  2  0  0  0  0  0  0  0  0  0
    6.0976    0.9195   37.1134 N   0  3  0  0  0  0  0  0  0  0  0  0
    5.7851   -1.4779   36.9821 C   0  0  1  0  0  0  0  0  0  0  0  0
    7.1812   -1.7554   37.0681 O   0  0  0  0  0  0  0  0  0  0  0  0
    4.9909   -2.6968   37.4753 C   0  0  2  0  0  0  0  0  0  0  0  0
    5.3668   -3.8590   36.7430 O   0  0  0  0  0  0  0  0  0  0  0  0
    3.4719   -2.4226   37.4114 C   0  0  2  0  0  0  0  0  0  0  0  0
    3.2100   -1.3088   38.2912 O   0  0  0  0  0  0  0  0  0  0  0  0
    2.6034   -3.5945   37.8659 C   0  0  0  0  0  0  0  0  0  0  0  0
    2.9355   -4.7846   37.1632 O   0  0  0  0  0  0  0  0  0  0  0  0
   -0.2226    2.9357   36.6547 C   0  0  1  0  0  0  0  0  0  0  0  0
   -1.5940    3.4766   36.6275 N   0  3  0  0  0  0  0  0  0  0  0  0
    0.1195    2.2622   38.0181 C   0  0  2  0  0  0  0  0  0  0  0  0
   -0.0127    3.2002   39.0836 O   0  0  0  0  0  0  0  0  0  0  0  0
    1.5754    1.7108   38.0266 C   0  0  1  0  0  0  0  0  0  0  0  0
    1.7778    0.9486   39.2535 O   0  0  0  0  0  0  0  0  0  0  0  0
    1.8646    0.7954   36.7924 C   0  0  1  0  0  0  0  0  0  0  0  0
    1.4663    1.4614   35.4365 C   0  0  1  0  0  0  0  0  0  0  0  0
    1.6581    0.5357   34.2981 N   0  3  0  0  0  0  0  0  0  0  0  0
   -0.0074    1.9422   35.4756 C   0  0  0  0  0  0  0  0  0  0  0  0
    1.5551    1.5828   40.5535 C   0  0  1  0  0  0  0  0  0  0  0  0
    1.1973    0.4915   41.5797 C   0  0  2  0  0  0  0  0  0  0  0  0
    0.4297    1.0297   42.6528 O   0  0  0  0  0  0  0  0  0  0  0  0
    2.6161    0.0990   42.0188 C   0  0  1  0  0  0  0  0  0  0  0  0
    3.3000    1.4495   42.1532 C   0  0  2  0  0  0  0  0  0  0  0  0
    2.7774    2.1626   41.0428 O   0  0  0  0  0  0  0  0  0  0  0  0
    4.8325    1.4148   42.0912 C   0  0  0  0  0  0  0  0  0  0  0  0
    5.3537    2.7328   42.1791 O   0  0  0  0  0  0  0  0  0  0  0  0
    1.2962    0.5744   47.1608 C   0  0  1  0  0  0  0  0  0  0  0  0
    0.8447   -0.7213   47.5506 O   0  0  0  0  0  0  0  0  0  0  0  0
    2.8364    0.5429   46.9541 C   0  0  2  0  0  0  0  0  0  0  0  0
    3.3191    1.8842   46.9366 O   0  0  0  0  0  0  0  0  0  0  0  0
    3.3236   -0.1841   45.6581 C   0  0  1  0  0  0  0  0  0  0  0  0
    3.4357   -1.6401   45.8962 N   0  3  0  0  0  0  0  0  0  0  0  0
    2.4332    0.1574   44.4344 C   0  0  1  0  0  0  0  0  0  0  0  0
    2.7060   -0.6495   43.2623 O   0  0  0  0  0  0  0  0  0  0  0  0
    0.6007    1.0131   45.8476 C   0  0  1  0  0  0  0  0  0  0  0  0
    1.0137    0.0928   44.8006 O   0  0  0  0  0  0  0  0  0  0  0  0
   -0.9347    1.0803   45.9482 C   0  0  0  0  0  0  0  0  0  0  0  0
   -1.3971    1.6936   47.2086 N   0  3  0  0  0  0  0  0  0  0  0  0
  1  2  1  6  0  0  0
  1  3  1  0  0  0  0
  1 10  1  0  0  0  0
  3  4  1  6  0  0  0
  3  5  1  0  0  0  0
  5  6  1  1  0  0  0
  5  7  1  0  0  0  0
  7  8  1  6  0  0  0
  7  9  1  0  0  0  0
  9 10  1  0  0  0  0
  9 11  1  1  0  0  0
 11 12  1  0  0  0  0
 13 14  1  1  0  0  0
 13 15  1  0  0  0  0
 13 22  1  0  0  0  0
 15 16  1  1  0  0  0
 15 17  1  0  0  0  0
 17 18  1  1  0  0  0
 17 19  1  0  0  0  0
 19  2  1  6  0  0  0
 19 20  1  0  0  0  0
 20 21  1  6  0  0  0
 20 22  1  0  0  0  0
 23 18  1  6  0  0  0
 23 24  1  0  0  0  0
 23 28  1  0  0  0  0
 24 25  1  1  0  0  0
 24 26  1  0  0  0  0
 26 27  1  0  0  0  0
 26 38  1  1  0  0  0
 27 28  1  0  0  0  0
 27 29  1  6  0  0  0
 29 30  1  0  0  0  0
 31 32  1  6  0  0  0
 31 33  1  0  0  0  0
 31 39  1  0  0  0  0
 33 34  1  6  0  0  0
 33 35  1  0  0  0  0
 35 36  1  1  0  0  0
 35 37  1  0  0  0  0
 37 38  1  6  0  0  0
 37 40  1  0  0  0  0
 39 40  1  0  0  0  0
 39 41  1  1  0  0  0
 41 42  1  0  0  0  0
M  CHG  5   4   1  14   1  21   1  36   1  42   1
M  END
>  <CHROM.1>
-175.87472397,53.94471647,-37.62309206,175.22743176,-161.00541188,-53.40271530
-177.29748248,-60.46649764,146.34058209,-56.70944390,154.15612216,-161.45887444
176.03814060,-72.05060958,177.91957399,-161.54871271,-74.85219067,-179.14502721
-65.76433414,-142.15089035,42.52458380,-168.95617929,2.44468821,0.30031454
40.59391551,-1.34434358,-0.70562860,1.61096530

>  <Name>
1pbr

>  <RI>
0

>  <Rbt.Current_Directory>
/home/itssahil/PROJECTS/Mol_Feturizer/New_Systems/rnas/1pbr

>  <Rbt.Executable>
rbdock ($Id: //depot/dev/client3/rdock/2013.1/src/exe/rbdock.cxx#4 $)

>  <Rbt.Library>
libRbt.so (2013.1, Build901 2013/11/27)

>  <Rbt.Parameter_File>
/export/apps/rDock/src/rDock_2013.1_src/data/scripts/dock_solv.prm

>  <Rbt.Receptor>
prm/blind_docking_60.prm

>  <SCORE>
-41.8335

>  <SCORE.INTER>
-41.3781

>  <SCORE.INTER.CONST>
1

>  <SCORE.INTER.POLAR>
-5.35632

>  <SCORE.INTER.ROT>
9

>  <SCORE.INTER.SOLV>
46.535

>  <SCORE.INTER.VDW>
-34.8427

>  <SCORE.INTER.norm>
-0.985194

>  <SCORE.INTRA>
-1.69244

>  <SCORE.INTRA.DIHEDRAL>
-7.93338

>  <SCORE.INTRA.DIHEDRAL.0>
29.7866

>  <SCORE.INTRA.POLAR>
-0.57077

>  <SCORE.INTRA.POLAR.0>
-0.984091

>  <SCORE.INTRA.REPUL>
-0.273372

>  <SCORE.INTRA.REPUL.0>
0.274115

>  <SCORE.INTRA.SOLV>
-3.23804

>  <SCORE.INTRA.SOLV.lig_0>
-152.978

>  <SCORE.INTRA.VDW>
7.20075

>  <SCORE.INTRA.VDW.0>
-6.10719

>  <SCORE.INTRA.norm>
-0.0402961

>  <SCORE.RESTR>
1.23709

>  <SCORE.RESTR.CAVITY>
1.23709

>  <SCORE.RESTR.norm>
0.0294546

>  <SCORE.SYSTEM>
0

>  <SCORE.SYSTEM.CONST>
0

>  <SCORE.SYSTEM.DIHEDRAL>
0

>  <SCORE.SYSTEM.SOLV>
0

>  <SCORE.SYSTEM.norm>
0

>  <SCORE.heavy>
42

>  <SCORE.norm>
-0.996035

>  <RMSD>
8.622

$$$$
1pbr
 OpenBabel11021811403D
libRbt.so/2013.1/901 2013/11/27
 42 45  0  0  0  0  0  0  0  0999 V2000
    5.6854   -2.8947   38.7740 C   0  0  2  0  0  0  0  0  0  0  0  0
    5.5416   -2.4327   37.4069 O   0  0  0  0  0  0  0  0  0  0  0  0
    7.1738   -3.3142   39.0689 C   0  0  2  0  0  0  0  0  0  0  0  0
    8.1966   -2.4034   38.4920 N   0  3  0  0  0  0  0  0  0  0  0  0
    7.4872   -4.7182   38.5181 C   0  0  1  0  0  0  0  0  0  0  0  0
    8.7374   -5.1897   39.0161 O   0  0  0  0  0  0  0  0  0  0  0  0
    6.3803   -5.7164   38.8896 C   0  0  2  0  0  0  0  0  0  0  0  0
    6.7082   -7.0167   38.4102 O   0  0  0  0  0  0  0  0  0  0  0  0
    5.0073   -5.2262   38.3789 C   0  0  2  0  0  0  0  0  0  0  0  0
    4.7405   -3.9689   39.0358 O   0  0  0  0  0  0  0  0  0  0  0  0
    3.8486   -6.1727   38.6881 C   0  0  0  0  0  0  0  0  0  0  0  0
    4.0003   -7.4118   38.0084 O   0  0  0  0  0  0  0  0  0  0  0  0
    2.8742    0.5522   35.9292 C   0  0  1  0  0  0  0  0  0  0  0  0
    1.7202    1.3389   35.4566 N   0  3  0  0  0  0  0  0  0  0  0  0
    2.7869    0.2325   37.4523 C   0  0  2  0  0  0  0  0  0  0  0  0
    2.7263    1.4379   38.2111 O   0  0  0  0  0  0  0  0  0  0  0  0
    4.0216   -0.5869   37.9295 C   0  0  1  0  0  0  0  0  0  0  0  0
    3.8018   -0.9988   39.3112 O   0  0  0  0  0  0  0  0  0  0  0  0
    4.2662   -1.8516   37.0430 C   0  0  1  0  0  0  0  0  0  0  0  0
    4.2969   -1.5250   35.5155 C   0  0  1  0  0  0  0  0  0  0  0  0
    4.4300   -2.7519   34.6991 N   0  3  0  0  0  0  0  0  0  0  0  0
    3.0185   -0.7545   35.0954 C   0  0  0  0  0  0  0  0  0  0  0  0
    2.5888   -1.7343   39.6709 C   0  0  1  0  0  0  0  0  0  0  0  0
    2.8378   -2.4781   40.9964 C   0  0  2  0  0  0  0  0  0  0  0  0
    1.9907   -3.6180   41.1108 O   0  0  0  0  0  0  0  0  0  0  0  0
    2.4464   -1.3616   41.9763 C   0  0  1  0  0  0  0  0  0  0  0  0
    1.1890   -0.7949   41.3380 C   0  0  2  0  0  0  0  0  0  0  0  0
    1.5159   -0.8197   39.9570 O   0  0  0  0  0  0  0  0  0  0  0  0
    0.8202    0.6292   41.7732 C   0  0  0  0  0  0  0  0  0  0  0  0
    1.3277    0.8882   43.0739 O   0  0  0  0  0  0  0  0  0  0  0  0
    4.7022   -1.7372   46.8548 C   0  0  1  0  0  0  0  0  0  0  0  0
    4.0016   -2.7777   47.5339 O   0  0  0  0  0  0  0  0  0  0  0  0
    5.3324   -2.3050   45.5525 C   0  0  2  0  0  0  0  0  0  0  0  0
    6.3178   -1.3857   45.0873 O   0  0  0  0  0  0  0  0  0  0  0  0
    4.3253   -2.5931   44.3912 C   0  0  1  0  0  0  0  0  0  0  0  0
    3.7222   -3.9343   44.5542 N   0  3  0  0  0  0  0  0  0  0  0  0
    3.2636   -1.4701   44.2550 C   0  0  1  0  0  0  0  0  0  0  0  0
    2.1838   -1.7861   43.3422 O   0  0  0  0  0  0  0  0  0  0  0  0
    3.7356   -0.5775   46.5063 C   0  0  1  0  0  0  0  0  0  0  0  0
    2.7452   -1.0931   45.5750 O   0  0  0  0  0  0  0  0  0  0  0  0
    3.0584    0.0595   47.7342 C   0  0  0  0  0  0  0  0  0  0  0  0
    1.5920    0.1506   47.5932 N   0  3  0  0  0  0  0  0  0  0  0  0
  1  2  1  6  0  0  0
  1  3  1  0  0  0  0
  1 10  1  0  0  0  0
  3  4  1  6  0  0  0
  3  5  1  0  0  0  0
  5  6  1  1  0  0  0
  5  7  1  0  0  0  0
  7  8  1  6  0  0  0
  7  9  1  0  0  0  0
  9 10  1  0  0  0  0
  9 11  1  1  0  0  0
 11 12  1  0  0  0  0
 13 14  1  6  0  0  0
 13 15  1  0  0  0  0
 13 22  1  0  0  0  0
 15 16  1  1  0  0  0
 15 17  1  0  0  0  0
 17 18  1  1  0  0  0
 17 19  1  0  0  0  0
 19  2  1  1  0  0  0
 19 20  1  0  0  0  0
 20 21  1  6  0  0  0
 20 22  1  0  0  0  0
 23 18  1  1  0  0  0
 23 24  1  0  0  0  0
 23 28  1  0  0  0  0
 24 25  1  6  0  0  0
 24 26  1  0  0  0  0
 26 27  1  0  0  0  0
 26 38  1  1  0  0  0
 27 28  1  0  0  0  0
 27 29  1  1  0  0  0
 29 30  1  0  0  0  0
 31 32  1  6  0  0  0
 31 33  1  0  0  0  0
 31 39  1  0  0  0  0
 33 34  1  6  0  0  0
 33 35  1  0  0  0  0
 35 36  1  1  0  0  0
 35 37  1  0  0  0  0
 37 38  1  6  0  0  0
 37 40  1  0  0  0  0
 39 40  1  0  0  0  0
 39 41  1  1  0  0  0
 41 42  1  0  0  0  0
M  CHG  5   4   1  14   1  21   1  36   1  42   1
M  END
>  <CHROM.1>
-172.24642424,61.29657167,158.10764504,-64.15587560,51.30221564,-64.77305545
54.07359232,171.57139429,170.42057133,54.46041999,159.24306547,43.96497251
-57.33075625,103.97672994,-26.79142245,135.06440579,175.00023046,-59.97496671
-43.70804172,-90.67280818,-129.03363683,62.19455432,3.97817516,-2.16096730
40.69190395,-1.28641991,-0.89590394,1.60641220

>  <Name>
1pbr

>  <RI>
0

>  <Rbt.Current_Directory>
/home/itssahil/PROJECTS/Mol_Feturizer/New_Systems/rnas/1pbr

>  <Rbt.Executable>
rbdock ($Id: //depot/dev/client3/rdock/2013.1/src/exe/rbdock.cxx#4 $)

>  <Rbt.Library>
libRbt.so (2013.1, Build901 2013/11/27)

>  <Rbt.Parameter_File>
/export/apps/rDock/src/rDock_2013.1_src/data/scripts/dock_solv.prm

>  <Rbt.Receptor>
prm/pocket_docking_6.prm

>  <SCORE>
-32.1245

>  <SCORE.INTER>
-31.9857

>  <SCORE.INTER.CONST>
1

>  <SCORE.INTER.POLAR>
-3.98053

>  <SCORE.INTER.ROT>
9

>  <SCORE.INTER.SOLV>
30.469

>  <SCORE.INTER.VDW>
-27.8117

>  <SCORE.INTER.norm>
-0.761564

>  <SCORE.INTRA>
-0.138767

>  <SCORE.INTRA.DIHEDRAL>
1.23735

>  <SCORE.INTRA.DIHEDRAL.0>
29.7866

>  <SCORE.INTRA.POLAR>
-0.0338299

>  <SCORE.INTRA.POLAR.0>
-0.984091

>  <SCORE.INTRA.REPUL>
-0.274115

>  <SCORE.INTRA.REPUL.0>
0.274115

>  <SCORE.INTRA.SOLV>
-1.71956

>  <SCORE.INTRA.SOLV.lig_0>
-152.978

>  <SCORE.INTRA.VDW>
1.58793

>  <SCORE.INTRA.VDW.0>
-6.10719

>  <SCORE.INTRA.norm>
-0.00330397

>  <SCORE.RESTR>
0

>  <SCORE.RESTR.CAVITY>
0

>  <SCORE.RESTR.norm>
0

>  <SCORE.SYSTEM>
0

>  <SCORE.SYSTEM.CONST>
0

>  <SCORE.SYSTEM.DIHEDRAL>
0

>  <SCORE.SYSTEM.SOLV>
0

>  <SCORE.SYSTEM.norm>
0

>  <SCORE.heavy>
42

>  <SCORE.norm>
-0.764868

>  <RMSD>
8.623

$$$$
1pbr
 OpenBabel11021811403D
libRbt.so/2013.1/901 2013/11/27
 42 45  0  0  0  0  0  0  0  0999 V2000
    3.3101   -0.9657   38.3898 C   0  0  2  0  0  0  0  0  0  0  0  0
    2.6767   -0.6681   37.1196 O   0  0  0  0  0  0  0  0  0  0  0  0
    4.8780   -0.9539   38.2493 C   0  0  2  0  0  0  0  0  0  0  0  0
    5.4127    0.1450   37.4039 N   0  3  0  0  0  0  0  0  0  0  0  0
    5.4022   -2.2652   37.6342 C   0  0  1  0  0  0  0  0  0  0  0  0
    6.8204   -2.3500   37.7564 O   0  0  0  0  0  0  0  0  0  0  0  0
    4.7578   -3.4866   38.3070 C   0  0  2  0  0  0  0  0  0  0  0  0
    5.2864   -4.6888   37.7559 O   0  0  0  0  0  0  0  0  0  0  0  0
    3.2178   -3.4172   38.2076 C   0  0  2  0  0  0  0  0  0  0  0  0
    2.8059   -2.2262   38.9114 O   0  0  0  0  0  0  0  0  0  0  0  0
    2.4944   -4.6075   38.8353 C   0  0  0  0  0  0  0  0  0  0  0  0
    2.8403   -5.8224   38.1836 O   0  0  0  0  0  0  0  0  0  0  0  0
    1.1997    3.3230   37.4313 C   0  0  1  0  0  0  0  0  0  0  0  0
    0.3968    4.5596   37.4417 N   0  3  0  0  0  0  0  0  0  0  0  0
    0.7732    2.3326   38.5568 C   0  0  2  0  0  0  0  0  0  0  0  0
    0.9111    2.9447   39.8369 O   0  0  0  0  0  0  0  0  0  0  0  0
    1.6429    1.0416   38.5332 C   0  0  1  0  0  0  0  0  0  0  0  0
    1.0899    0.0896   39.4897 O   0  0  0  0  0  0  0  0  0  0  0  0
    1.6852    0.3871   37.1137 C   0  0  1  0  0  0  0  0  0  0  0  0
    2.0606    1.4032   35.9880 C   0  0  1  0  0  0  0  0  0  0  0  0
    1.9953    0.7795   34.6477 N   0  3  0  0  0  0  0  0  0  0  0  0
    1.1266    2.6401   36.0342 C   0  0  0  0  0  0  0  0  0  0  0  0
    0.8982    0.4837   40.8860 C   0  0  1  0  0  0  0  0  0  0  0  0
    0.4169   -0.7432   41.6831 C   0  0  2  0  0  0  0  0  0  0  0  0
   -0.3210   -0.3474   42.8359 O   0  0  0  0  0  0  0  0  0  0  0  0
    1.7825   -1.3463   42.0451 C   0  0  1  0  0  0  0  0  0  0  0  0
    2.5864   -0.1180   42.4381 C   0  0  2  0  0  0  0  0  0  0  0  0
    2.1579    0.8399   41.4824 O   0  0  0  0  0  0  0  0  0  0  0  0
    4.1100   -0.2872   42.3773 C   0  0  0  0  0  0  0  0  0  0  0  0
    4.5421   -1.1800   43.3934 O   0  0  0  0  0  0  0  0  0  0  0  0
   -0.5223   -5.9697   43.4508 C   0  0  1  0  0  0  0  0  0  0  0  0
   -0.8494   -5.7962   44.8284 O   0  0  0  0  0  0  0  0  0  0  0  0
   -1.1565   -4.8182   42.6216 C   0  0  2  0  0  0  0  0  0  0  0  0
   -1.1479   -5.1920   41.2459 O   0  0  0  0  0  0  0  0  0  0  0  0
   -0.4612   -3.4251   42.7687 C   0  0  1  0  0  0  0  0  0  0  0  0
   -0.9840   -2.7119   43.9549 N   0  3  0  0  0  0  0  0  0  0  0  0
    1.0852   -3.5490   42.7759 C   0  0  1  0  0  0  0  0  0  0  0  0
    1.7741   -2.3225   43.1229 O   0  0  0  0  0  0  0  0  0  0  0  0
    1.0152   -5.9674   43.2594 C   0  0  1  0  0  0  0  0  0  0  0  0
    1.5061   -4.6542   43.6446 O   0  0  0  0  0  0  0  0  0  0  0  0
    1.7419   -7.0783   44.0403 C   0  0  0  0  0  0  0  0  0  0  0  0
    1.6009   -6.9331   45.5024 N   0  3  0  0  0  0  0  0  0  0  0  0
  1  2  1  6  0  0  0
  1  3  1  0  0  0  0
  1 10  1  0  0  0  0
  3  4  1  6  0  0  0
  3  5  1  0  0  0  0
  5  6  1  1  0  0  0
  5  7  1  0  0  0  0
  7  8  1  6  0  0  0
  7  9  1  0  0  0  0
  9 10  1  0  0  0  0
  9 11  1  1  0  0  0
 11 12  1  0  0  0  0
 13 14  1  6  0  0  0
 13 15  1  0  0  0  0
 13 22  1  0  0  0  0
 15 16  1  1  0  0  0
 15 17  1  0  0  0  0
 17 18  1  1  0  0  0
 17 19  1  0  0  0  0
 19  2  1  1  0  0  0
 19 20  1  0  0  0  0
 20 21  1  6  0  0  0
 20 22  1  0  0  0  0
 23 18  1  6  0  0  0
 23 24  1  0  0  0  0
 23 28  1  0  0  0  0
 24 25  1  1  0  0  0
 24 26  1  0  0  0  0
 26 27  1  0  0  0  0
 26 38  1  1  0  0  0
 27 28  1  0  0  0  0
 27 29  1  6  0  0  0
 29 30  1  0  0  0  0
 31 32  1  1  0  0  0
 31 33  1  0  0  0  0
 31 39  1  0  0  0  0
 33 34  1  6  0  0  0
 33 35  1  0  0  0  0
 35 36  1  1  0  0  0
 35 37  1  0  0  0  0
 37 38  1  1  0  0  0
 37 40  1  0  0  0  0
 39 40  1  0  0  0  0
 39 41  1  1  0  0  0
 41 42  1  0  0  0  0
M  CHG  5   4   1  14   1  21   1  36   1  42   1
M  END
>  <CHROM.1>
-128.20179227,4.87511485,-11.15077537,-169.83158455,-172.88123464,-61.89780113
-173.74347389,-53.83019350,58.80471441,-55.01948612,-175.31654830,31.83823439
-51.82718695,67.49922238,-68.72868382,-176.91891758,58.18671914,-59.34355975
-159.51543448,-75.40432925,-63.73665808,-81.34615712,1.97445910,-1.75718496
40.26588519,-1.27629655,-0.82575800,2.58606123

>  <Name>
1pbr

>  <RI>
0

>  <Rbt.Current_Directory>
/home/itssahil/PROJECTS/Mol_Feturizer/New_Systems/rnas/1pbr

>  <Rbt.Executable>
rbdock ($Id: //depot/dev/client3/rdock/2013.1/src/exe/rbdock.cxx#4 $)

>  <Rbt.Library>
libRbt.so (2013.1, Build901 2013/11/27)

>  <Rbt.Parameter_File>
/export/apps/rDock/src/rDock_2013.1_src/data/scripts/dock_solv.prm

>  <Rbt.Receptor>
prm/pocket_docking_4.prm

>  <SCORE>
-35.793

>  <SCORE.INTER>
-33.4777

>  <SCORE.INTER.CONST>
1

>  <SCORE.INTER.POLAR>
-5.24313

>  <SCORE.INTER.ROT>
9

>  <SCORE.INTER.SOLV>
22.7267

>  <SCORE.INTER.VDW>
-22.0169

>  <SCORE.INTER.norm>
-0.797087

>  <SCORE.INTRA>
-2.35514

>  <SCORE.INTRA.DIHEDRAL>
-4.98308

>  <SCORE.INTRA.DIHEDRAL.0>
29.7866

>  <SCORE.INTRA.POLAR>
-1.68522

>  <SCORE.INTRA.POLAR.0>
-0.984091

>  <SCORE.INTRA.REPUL>
-0.274115

>  <SCORE.INTRA.REPUL.0>
0.274115

>  <SCORE.INTRA.SOLV>
3.41086

>  <SCORE.INTRA.SOLV.lig_0>
-152.978

>  <SCORE.INTRA.VDW>
5.5313

>  <SCORE.INTRA.VDW.0>
-6.10719

>  <SCORE.INTRA.norm>
-0.0560747

>  <SCORE.RESTR>
0.0397959

>  <SCORE.RESTR.CAVITY>
0.0397959

>  <SCORE.RESTR.norm>
0.000947521

>  <SCORE.SYSTEM>
0

>  <SCORE.SYSTEM.CONST>
0

>  <SCORE.SYSTEM.DIHEDRAL>
0

>  <SCORE.SYSTEM.SOLV>
0

>  <SCORE.SYSTEM.norm>
0

>  <SCORE.heavy>
42

>  <SCORE.norm>
-0.852214

>  <RMSD>
8.637

$$$$
1pbr
 OpenBabel11021811403D
libRbt.so/2013.1/901 2013/11/27
 42 45  0  0  0  0  0  0  0  0999 V2000
    4.5626    0.5500   37.8205 C   0  0  2  0  0  0  0  0  0  0  0  0
    3.8036    1.3921   36.9161 O   0  0  0  0  0  0  0  0  0  0  0  0
    5.9485    0.1554   37.1867 C   0  0  2  0  0  0  0  0  0  0  0  0
    6.6332    1.2597   36.4656 N   0  3  0  0  0  0  0  0  0  0  0  0
    5.8017   -0.9953   36.1733 C   0  0  1  0  0  0  0  0  0  0  0  0
    7.0786   -1.5155   35.8097 O   0  0  0  0  0  0  0  0  0  0  0  0
    4.9333   -2.1263   36.7446 C   0  0  2  0  0  0  0  0  0  0  0  0
    4.8449   -3.1989   35.8118 O   0  0  0  0  0  0  0  0  0  0  0  0
    3.5461   -1.5921   37.1653 C   0  0  2  0  0  0  0  0  0  0  0  0
    3.7713   -0.6101   38.1989 O   0  0  0  0  0  0  0  0  0  0  0  0
    2.6073   -2.6584   37.7271 C   0  0  0  0  0  0  0  0  0  0  0  0
    1.6312   -2.0844   38.5863 O   0  0  0  0  0  0  0  0  0  0  0  0
   -0.2537    2.7136   36.9268 C   0  0  1  0  0  0  0  0  0  0  0  0
   -1.7228    2.8376   36.9154 N   0  3  0  0  0  0  0  0  0  0  0  0
    0.2747    2.0762   38.2475 C   0  0  2  0  0  0  0  0  0  0  0  0
   -0.1166    2.8621   39.3708 O   0  0  0  0  0  0  0  0  0  0  0  0
    1.8277    1.9677   38.2409 C   0  0  1  0  0  0  0  0  0  0  0  0
    2.2473    1.2147   39.4173 O   0  0  0  0  0  0  0  0  0  0  0  0
    2.3621    1.2599   36.9530 C   0  0  1  0  0  0  0  0  0  0  0  0
    1.7821    1.8734   35.6386 C   0  0  1  0  0  0  0  0  0  0  0  0
    2.2267    1.1213   34.4443 N   0  3  0  0  0  0  0  0  0  0  0  0
    0.2326    1.9062   35.6878 C   0  0  0  0  0  0  0  0  0  0  0  0
    1.8949    1.6921   40.7551 C   0  0  1  0  0  0  0  0  0  0  0  0
    1.5793    0.4758   41.6456 C   0  0  2  0  0  0  0  0  0  0  0  0
    0.7067    0.8354   42.7131 O   0  0  0  0  0  0  0  0  0  0  0  0
    3.0005    0.1613   42.1367 C   0  0  1  0  0  0  0  0  0  0  0  0
    3.5511    1.5438   42.4452 C   0  0  2  0  0  0  0  0  0  0  0  0
    3.0301    2.3199   41.3770 O   0  0  0  0  0  0  0  0  0  0  0  0
    5.0815    1.6446   42.4806 C   0  0  0  0  0  0  0  0  0  0  0  0
    5.5785    1.9694   41.1907 O   0  0  0  0  0  0  0  0  0  0  0  0
    2.3190    0.4597   47.3979 C   0  0  1  0  0  0  0  0  0  0  0  0
    1.5823   -0.7153   47.7319 O   0  0  0  0  0  0  0  0  0  0  0  0
    3.7815    0.0684   47.0464 C   0  0  2  0  0  0  0  0  0  0  0  0
    4.5867    1.2444   47.0824 O   0  0  0  0  0  0  0  0  0  0  0  0
    3.9734   -0.6303   45.6605 C   0  0  1  0  0  0  0  0  0  0  0  0
    3.7286   -2.0846   45.7794 N   0  3  0  0  0  0  0  0  0  0  0  0
    3.1132    0.0348   44.5539 C   0  0  1  0  0  0  0  0  0  0  0  0
    3.0868   -0.6997   43.3054 O   0  0  0  0  0  0  0  0  0  0  0  0
    1.6650    1.1789   46.1914 C   0  0  1  0  0  0  0  0  0  0  0  0
    1.7540    0.2885   45.0455 O   0  0  0  0  0  0  0  0  0  0  0  0
    0.2084    1.6134   46.4398 C   0  0  0  0  0  0  0  0  0  0  0  0
   -0.7508    0.9249   45.5542 N   0  3  0  0  0  0  0  0  0  0  0  0
  1  2  1  6  0  0  0
  1  3  1  0  0  0  0
  1 10  1  0  0  0  0
  3  4  1  6  0  0  0
  3  5  1  0  0  0  0
  5  6  1  1  0  0  0
  5  7  1  0  0  0  0
  7  8  1  6  0  0  0
  7  9  1  0  0  0  0
  9 10  1  0  0  0  0
  9 11  1  1  0  0  0
 11 12  1  0  0  0  0
 13 14  1  1  0  0  0
 13 15  1  0  0  0  0
 13 22  1  0  0  0  0
 15 16  1  1  0  0  0
 15 17  1  0  0  0  0
 17 18  1  1  0  0  0
 17 19  1  0  0  0  0
 19  2  1  6  0  0  0
 19 20  1  0  0  0  0
 20 21  1  6  0  0  0
 20 22  1  0  0  0  0
 23 18  1  6  0  0  0
 23 24  1  0  0  0  0
 23 28  1  0  0  0  0
 24 25  1  1  0  0  0
 24 26  1  0  0  0  0
 26 27  1  0  0  0  0
 26 38  1  1  0  0  0
 27 28  1  0  0  0  0
 27 29  1  6  0  0  0
 29 30  1  0  0  0  0
 31 32  1  6  0  0  0
 31 33  1  0  0  0  0
 31 39  1  0  0  0  0
 33 34  1  6  0  0  0
 33 35  1  0  0  0  0
 35 36  1  1  0  0  0
 35 37  1  0  0  0  0
 37 38  1  6  0  0  0
 37 40  1  0  0  0  0
 39 40  1  0  0  0  0
 39 41  1  1  0  0  0
 41 42  1  0  0  0  0
M  CHG  5   4   1  14   1  21   1  36   1  42   1
M  END
>  <CHROM.1>
147.49239786,75.15353469,-152.57405463,-168.18804547,71.79309605,155.29765244
-48.21851554,-168.51558334,-62.95786918,-58.69769945,142.97903316,66.98724128
-152.62714376,-91.25180074,90.28794153,172.71705281,-72.57983864,112.71372063
53.32144213,-146.44973724,-115.92240259,-48.56290121,2.79766556,0.47728774
40.55180660,-1.44925205,-0.50965051,1.61801258

>  <Name>
1pbr

>  <RI>
0

>  <Rbt.Current_Directory>
/home/itssahil/PROJECTS/Mol_Feturizer/New_Systems/rnas/1pbr

>  <Rbt.Executable>
rbdock ($Id: //depot/dev/client3/rdock/2013.1/src/exe/rbdock.cxx#4 $)

>  <Rbt.Library>
libRbt.so (2013.1, Build901 2013/11/27)

>  <Rbt.Parameter_File>
/export/apps/rDock/src/rDock_2013.1_src/data/scripts/dock_solv.prm

>  <Rbt.Receptor>
prm/pocket_docking_7.prm

>  <SCORE>
-36.7615

>  <SCORE.INTER>
-43.8195

>  <SCORE.INTER.CONST>
1

>  <SCORE.INTER.POLAR>
-5.60504

>  <SCORE.INTER.ROT>
9

>  <SCORE.INTER.SOLV>
41.2432

>  <SCORE.INTER.VDW>
-33.8773

>  <SCORE.INTER.norm>
-1.04332

>  <SCORE.INTRA>
7.05803

>  <SCORE.INTRA.DIHEDRAL>
13.6702

>  <SCORE.INTRA.DIHEDRAL.0>
29.7866

>  <SCORE.INTRA.POLAR>
-1.13365

>  <SCORE.INTRA.POLAR.0>
-0.984091

>  <SCORE.INTRA.REPUL>
-0.157582

>  <SCORE.INTRA.REPUL.0>
0.274115

>  <SCORE.INTRA.SOLV>
0.507721

>  <SCORE.INTRA.SOLV.lig_0>
-152.978

>  <SCORE.INTRA.VDW>
4.6114

>  <SCORE.INTRA.VDW.0>
-6.10719

>  <SCORE.INTRA.norm>
0.168048

>  <SCORE.RESTR>
0

>  <SCORE.RESTR.CAVITY>
0

>  <SCORE.RESTR.norm>
0

>  <SCORE.SYSTEM>
0

>  <SCORE.SYSTEM.CONST>
0

>  <SCORE.SYSTEM.DIHEDRAL>
0

>  <SCORE.SYSTEM.SOLV>
0

>  <SCORE.SYSTEM.norm>
0

>  <SCORE.heavy>
42

>  <SCORE.norm>
-0.875274

>  <RMSD>
8.638

$$$$
1pbr
 OpenBabel11021811403D
libRbt.so/2013.1/901 2013/11/27
 42 45  0  0  0  0  0  0  0  0999 V2000
    5.0309    0.5225   40.1993 C   0  0  2  0  0  0  0  0  0  0  0  0
    5.1282   -0.5884   41.1264 O   0  0  0  0  0  0  0  0  0  0  0  0
    4.3539    1.7667   40.8863 C   0  0  2  0  0  0  0  0  0  0  0  0
    4.7951    2.0151   42.2834 N   0  3  0  0  0  0  0  0  0  0  0  0
    2.8212    1.6221   40.9375 C   0  0  1  0  0  0  0  0  0  0  0  0
    2.2090    2.8537   41.3141 O   0  0  0  0  0  0  0  0  0  0  0  0
    2.2639    1.1690   39.5796 C   0  0  2  0  0  0  0  0  0  0  0  0
    0.8434    1.0832   39.6338 O   0  0  0  0  0  0  0  0  0  0  0  0
    2.9203   -0.1562   39.1333 C   0  0  2  0  0  0  0  0  0  0  0  0
    4.3335    0.1023   38.9941 O   0  0  0  0  0  0  0  0  0  0  0  0
    2.4071   -0.6917   37.7976 C   0  0  0  0  0  0  0  0  0  0  0  0
    2.4828    0.2998   36.7819 O   0  0  0  0  0  0  0  0  0  0  0  0
    5.7679   -3.6129   38.1852 C   0  0  1  0  0  0  0  0  0  0  0  0
    6.1806   -4.7983   37.4116 N   0  3  0  0  0  0  0  0  0  0  0  0
    4.8193   -3.9796   39.3664 C   0  0  2  0  0  0  0  0  0  0  0  0
    3.6460   -4.6270   38.8799 O   0  0  0  0  0  0  0  0  0  0  0  0
    4.3877   -2.7113   40.1594 C   0  0  1  0  0  0  0  0  0  0  0  0
    3.6468   -3.1316   41.3433 O   0  0  0  0  0  0  0  0  0  0  0  0
    5.6142   -1.8444   40.5946 C   0  0  1  0  0  0  0  0  0  0  0  0
    6.5853   -1.5302   39.4118 C   0  0  1  0  0  0  0  0  0  0  0  0
    7.7841   -0.7951   39.8722 N   0  3  0  0  0  0  0  0  0  0  0  0
    7.0167   -2.8368   38.6969 C   0  0  0  0  0  0  0  0  0  0  0  0
    4.3594   -3.6992   42.4886 C   0  0  1  0  0  0  0  0  0  0  0  0
    3.3516   -3.9345   43.6293 C   0  0  2  0  0  0  0  0  0  0  0  0
    4.0011   -3.9202   44.8974 O   0  0  0  0  0  0  0  0  0  0  0  0
    2.8690   -5.3395   43.2385 C   0  0  1  0  0  0  0  0  0  0  0  0
    4.1655   -6.0335   42.8552 C   0  0  2  0  0  0  0  0  0  0  0  0
    4.8631   -5.0075   42.1658 O   0  0  0  0  0  0  0  0  0  0  0  0
    4.0057   -7.2665   41.9562 C   0  0  0  0  0  0  0  0  0  0  0  0
    3.1527   -8.2160   42.5785 O   0  0  0  0  0  0  0  0  0  0  0  0
   -2.0901   -6.4606   44.8530 C   0  0  1  0  0  0  0  0  0  0  0  0
   -2.0435   -7.8153   45.2975 O   0  0  0  0  0  0  0  0  0  0  0  0
   -1.3282   -5.5598   45.8648 C   0  0  2  0  0  0  0  0  0  0  0  0
   -1.6904   -4.2019   45.6252 O   0  0  0  0  0  0  0  0  0  0  0  0
    0.2307   -5.6789   45.8261 C   0  0  1  0  0  0  0  0  0  0  0  0
    0.6809   -6.8125   46.6635 N   0  3  0  0  0  0  0  0  0  0  0  0
    0.7685   -5.7553   44.3729 C   0  0  1  0  0  0  0  0  0  0  0  0
    2.1774   -6.0805   44.2812 O   0  0  0  0  0  0  0  0  0  0  0  0
   -1.4455   -6.3332   43.4499 C   0  0  1  0  0  0  0  0  0  0  0  0
   -0.0404   -6.6848   43.5760 O   0  0  0  0  0  0  0  0  0  0  0  0
   -2.1326   -7.1880   42.3686 C   0  0  0  0  0  0  0  0  0  0  0  0
   -2.0990   -8.6312   42.6763 N   0  3  0  0  0  0  0  0  0  0  0  0
  1  2  1  1  0  0  0
  1  3  1  0  0  0  0
  1 10  1  0  0  0  0
  3  4  1  1  0  0  0
  3  5  1  0  0  0  0
  5  6  1  6  0  0  0
  5  7  1  0  0  0  0
  7  8  1  1  0  0  0
  7  9  1  0  0  0  0
  9 10  1  0  0  0  0
  9 11  1  6  0  0  0
 11 12  1  0  0  0  0
 13 14  1  1  0  0  0
 13 15  1  0  0  0  0
 13 22  1  0  0  0  0
 15 16  1  6  0  0  0
 15 17  1  0  0  0  0
 17 18  1  1  0  0  0
 17 19  1  0  0  0  0
 19  2  1  6  0  0  0
 19 20  1  0  0  0  0
 20 21  1  1  0  0  0
 20 22  1  0  0  0  0
 23 18  1  6  0  0  0
 23 24  1  0  0  0  0
 23 28  1  0  0  0  0
 24 25  1  1  0  0  0
 24 26  1  0  0  0  0
 26 27  1  0  0  0  0
 26 38  1  1  0  0  0
 27 28  1  0  0  0  0
 27 29  1  6  0  0  0
 29 30  1  0  0  0  0
 31 32  1  1  0  0  0
 31 33  1  0  0  0  0
 31 39  1  0  0  0  0
 33 34  1  6  0  0  0
 33 35  1  0  0  0  0
 35 36  1  1  0  0  0
 35 37  1  0  0  0  0
 37 38  1  1  0  0  0
 37 40  1  0  0  0  0
 39 40  1  0  0  0  0
 39 41  1  6  0  0  0
 41 42  1  0  0  0  0
M  CHG  5   4   1  14   1  21   1  36   1  42   1
M  END
>  <CHROM.1>
174.24513021,-93.36028881,-166.44937797,-168.86287386,-51.31804809,52.44031660
-177.41186546,-50.97655921,65.12277985,75.03672400,175.08268526,30.43179264
64.45196002,84.02159826,-56.92189295,-52.87640010,54.02793820,29.47094138
-91.84456918,-140.85726842,-60.45339091,24.68479040,2.75788868,-3.36479545
41.70949231,0.91145545,0.58140057,-0.24787065

>  <Name>
1pbr

>  <RI>
0

>  <Rbt.Current_Directory>
/home/itssahil/PROJECTS/Mol_Feturizer/New_Systems/rnas/1pbr

>  <Rbt.Executable>
rbdock ($Id: //depot/dev/client3/rdock/2013.1/src/exe/rbdock.cxx#4 $)

>  <Rbt.Library>
libRbt.so (2013.1, Build901 2013/11/27)

>  <Rbt.Parameter_File>
/export/apps/rDock/src/rDock_2013.1_src/data/scripts/dock_solv.prm

>  <Rbt.Receptor>
prm/pocket_docking_7.prm

>  <SCORE>
-44.3903

>  <SCORE.INTER>
-44.6289

>  <SCORE.INTER.CONST>
1

>  <SCORE.INTER.POLAR>
-7.63724

>  <SCORE.INTER.ROT>
9

>  <SCORE.INTER.SOLV>
27.1797

>  <SCORE.INTER.VDW>
-22.955

>  <SCORE.INTER.norm>
-1.06259

>  <SCORE.INTRA>
0.238631

>  <SCORE.INTRA.DIHEDRAL>
-3.54456

>  <SCORE.INTRA.DIHEDRAL.0>
29.7866

>  <SCORE.INTRA.POLAR>
-0.0937095

>  <SCORE.INTRA.POLAR.0>
-0.984091

>  <SCORE.INTRA.REPUL>
-0.274115

>  <SCORE.INTRA.REPUL.0>
0.274115

>  <SCORE.INTRA.SOLV>
-0.43169

>  <SCORE.INTRA.SOLV.lig_0>
-152.978

>  <SCORE.INTRA.VDW>
3.91594

>  <SCORE.INTRA.VDW.0>
-6.10719

>  <SCORE.INTRA.norm>
0.00568169

>  <SCORE.RESTR>
0

>  <SCORE.RESTR.CAVITY>
0

>  <SCORE.RESTR.norm>
0

>  <SCORE.SYSTEM>
0

>  <SCORE.SYSTEM.CONST>
0

>  <SCORE.SYSTEM.DIHEDRAL>
0

>  <SCORE.SYSTEM.SOLV>
0

>  <SCORE.SYSTEM.norm>
0

>  <SCORE.heavy>
42

>  <SCORE.norm>
-1.05691

>  <RMSD>
8.639

$$$$
1pbr
 OpenBabel11021811403D
libRbt.so/2013.1/901 2013/11/27
 42 45  0  0  0  0  0  0  0  0999 V2000
    6.3777   -1.5356   36.9503 C   0  0  2  0  0  0  0  0  0  0  0  0
    5.2523   -0.9324   37.6380 O   0  0  0  0  0  0  0  0  0  0  0  0
    7.5758   -1.7762   37.9427 C   0  0  2  0  0  0  0  0  0  0  0  0
    7.1756   -2.2863   39.2798 N   0  3  0  0  0  0  0  0  0  0  0  0
    8.3716   -0.4818   38.1955 C   0  0  1  0  0  0  0  0  0  0  0  0
    9.5937   -0.7635   38.8741 O   0  0  0  0  0  0  0  0  0  0  0  0
    8.6755    0.2456   36.8771 C   0  0  2  0  0  0  0  0  0  0  0  0
    9.4484    1.4155   37.1266 O   0  0  0  0  0  0  0  0  0  0  0  0
    7.3715    0.5508   36.1073 C   0  0  2  0  0  0  0  0  0  0  0  0
    6.7551   -0.7193   35.8072 O   0  0  0  0  0  0  0  0  0  0  0  0
    7.5806    1.2943   34.7891 C   0  0  0  0  0  0  0  0  0  0  0  0
    8.2545    0.4793   33.8393 O   0  0  0  0  0  0  0  0  0  0  0  0
    3.4721    1.0658   34.3145 C   0  0  1  0  0  0  0  0  0  0  0  0
    2.5678    1.6412   33.3020 N   0  3  0  0  0  0  0  0  0  0  0  0
    3.3126    1.7503   35.7058 C   0  0  2  0  0  0  0  0  0  0  0  0
    3.5821    3.1468   35.6072 O   0  0  0  0  0  0  0  0  0  0  0  0
    4.2858    1.1349   36.7535 C   0  0  1  0  0  0  0  0  0  0  0  0
    3.9730    1.6927   38.0642 O   0  0  0  0  0  0  0  0  0  0  0  0
    4.1768   -0.4239   36.8126 C   0  0  1  0  0  0  0  0  0  0  0  0
    4.2836   -1.0934   35.4051 C   0  0  1  0  0  0  0  0  0  0  0  0
    4.0777   -2.5567   35.4811 N   0  3  0  0  0  0  0  0  0  0  0  0
    3.2556   -0.4718   34.4246 C   0  0  0  0  0  0  0  0  0  0  0  0
    2.6754    1.4207   38.6839 C   0  0  1  0  0  0  0  0  0  0  0  0
    2.0996    2.7433   39.2236 C   0  0  2  0  0  0  0  0  0  0  0  0
    1.1915    2.5067   40.2957 O   0  0  0  0  0  0  0  0  0  0  0  0
    1.3862    3.2316   37.9537 C   0  0  1  0  0  0  0  0  0  0  0  0
    0.7303    1.9605   37.4404 C   0  0  2  0  0  0  0  0  0  0  0  0
    1.7293    0.9841   37.6920 O   0  0  0  0  0  0  0  0  0  0  0  0
    0.3589    1.9720   35.9519 C   0  0  0  0  0  0  0  0  0  0  0  0
    0.8880    0.8220   35.3086 O   0  0  0  0  0  0  0  0  0  0  0  0
   -0.0434    6.8668   34.7170 C   0  0  1  0  0  0  0  0  0  0  0  0
   -1.1005    6.1170   34.1210 O   0  0  0  0  0  0  0  0  0  0  0  0
   -0.5203    7.4335   36.0834 C   0  0  2  0  0  0  0  0  0  0  0  0
    0.3787    8.4643   36.4854 O   0  0  0  0  0  0  0  0  0  0  0  0
   -0.6347    6.3866   37.2396 C   0  0  1  0  0  0  0  0  0  0  0  0
   -1.9468    5.7049   37.1882 N   0  3  0  0  0  0  0  0  0  0  0  0
    0.5578    5.3943   37.2409 C   0  0  1  0  0  0  0  0  0  0  0  0
    0.3962    4.2784   38.1506 O   0  0  0  0  0  0  0  0  0  0  0  0
    1.2002    5.9672   34.9286 C   0  0  1  0  0  0  0  0  0  0  0  0
    0.8367    4.9277   35.8778 O   0  0  0  0  0  0  0  0  0  0  0  0
    1.7559    5.3564   33.6285 C   0  0  0  0  0  0  0  0  0  0  0  0
    2.0354    6.3727   32.5952 N   0  3  0  0  0  0  0  0  0  0  0  0
  1  2  1  1  0  0  0
  1  3  1  0  0  0  0
  1 10  1  0  0  0  0
  3  4  1  1  0  0  0
  3  5  1  0  0  0  0
  5  6  1  6  0  0  0
  5  7  1  0  0  0  0
  7  8  1  1  0  0  0
  7  9  1  0  0  0  0
  9 10  1  0  0  0  0
  9 11  1  6  0  0  0
 11 12  1  0  0  0  0
 13 14  1  6  0  0  0
 13 15  1  0  0  0  0
 13 22  1  0  0  0  0
 15 16  1  6  0  0  0
 15 17  1  0  0  0  0
 17 18  1  1  0  0  0
 17 19  1  0  0  0  0
 19  2  1  1  0  0  0
 19 20  1  0  0  0  0
 20 21  1  1  0  0  0
 20 22  1  0  0  0  0
 23 18  1  6  0  0  0
 23 24  1  0  0  0  0
 23 28  1  0  0  0  0
 24 25  1  1  0  0  0
 24 26  1  0  0  0  0
 26 27  1  0  0  0  0
 26 38  1  1  0  0  0
 27 28  1  0  0  0  0
 27 29  1  6  0  0  0
 29 30  1  0  0  0  0
 31 32  1  1  0  0  0
 31 33  1  0  0  0  0
 31 39  1  0  0  0  0
 33 34  1  1  0  0  0
 33 35  1  0  0  0  0
 35 36  1  6  0  0  0
 35 37  1  0  0  0  0
 37 38  1  1  0  0  0
 37 40  1  0  0  0  0
 39 40  1  0  0  0  0
 39 41  1  6  0  0  0
 41 42  1  0  0  0  0
M  CHG  5   4   1  14   1  21   1  36   1  42   1
M  END
>  <CHROM.1>
168.74072362,-103.54723841,62.75612458,-174.17365082,95.94938853,67.20626278
177.58688146,-51.89587489,-175.43337936,64.33497883,-133.37296319,48.21035124
-58.86825205,130.81737090,128.01915099,24.59505682,75.08522720,76.34419376
34.62489104,168.71296891,53.68523936,-179.44447418,3.41391826,2.15768041
36.41423169,0.48892077,-0.57169874,2.18066417

>  <Name>
1pbr

>  <RI>
0

>  <Rbt.Current_Directory>
/home/itssahil/PROJECTS/Mol_Feturizer/New_Systems/rnas/1pbr

>  <Rbt.Executable>
rbdock ($Id: //depot/dev/client3/rdock/2013.1/src/exe/rbdock.cxx#4 $)

>  <Rbt.Library>
libRbt.so (2013.1, Build901 2013/11/27)

>  <Rbt.Parameter_File>
/export/apps/rDock/src/rDock_2013.1_src/data/scripts/dock_solv.prm

>  <Rbt.Receptor>
prm/blind_docking_40.prm

>  <SCORE>
3.86699

>  <SCORE.INTER>
-12.9834

>  <SCORE.INTER.CONST>
1

>  <SCORE.INTER.POLAR>
-1.68312

>  <SCORE.INTER.ROT>
9

>  <SCORE.INTER.SOLV>
36.007

>  <SCORE.INTER.VDW>
-24.6475

>  <SCORE.INTER.norm>
-0.309128

>  <SCORE.INTRA>
13.2798

>  <SCORE.INTRA.DIHEDRAL>
10.3291

>  <SCORE.INTRA.DIHEDRAL.0>
29.7866

>  <SCORE.INTRA.POLAR>
-0.0526789

>  <SCORE.INTRA.POLAR.0>
-0.984091

>  <SCORE.INTRA.REPUL>
-0.274115

>  <SCORE.INTRA.REPUL.0>
0.274115

>  <SCORE.INTRA.SOLV>
3.84546

>  <SCORE.INTRA.SOLV.lig_0>
-152.978

>  <SCORE.INTRA.VDW>
7.74224

>  <SCORE.INTRA.VDW.0>
-6.10719

>  <SCORE.INTRA.norm>
0.316187

>  <SCORE.RESTR>
3.57053

>  <SCORE.RESTR.CAVITY>
3.57053

>  <SCORE.RESTR.norm>
0.0850127

>  <SCORE.SYSTEM>
0

>  <SCORE.SYSTEM.CONST>
0

>  <SCORE.SYSTEM.DIHEDRAL>
0

>  <SCORE.SYSTEM.SOLV>
0

>  <SCORE.SYSTEM.norm>
0

>  <SCORE.heavy>
42

>  <SCORE.norm>
0.0920713

>  <RMSD>
8.642

$$$$
1pbr
 OpenBabel11021811403D
libRbt.so/2013.1/901 2013/11/27
 42 45  0  0  0  0  0  0  0  0999 V2000
    3.6108   -2.4429   42.3862 C   0  0  2  0  0  0  0  0  0  0  0  0
    4.6160   -2.2219   41.3645 O   0  0  0  0  0  0  0  0  0  0  0  0
    2.4721   -1.3598   42.2939 C   0  0  2  0  0  0  0  0  0  0  0  0
    2.0482   -1.0278   40.9089 N   0  3  0  0  0  0  0  0  0  0  0  0
    2.8996   -0.0305   42.9442 C   0  0  1  0  0  0  0  0  0  0  0  0
    1.7827    0.8439   43.0900 O   0  0  0  0  0  0  0  0  0  0  0  0
    3.5432   -0.2702   44.3183 C   0  0  2  0  0  0  0  0  0  0  0  0
    3.8918    0.9714   44.9225 O   0  0  0  0  0  0  0  0  0  0  0  0
    4.7485   -1.2290   44.1983 C   0  0  2  0  0  0  0  0  0  0  0  0
    4.2380   -2.4829   43.6978 O   0  0  0  0  0  0  0  0  0  0  0  0
    5.4629   -1.5069   45.5199 C   0  0  0  0  0  0  0  0  0  0  0  0
    6.5715   -2.3767   45.3331 O   0  0  0  0  0  0  0  0  0  0  0  0
    5.9380   -4.6921   38.1460 C   0  0  1  0  0  0  0  0  0  0  0  0
    6.5035   -5.7469   37.2850 N   0  3  0  0  0  0  0  0  0  0  0  0
    4.6785   -5.1781   38.9252 C   0  0  2  0  0  0  0  0  0  0  0  0
    3.6657   -5.6052   38.0172 O   0  0  0  0  0  0  0  0  0  0  0  0
    4.0928   -4.0441   39.8166 C   0  0  1  0  0  0  0  0  0  0  0  0
    3.0293   -4.6034   40.6431 O   0  0  0  0  0  0  0  0  0  0  0  0
    5.1802   -3.3980   40.7359 C   0  0  1  0  0  0  0  0  0  0  0  0
    6.4595   -2.9653   39.9505 C   0  0  1  0  0  0  0  0  0  0  0  0
    7.5078   -2.4501   40.8589 N   0  3  0  0  0  0  0  0  0  0  0  0
    7.0213   -4.1513   39.1246 C   0  0  0  0  0  0  0  0  0  0  0  0
    1.6569   -4.6488   40.1368 C   0  0  1  0  0  0  0  0  0  0  0  0
    0.9915   -5.9468   40.6314 C   0  0  2  0  0  0  0  0  0  0  0  0
   -0.0639   -6.3450   39.7609 O   0  0  0  0  0  0  0  0  0  0  0  0
    0.4702   -5.4486   41.9879 C   0  0  1  0  0  0  0  0  0  0  0  0
   -0.0867   -4.0784   41.6387 C   0  0  2  0  0  0  0  0  0  0  0  0
    0.8749   -3.5895   40.7163 O   0  0  0  0  0  0  0  0  0  0  0  0
   -0.2316   -3.1113   42.8208 C   0  0  0  0  0  0  0  0  0  0  0  0
   -1.0130   -3.7078   43.8455 O   0  0  0  0  0  0  0  0  0  0  0  0
    0.1724   -9.6589   45.2029 C   0  0  1  0  0  0  0  0  0  0  0  0
   -0.8052   -9.2922   46.1748 O   0  0  0  0  0  0  0  0  0  0  0  0
   -0.5322   -9.9545   43.8494 C   0  0  2  0  0  0  0  0  0  0  0  0
    0.3757  -10.6659   43.0114 O   0  0  0  0  0  0  0  0  0  0  0  0
   -1.0514   -8.6983   43.0761 C   0  0  1  0  0  0  0  0  0  0  0  0
   -2.3932   -8.3115   43.5651 N   0  3  0  0  0  0  0  0  0  0  0  0
   -0.0342   -7.5280   43.1254 C   0  0  1  0  0  0  0  0  0  0  0  0
   -0.5503   -6.2752   42.6124 O   0  0  0  0  0  0  0  0  0  0  0  0
    1.2018   -8.5157   45.0186 C   0  0  1  0  0  0  0  0  0  0  0  0
    0.4921   -7.3643   44.4854 O   0  0  0  0  0  0  0  0  0  0  0  0
    1.9608   -8.1471   46.3070 C   0  0  0  0  0  0  0  0  0  0  0  0
    1.0599   -7.7371   47.4019 N   0  3  0  0  0  0  0  0  0  0  0  0
  1  2  1  6  0  0  0
  1  3  1  0  0  0  0
  1 10  1  0  0  0  0
  3  4  1  6  0  0  0
  3  5  1  0  0  0  0
  5  6  1  1  0  0  0
  5  7  1  0  0  0  0
  7  8  1  6  0  0  0
  7  9  1  0  0  0  0
  9 10  1  0  0  0  0
  9 11  1  1  0  0  0
 11 12  1  0  0  0  0
 13 14  1  1  0  0  0
 13 15  1  0  0  0  0
 13 22  1  0  0  0  0
 15 16  1  6  0  0  0
 15 17  1  0  0  0  0
 17 18  1  1  0  0  0
 17 19  1  0  0  0  0
 19  2  1  6  0  0  0
 19 20  1  0  0  0  0
 20 21  1  1  0  0  0
 20 22  1  0  0  0  0
 23 18  1  1  0  0  0
 23 24  1  0  0  0  0
 23 28  1  0  0  0  0
 24 25  1  6  0  0  0
 24 26  1  0  0  0  0
 26 27  1  0  0  0  0
 26 38  1  6  0  0  0
 27 28  1  0  0  0  0
 27 29  1  1  0  0  0
 29 30  1  0  0  0  0
 31 32  1  1  0  0  0
 31 33  1  0  0  0  0
 31 39  1  0  0  0  0
 33 34  1  6  0  0  0
 33 35  1  0  0  0  0
 35 36  1  1  0  0  0
 35 37  1  0  0  0  0
 37 38  1  1  0  0  0
 37 40  1  0  0  0  0
 39 40  1  0  0  0  0
 39 41  1  1  0  0  0
 41 42  1  0  0  0  0
M  CHG  5   4   1  14   1  21   1  36   1  42   1
M  END
>  <CHROM.1>
-141.73068007,70.98046234,71.45881764,-164.13888334,75.66125539,-179.05582519
-54.61342059,62.81250960,41.72188147,-88.07547016,143.56572947,-45.07688535
72.01705494,71.78395647,-54.86923308,-66.24574108,71.15783698,-56.66270048
-63.60917373,-148.38373044,-58.15401597,17.06098750,2.41905534,-4.64103315
42.39935424,0.33017939,0.87815228,0.75620225

>  <Name>
1pbr

>  <RI>
0

>  <Rbt.Current_Directory>
/home/itssahil/PROJECTS/Mol_Feturizer/New_Systems/rnas/1pbr

>  <Rbt.Executable>
rbdock ($Id: //depot/dev/client3/rdock/2013.1/src/exe/rbdock.cxx#4 $)

>  <Rbt.Library>
libRbt.so (2013.1, Build901 2013/11/27)

>  <Rbt.Parameter_File>
/export/apps/rDock/src/rDock_2013.1_src/data/scripts/dock_solv.prm

>  <Rbt.Receptor>
prm/pocket_docking_6.prm

>  <SCORE>
-37.729

>  <SCORE.INTER>
-32.674

>  <SCORE.INTER.CONST>
1

>  <SCORE.INTER.POLAR>
-6.4933

>  <SCORE.INTER.ROT>
9

>  <SCORE.INTER.SOLV>
18.5486

>  <SCORE.INTER.VDW>
-15.9212

>  <SCORE.INTER.norm>
-0.777951

>  <SCORE.INTRA>
-5.12988

>  <SCORE.INTRA.DIHEDRAL>
-1.64386

>  <SCORE.INTRA.DIHEDRAL.0>
29.7866

>  <SCORE.INTRA.POLAR>
-1.10665

>  <SCORE.INTRA.POLAR.0>
-0.984091

>  <SCORE.INTRA.REPUL>
-0.274115

>  <SCORE.INTRA.REPUL.0>
0.274115

>  <SCORE.INTRA.SOLV>
1.67617

>  <SCORE.INTRA.SOLV.lig_0>
-152.978

>  <SCORE.INTRA.VDW>
-0.0128536

>  <SCORE.INTRA.VDW.0>
-6.10719

>  <SCORE.INTRA.norm>
-0.12214

>  <SCORE.RESTR>
0.0748199

>  <SCORE.RESTR.CAVITY>
0.0748199

>  <SCORE.RESTR.norm>
0.00178143

>  <SCORE.SYSTEM>
0

>  <SCORE.SYSTEM.CONST>
0

>  <SCORE.SYSTEM.DIHEDRAL>
0

>  <SCORE.SYSTEM.SOLV>
0

>  <SCORE.SYSTEM.norm>
0

>  <SCORE.heavy>
42

>  <SCORE.norm>
-0.89831

>  <RMSD>
8.648

$$$$
1pbr
 OpenBabel11021811403D
libRbt.so/2013.1/901 2013/11/27
 42 45  0  0  0  0  0  0  0  0999 V2000
   -0.0014    2.6418   36.8451 C   0  0  2  0  0  0  0  0  0  0  0  0
    0.3065    1.4205   36.1263 O   0  0  0  0  0  0  0  0  0  0  0  0
   -1.1686    3.4273   36.1388 C   0  0  2  0  0  0  0  0  0  0  0  0
   -2.2765    2.5700   35.6428 N   0  3  0  0  0  0  0  0  0  0  0  0
   -0.6613    4.2232   34.9214 C   0  0  1  0  0  0  0  0  0  0  0  0
   -1.6605    5.1281   34.4564 O   0  0  0  0  0  0  0  0  0  0  0  0
    0.6151    5.0052   35.2663 C   0  0  2  0  0  0  0  0  0  0  0  0
    1.0442    5.7683   34.1431 O   0  0  0  0  0  0  0  0  0  0  0  0
    1.7143    4.0548   35.7908 C   0  0  2  0  0  0  0  0  0  0  0  0
    1.2016    3.4454   36.9946 O   0  0  0  0  0  0  0  0  0  0  0  0
    3.0298    4.7490   36.1394 C   0  0  0  0  0  0  0  0  0  0  0  0
    3.0930    5.0678   37.5232 O   0  0  0  0  0  0  0  0  0  0  0  0
    3.2421   -1.6741   36.2466 C   0  0  1  0  0  0  0  0  0  0  0  0
    4.4644   -2.4888   36.3736 N   0  3  0  0  0  0  0  0  0  0  0  0
    2.7547   -1.1225   37.6207 C   0  0  2  0  0  0  0  0  0  0  0  0
    2.4859   -2.1952   38.5205 O   0  0  0  0  0  0  0  0  0  0  0  0
    1.4571   -0.2771   37.4623 C   0  0  1  0  0  0  0  0  0  0  0  0
    1.1488    0.3478   38.7435 O   0  0  0  0  0  0  0  0  0  0  0  0
    1.6061    0.8291   36.3671 C   0  0  1  0  0  0  0  0  0  0  0  0
    2.1472    0.2717   35.0116 C   0  0  1  0  0  0  0  0  0  0  0  0
    2.3716    1.3546   34.0285 N   0  3  0  0  0  0  0  0  0  0  0  0
    3.4651   -0.5153   35.2312 C   0  0  0  0  0  0  0  0  0  0  0  0
    1.9178    1.5082   39.1950 C   0  0  1  0  0  0  0  0  0  0  0  0
    2.0119    1.4699   40.7318 C   0  0  2  0  0  0  0  0  0  0  0  0
    2.2069    2.7765   41.2656 O   0  0  0  0  0  0  0  0  0  0  0  0
    3.2631    0.5902   40.8748 C   0  0  1  0  0  0  0  0  0  0  0  0
    4.1818    1.1553   39.8041 C   0  0  2  0  0  0  0  0  0  0  0  0
    3.2791    1.4137   38.7396 O   0  0  0  0  0  0  0  0  0  0  0  0
    5.2996    0.2133   39.3385 C   0  0  0  0  0  0  0  0  0  0  0  0
    6.2587    0.0467   40.3723 O   0  0  0  0  0  0  0  0  0  0  0  0
    1.4733   -0.6546   45.5111 C   0  0  1  0  0  0  0  0  0  0  0  0
    2.0205   -1.9702   45.5785 O   0  0  0  0  0  0  0  0  0  0  0  0
    2.5881    0.3837   45.8189 C   0  0  2  0  0  0  0  0  0  0  0  0
    1.9728    1.6350   46.1161 O   0  0  0  0  0  0  0  0  0  0  0  0
    3.6377    0.5973   44.6795 C   0  0  1  0  0  0  0  0  0  0  0  0
    4.7100   -0.4181   44.7709 N   0  3  0  0  0  0  0  0  0  0  0  0
    2.9703    0.6412   43.2797 C   0  0  1  0  0  0  0  0  0  0  0  0
    3.9098    0.6218   42.1769 O   0  0  0  0  0  0  0  0  0  0  0  0
    0.8849   -0.3891   44.1026 C   0  0  1  0  0  0  0  0  0  0  0  0
    1.9821   -0.4358   43.1499 O   0  0  0  0  0  0  0  0  0  0  0  0
   -0.2356   -1.3664   43.7010 C   0  0  0  0  0  0  0  0  0  0  0  0
   -0.2982   -1.5944   42.2441 N   0  3  0  0  0  0  0  0  0  0  0  0
  1  2  1  6  0  0  0
  1  3  1  0  0  0  0
  1 10  1  0  0  0  0
  3  4  1  6  0  0  0
  3  5  1  0  0  0  0
  5  6  1  1  0  0  0
  5  7  1  0  0  0  0
  7  8  1  6  0  0  0
  7  9  1  0  0  0  0
  9 10  1  0  0  0  0
  9 11  1  1  0  0  0
 11 12  1  0  0  0  0
 13 14  1  1  0  0  0
 13 15  1  0  0  0  0
 13 22  1  0  0  0  0
 15 16  1  1  0  0  0
 15 17  1  0  0  0  0
 17 18  1  1  0  0  0
 17 19  1  0  0  0  0
 19  2  1  6  0  0  0
 19 20  1  0  0  0  0
 20 21  1  6  0  0  0
 20 22  1  0  0  0  0
 23 18  1  6  0  0  0
 23 24  1  0  0  0  0
 23 28  1  0  0  0  0
 24 25  1  6  0  0  0
 24 26  1  0  0  0  0
 26 27  1  0  0  0  0
 26 38  1  1  0  0  0
 27 28  1  0  0  0  0
 27 29  1  6  0  0  0
 29 30  1  0  0  0  0
 31 32  1  6  0  0  0
 31 33  1  0  0  0  0
 31 39  1  0  0  0  0
 33 34  1  6  0  0  0
 33 35  1  0  0  0  0
 35 36  1  6  0  0  0
 35 37  1  0  0  0  0
 37 38  1  6  0  0  0
 37 40  1  0  0  0  0
 39 40  1  0  0  0  0
 39 41  1  6  0  0  0
 41 42  1  0  0  0  0
M  CHG  5   4   1  14   1  21   1  36   1  42   1
M  END
>  <CHROM.1>
159.94768505,95.68802876,-79.01556263,-169.54543670,-53.79896020,95.09269510
-81.00258880,-178.46428517,178.57723857,76.00911181,-147.61540528,-177.92033883
90.03982066,39.93519106,-69.72863732,-82.87922115,71.09999848,57.78534294
-7.92384916,176.85038781,-150.02338753,-172.49431996,2.01595076,1.15138188
39.22106743,1.85860289,0.88666623,-1.42309198

>  <Name>
1pbr

>  <RI>
0

>  <Rbt.Current_Directory>
/home/itssahil/PROJECTS/Mol_Feturizer/New_Systems/rnas/1pbr

>  <Rbt.Executable>
rbdock ($Id: //depot/dev/client3/rdock/2013.1/src/exe/rbdock.cxx#4 $)

>  <Rbt.Library>
libRbt.so (2013.1, Build901 2013/11/27)

>  <Rbt.Parameter_File>
/export/apps/rDock/src/rDock_2013.1_src/data/scripts/dock_solv.prm

>  <Rbt.Receptor>
prm/blind_docking_100.prm

>  <SCORE>
-38.912

>  <SCORE.INTER>
-45.6235

>  <SCORE.INTER.CONST>
1

>  <SCORE.INTER.POLAR>
-7.63564

>  <SCORE.INTER.ROT>
9

>  <SCORE.INTER.SOLV>
41.0883

>  <SCORE.INTER.VDW>
-28.2596

>  <SCORE.INTER.norm>
-1.08627

>  <SCORE.INTRA>
4.24379

>  <SCORE.INTRA.DIHEDRAL>
4.25374

>  <SCORE.INTRA.DIHEDRAL.0>
29.7866

>  <SCORE.INTRA.POLAR>
0.977716

>  <SCORE.INTRA.POLAR.0>
-0.984091

>  <SCORE.INTRA.REPUL>
-0.274115

>  <SCORE.INTRA.REPUL.0>
0.274115

>  <SCORE.INTRA.SOLV>
-0.0418681

>  <SCORE.INTRA.SOLV.lig_0>
-152.978

>  <SCORE.INTRA.VDW>
0.184199

>  <SCORE.INTRA.VDW.0>
-6.10719

>  <SCORE.INTRA.norm>
0.101043

>  <SCORE.RESTR>
2.46771

>  <SCORE.RESTR.CAVITY>
2.46771

>  <SCORE.RESTR.norm>
0.058755

>  <SCORE.SYSTEM>
0

>  <SCORE.SYSTEM.CONST>
0

>  <SCORE.SYSTEM.DIHEDRAL>
0

>  <SCORE.SYSTEM.SOLV>
0

>  <SCORE.SYSTEM.norm>
0

>  <SCORE.heavy>
42

>  <SCORE.norm>
-0.926475

>  <RMSD>
8.677

$$$$
1pbr
 OpenBabel11021811403D
libRbt.so/2013.1/901 2013/11/27
 42 45  0  0  0  0  0  0  0  0999 V2000
    4.6386    0.4391   37.6402 C   0  0  2  0  0  0  0  0  0  0  0  0
    3.9097    1.1555   36.6113 O   0  0  0  0  0  0  0  0  0  0  0  0
    6.1215    0.1660   37.1878 C   0  0  2  0  0  0  0  0  0  0  0  0
    6.7715    1.3040   36.4872 N   0  3  0  0  0  0  0  0  0  0  0  0
    6.2099   -1.0371   36.2300 C   0  0  1  0  0  0  0  0  0  0  0  0
    7.5661   -1.4346   36.0407 O   0  0  0  0  0  0  0  0  0  0  0  0
    5.3985   -2.2276   36.7631 C   0  0  2  0  0  0  0  0  0  0  0  0
    5.5274   -3.3434   35.8876 O   0  0  0  0  0  0  0  0  0  0  0  0
    3.9253   -1.8253   36.9961 C   0  0  2  0  0  0  0  0  0  0  0  0
    3.9288   -0.7806   37.9920 O   0  0  0  0  0  0  0  0  0  0  0  0
    3.0389   -2.9594   37.5083 C   0  0  0  0  0  0  0  0  0  0  0  0
    1.7878   -2.4671   37.9698 O   0  0  0  0  0  0  0  0  0  0  0  0
   -0.1484    2.4560   36.3911 C   0  0  1  0  0  0  0  0  0  0  0  0
   -1.6168    2.5724   36.3255 N   0  3  0  0  0  0  0  0  0  0  0  0
    0.3411    1.9326   37.7753 C   0  0  2  0  0  0  0  0  0  0  0  0
   -0.0853    2.8072   38.8173 O   0  0  0  0  0  0  0  0  0  0  0  0
    1.8938    1.8305   37.8241 C   0  0  1  0  0  0  0  0  0  0  0  0
    2.2790    1.1794   39.0710 O   0  0  0  0  0  0  0  0  0  0  0  0
    2.4680    1.0207   36.6160 C   0  0  1  0  0  0  0  0  0  0  0  0
    1.9267    1.5206   35.2384 C   0  0  1  0  0  0  0  0  0  0  0  0
    2.4085    0.6740   34.1245 N   0  3  0  0  0  0  0  0  0  0  0  0
    0.3764    1.5508   35.2385 C   0  0  0  0  0  0  0  0  0  0  0  0
    1.7888    1.6982   40.3487 C   0  0  1  0  0  0  0  0  0  0  0  0
    1.4728    0.5091   41.2751 C   0  0  2  0  0  0  0  0  0  0  0  0
    0.4945    0.8642   42.2483 O   0  0  0  0  0  0  0  0  0  0  0  0
    2.8643    0.3098   41.8946 C   0  0  1  0  0  0  0  0  0  0  0  0
    3.3043    1.7378   42.1715 C   0  0  2  0  0  0  0  0  0  0  0  0
    2.8291    2.4263   41.0249 O   0  0  0  0  0  0  0  0  0  0  0  0
    4.8178    1.9372   42.3240 C   0  0  0  0  0  0  0  0  0  0  0  0
    5.4564    1.8044   41.0627 O   0  0  0  0  0  0  0  0  0  0  0  0
    1.2814    0.5989   46.9677 C   0  0  1  0  0  0  0  0  0  0  0  0
    0.7736   -0.7000   47.2673 O   0  0  0  0  0  0  0  0  0  0  0  0
    2.8302    0.5335   46.8558 C   0  0  2  0  0  0  0  0  0  0  0  0
    3.3468    1.8602   46.9313 O   0  0  0  0  0  0  0  0  0  0  0  0
    3.3802   -0.1473   45.5598 C   0  0  1  0  0  0  0  0  0  0  0  0
    3.4402   -1.6151   45.7356 N   0  3  0  0  0  0  0  0  0  0  0  0
    2.5779    0.2741   44.3006 C   0  0  1  0  0  0  0  0  0  0  0  0
    2.9039   -0.4860   43.1111 O   0  0  0  0  0  0  0  0  0  0  0  0
    0.6817    1.1161   45.6360 C   0  0  1  0  0  0  0  0  0  0  0  0
    1.1368    0.2329   44.5745 O   0  0  0  0  0  0  0  0  0  0  0  0
   -0.8548    1.2217   45.6441 C   0  0  0  0  0  0  0  0  0  0  0  0
   -1.3956    1.5648   46.9739 N   0  3  0  0  0  0  0  0  0  0  0  0
  1  2  1  6  0  0  0
  1  3  1  0  0  0  0
  1 10  1  0  0  0  0
  3  4  1  6  0  0  0
  3  5  1  0  0  0  0
  5  6  1  1  0  0  0
  5  7  1  0  0  0  0
  7  8  1  6  0  0  0
  7  9  1  0  0  0  0
  9 10  1  0  0  0  0
  9 11  1  1  0  0  0
 11 12  1  0  0  0  0
 13 14  1  1  0  0  0
 13 15  1  0  0  0  0
 13 22  1  0  0  0  0
 15 16  1  1  0  0  0
 15 17  1  0  0  0  0
 17 18  1  1  0  0  0
 17 19  1  0  0  0  0
 19  2  1  6  0  0  0
 19 20  1  0  0  0  0
 20 21  1  6  0  0  0
 20 22  1  0  0  0  0
 23 18  1  6  0  0  0
 23 24  1  0  0  0  0
 23 28  1  0  0  0  0
 24 25  1  1  0  0  0
 24 26  1  0  0  0  0
 26 27  1  0  0  0  0
 26 38  1  1  0  0  0
 27 28  1  0  0  0  0
 27 29  1  6  0  0  0
 29 30  1  0  0  0  0
 31 32  1  6  0  0  0
 31 33  1  0  0  0  0
 31 39  1  0  0  0  0
 33 34  1  6  0  0  0
 33 35  1  0  0  0  0
 35 36  1  1  0  0  0
 35 37  1  0  0  0  0
 37 38  1  6  0  0  0
 37 40  1  0  0  0  0
 39 40  1  0  0  0  0
 39 41  1  1  0  0  0
 41 42  1  0  0  0  0
M  CHG  5   4   1  14   1  21   1  36   1  42   1
M  END
>  <CHROM.1>
156.05615174,72.62564042,-156.68121502,65.17956329,-177.69781914,167.50280163
52.10671198,-28.32446607,71.88160721,-53.38089025,141.78269572,-170.69256613
-60.94986227,-82.28579673,71.77991507,-57.15668958,59.50545256,-176.82342016
-72.56508665,-144.25363583,32.53205821,-46.92814487,2.65920863,0.46870207
40.31750934,-1.31539857,-0.47557623,1.62098844

>  <Name>
1pbr

>  <RI>
0

>  <Rbt.Current_Directory>
/home/itssahil/PROJECTS/Mol_Feturizer/New_Systems/rnas/1pbr

>  <Rbt.Executable>
rbdock ($Id: //depot/dev/client3/rdock/2013.1/src/exe/rbdock.cxx#4 $)

>  <Rbt.Library>
libRbt.so (2013.1, Build901 2013/11/27)

>  <Rbt.Parameter_File>
/export/apps/rDock/src/rDock_2013.1_src/data/scripts/dock_solv.prm

>  <Rbt.Receptor>
prm/blind_docking_100.prm

>  <SCORE>
-32.3798

>  <SCORE.INTER>
-36.6301

>  <SCORE.INTER.CONST>
1

>  <SCORE.INTER.POLAR>
-4.12977

>  <SCORE.INTER.ROT>
9

>  <SCORE.INTER.SOLV>
47.5891

>  <SCORE.INTER.VDW>
-36.1172

>  <SCORE.INTER.norm>
-0.872146

>  <SCORE.INTRA>
3.94843

>  <SCORE.INTRA.DIHEDRAL>
-5.11766

>  <SCORE.INTRA.DIHEDRAL.0>
29.7866

>  <SCORE.INTRA.POLAR>
0.828727

>  <SCORE.INTRA.POLAR.0>
-0.984091

>  <SCORE.INTRA.REPUL>
-0.196745

>  <SCORE.INTRA.REPUL.0>
0.274115

>  <SCORE.INTRA.SOLV>
-1.49171

>  <SCORE.INTRA.SOLV.lig_0>
-152.978

>  <SCORE.INTRA.VDW>
5.41917

>  <SCORE.INTRA.VDW.0>
-6.10719

>  <SCORE.INTRA.norm>
0.0940103

>  <SCORE.RESTR>
0.30185

>  <SCORE.RESTR.CAVITY>
0.30185

>  <SCORE.RESTR.norm>
0.00718691

>  <SCORE.SYSTEM>
0

>  <SCORE.SYSTEM.CONST>
0

>  <SCORE.SYSTEM.DIHEDRAL>
0

>  <SCORE.SYSTEM.SOLV>
0

>  <SCORE.SYSTEM.norm>
0

>  <SCORE.heavy>
42

>  <SCORE.norm>
-0.770948

>  <RMSD>
8.678

$$$$
1pbr
 OpenBabel11021811403D
libRbt.so/2013.1/901 2013/11/27
 42 45  0  0  0  0  0  0  0  0999 V2000
    3.8493    0.1094   40.7695 C   0  0  2  0  0  0  0  0  0  0  0  0
    3.4446    0.9568   39.6644 O   0  0  0  0  0  0  0  0  0  0  0  0
    5.3125    0.4574   41.2344 C   0  0  2  0  0  0  0  0  0  0  0  0
    5.6161    1.9115   41.2769 N   0  3  0  0  0  0  0  0  0  0  0  0
    6.3677   -0.1764   40.3084 C   0  0  1  0  0  0  0  0  0  0  0  0
    7.6692   -0.0786   40.8828 O   0  0  0  0  0  0  0  0  0  0  0  0
    6.0424   -1.6515   40.0293 C   0  0  2  0  0  0  0  0  0  0  0  0
    7.0509   -2.2318   39.2082 O   0  0  0  0  0  0  0  0  0  0  0  0
    4.6294   -1.7948   39.4214 C   0  0  2  0  0  0  0  0  0  0  0  0
    3.6984   -1.2897   40.4020 O   0  0  0  0  0  0  0  0  0  0  0  0
    4.2310   -3.2325   39.0924 C   0  0  0  0  0  0  0  0  0  0  0  0
    5.1419   -3.8221   38.1741 O   0  0  0  0  0  0  0  0  0  0  0  0
   -0.5537    2.0649   38.6674 C   0  0  1  0  0  0  0  0  0  0  0  0
   -1.9450    2.1377   38.1848 N   0  3  0  0  0  0  0  0  0  0  0  0
   -0.3842    1.0385   39.8281 C   0  0  2  0  0  0  0  0  0  0  0  0
   -1.2214    1.3882   40.9278 O   0  0  0  0  0  0  0  0  0  0  0  0
    1.0891    0.9892   40.3285 C   0  0  1  0  0  0  0  0  0  0  0  0
    1.2190   -0.1012   41.2883 O   0  0  0  0  0  0  0  0  0  0  0  0
    2.1012    0.7730   39.1563 C   0  0  1  0  0  0  0  0  0  0  0  0
    1.8849    1.7732   37.9758 C   0  0  1  0  0  0  0  0  0  0  0  0
    2.7896    1.4810   36.8419 N   0  3  0  0  0  0  0  0  0  0  0  0
    0.4123    1.7371   37.4914 C   0  0  0  0  0  0  0  0  0  0  0  0
    1.3022    0.1908   42.7200 C   0  0  1  0  0  0  0  0  0  0  0  0
    0.1116   -0.4800   43.4302 C   0  0  2  0  0  0  0  0  0  0  0  0
   -0.2081    0.1959   44.6430 O   0  0  0  0  0  0  0  0  0  0  0  0
    0.7292   -1.8641   43.6808 C   0  0  1  0  0  0  0  0  0  0  0  0
    2.1345   -1.5143   44.1416 C   0  0  2  0  0  0  0  0  0  0  0  0
    2.4686   -0.4293   43.2897 O   0  0  0  0  0  0  0  0  0  0  0  0
    3.1673   -2.6400   44.0013 C   0  0  0  0  0  0  0  0  0  0  0  0
    3.2353   -3.0735   42.6508 O   0  0  0  0  0  0  0  0  0  0  0  0
    0.7252   -6.8257   45.7158 C   0  0  1  0  0  0  0  0  0  0  0  0
    0.2279   -6.7083   47.0476 O   0  0  0  0  0  0  0  0  0  0  0  0
   -0.4237   -6.5380   44.7094 C   0  0  2  0  0  0  0  0  0  0  0  0
   -0.0307   -7.0139   43.4243 O   0  0  0  0  0  0  0  0  0  0  0  0
   -0.8435   -5.0368   44.5831 C   0  0  1  0  0  0  0  0  0  0  0  0
   -1.8239   -4.6866   45.6344 N   0  3  0  0  0  0  0  0  0  0  0  0
    0.3868   -4.0918   44.5708 C   0  0  1  0  0  0  0  0  0  0  0  0
    0.0522   -2.6857   44.6714 O   0  0  0  0  0  0  0  0  0  0  0  0
    1.8856   -5.8251   45.4856 C   0  0  1  0  0  0  0  0  0  0  0  0
    1.3427   -4.4825   45.6134 O   0  0  0  0  0  0  0  0  0  0  0  0
    3.0814   -6.0287   46.4347 C   0  0  0  0  0  0  0  0  0  0  0  0
    4.1888   -5.0908   46.1657 N   0  3  0  0  0  0  0  0  0  0  0  0
  1  2  1  6  0  0  0
  1  3  1  0  0  0  0
  1 10  1  0  0  0  0
  3  4  1  6  0  0  0
  3  5  1  0  0  0  0
  5  6  1  1  0  0  0
  5  7  1  0  0  0  0
  7  8  1  6  0  0  0
  7  9  1  0  0  0  0
  9 10  1  0  0  0  0
  9 11  1  1  0  0  0
 11 12  1  0  0  0  0
 13 14  1  6  0  0  0
 13 15  1  0  0  0  0
 13 22  1  0  0  0  0
 15 16  1  1  0  0  0
 15 17  1  0  0  0  0
 17 18  1  1  0  0  0
 17 19  1  0  0  0  0
 19  2  1  1  0  0  0
 19 20  1  0  0  0  0
 20 21  1  6  0  0  0
 20 22  1  0  0  0  0
 23 18  1  6  0  0  0
 23 24  1  0  0  0  0
 23 28  1  0  0  0  0
 24 25  1  1  0  0  0
 24 26  1  0  0  0  0
 26 27  1  0  0  0  0
 26 38  1  1  0  0  0
 27 28  1  0  0  0  0
 27 29  1  6  0  0  0
 29 30  1  0  0  0  0
 31 32  1  1  0  0  0
 31 33  1  0  0  0  0
 31 39  1  0  0  0  0
 33 34  1  6  0  0  0
 33 35  1  0  0  0  0
 35 36  1  1  0  0  0
 35 37  1  0  0  0  0
 37 38  1  1  0  0  0
 37 40  1  0  0  0  0
 39 40  1  0  0  0  0
 39 41  1  1  0  0  0
 41 42  1  0  0  0  0
M  CHG  5   4   1  14   1  21   1  36   1  42   1
M  END
>  <CHROM.1>
-178.30086073,57.46791181,-175.87351785,176.45698644,-162.38988603,-58.64484833
-170.20311531,33.74425214,-66.33185392,-104.26436862,119.19301677,-61.44248921
63.31046189,161.42924809,57.18613474,64.62901903,-164.78761135,69.87380385
95.02458299,-131.69178601,178.18438504,62.79664584,2.16635864,-1.73184397
41.99859079,-1.31787489,-0.26212769,2.40183691

>  <Name>
1pbr

>  <RI>
0

>  <Rbt.Current_Directory>
/home/itssahil/PROJECTS/Mol_Feturizer/New_Systems/rnas/1pbr

>  <Rbt.Executable>
rbdock ($Id: //depot/dev/client3/rdock/2013.1/src/exe/rbdock.cxx#4 $)

>  <Rbt.Library>
libRbt.so (2013.1, Build901 2013/11/27)

>  <Rbt.Parameter_File>
/export/apps/rDock/src/rDock_2013.1_src/data/scripts/dock_solv.prm

>  <Rbt.Receptor>
prm/pocket_docking_8.prm

>  <SCORE>
-45.5892

>  <SCORE.INTER>
-40.7421

>  <SCORE.INTER.CONST>
1

>  <SCORE.INTER.POLAR>
-5.99569

>  <SCORE.INTER.ROT>
9

>  <SCORE.INTER.SOLV>
32.6758

>  <SCORE.INTER.VDW>
-27.6677

>  <SCORE.INTER.norm>
-0.97005

>  <SCORE.INTRA>
-4.84715

>  <SCORE.INTRA.DIHEDRAL>
-0.0916752

>  <SCORE.INTRA.DIHEDRAL.0>
29.7866

>  <SCORE.INTRA.POLAR>
-1.01067

>  <SCORE.INTRA.POLAR.0>
-0.984091

>  <SCORE.INTRA.REPUL>
-0.274115

>  <SCORE.INTRA.REPUL.0>
0.274115

>  <SCORE.INTRA.SOLV>
-2.75621

>  <SCORE.INTRA.SOLV.lig_0>
-152.978

>  <SCORE.INTRA.VDW>
1.38363

>  <SCORE.INTRA.VDW.0>
-6.10719

>  <SCORE.INTRA.norm>
-0.115408

>  <SCORE.RESTR>
0

>  <SCORE.RESTR.CAVITY>
0

>  <SCORE.RESTR.norm>
0

>  <SCORE.SYSTEM>
0

>  <SCORE.SYSTEM.CONST>
0

>  <SCORE.SYSTEM.DIHEDRAL>
0

>  <SCORE.SYSTEM.SOLV>
0

>  <SCORE.SYSTEM.norm>
0

>  <SCORE.heavy>
42

>  <SCORE.norm>
-1.08546

>  <RMSD>
8.678

$$$$
1pbr
 OpenBabel11021811403D
libRbt.so/2013.1/901 2013/11/27
 42 45  0  0  0  0  0  0  0  0999 V2000
    3.9200   -3.9463   37.2722 C   0  0  2  0  0  0  0  0  0  0  0  0
    4.1337   -2.6510   37.8884 O   0  0  0  0  0  0  0  0  0  0  0  0
    2.7759   -4.7354   38.0116 C   0  0  2  0  0  0  0  0  0  0  0  0
    1.6051   -3.9057   38.3975 N   0  3  0  0  0  0  0  0  0  0  0  0
    3.2860   -5.3911   39.3087 C   0  0  1  0  0  0  0  0  0  0  0  0
    2.3245   -6.3099   39.8233 O   0  0  0  0  0  0  0  0  0  0  0  0
    4.6156   -6.1228   39.0713 C   0  0  2  0  0  0  0  0  0  0  0  0
    5.0489   -6.7587   40.2697 O   0  0  0  0  0  0  0  0  0  0  0  0
    5.6763   -5.1580   38.4965 C   0  0  2  0  0  0  0  0  0  0  0  0
    5.1710   -4.6869   37.2292 O   0  0  0  0  0  0  0  0  0  0  0  0
    7.0400   -5.8005   38.2487 C   0  0  0  0  0  0  0  0  0  0  0  0
    7.5902   -6.3212   39.4515 O   0  0  0  0  0  0  0  0  0  0  0  0
    6.0853    0.8673   36.4670 C   0  0  1  0  0  0  0  0  0  0  0  0
    6.5536    2.0421   35.7089 N   0  3  0  0  0  0  0  0  0  0  0  0
    4.6243    1.0409   36.9818 C   0  0  2  0  0  0  0  0  0  0  0  0
    4.5268    2.1859   37.8257 O   0  0  0  0  0  0  0  0  0  0  0  0
    4.1576   -0.2057   37.7891 C   0  0  1  0  0  0  0  0  0  0  0  0
    2.7393   -0.0583   38.0954 O   0  0  0  0  0  0  0  0  0  0  0  0
    4.3831   -1.5360   36.9989 C   0  0  1  0  0  0  0  0  0  0  0  0
    5.8363   -1.6718   36.4419 C   0  0  1  0  0  0  0  0  0  0  0  0
    5.9913   -2.8901   35.6164 N   0  3  0  0  0  0  0  0  0  0  0  0
    6.2207   -0.4231   35.6068 C   0  0  0  0  0  0  0  0  0  0  0  0
    2.2972    0.9741   39.0337 C   0  0  1  0  0  0  0  0  0  0  0  0
    0.8715    0.6332   39.5063 C   0  0  2  0  0  0  0  0  0  0  0  0
    0.1758    1.8053   39.9215 O   0  0  0  0  0  0  0  0  0  0  0  0
    1.2221   -0.2844   40.6874 C   0  0  1  0  0  0  0  0  0  0  0  0
    2.3715    0.4596   41.3469 C   0  0  2  0  0  0  0  0  0  0  0  0
    3.0993    0.9412   40.2275 O   0  0  0  0  0  0  0  0  0  0  0  0
    3.2760   -0.3970   42.2425 C   0  0  0  0  0  0  0  0  0  0  0  0
    4.3210    0.3984   42.7825 O   0  0  0  0  0  0  0  0  0  0  0  0
    0.1763   -2.6865   45.3815 C   0  0  1  0  0  0  0  0  0  0  0  0
   -1.1748   -3.1337   45.2850 O   0  0  0  0  0  0  0  0  0  0  0  0
    1.0054   -3.2964   44.2169 C   0  0  2  0  0  0  0  0  0  0  0  0
    2.3905   -3.1582   44.5254 O   0  0  0  0  0  0  0  0  0  0  0  0
    0.7395   -2.6735   42.8073 C   0  0  1  0  0  0  0  0  0  0  0  0
   -0.4280   -3.3219   42.1703 N   0  3  0  0  0  0  0  0  0  0  0  0
    0.6065   -1.1293   42.8735 C   0  0  1  0  0  0  0  0  0  0  0  0
    0.1493   -0.5226   41.6398 O   0  0  0  0  0  0  0  0  0  0  0  0
    0.2363   -1.1398   45.3129 C   0  0  1  0  0  0  0  0  0  0  0  0
   -0.2459   -0.7370   44.0018 O   0  0  0  0  0  0  0  0  0  0  0  0
   -0.5544   -0.4354   46.4312 C   0  0  0  0  0  0  0  0  0  0  0  0
    0.2948   -0.0542   47.5767 N   0  3  0  0  0  0  0  0  0  0  0  0
  1  2  1  1  0  0  0
  1  3  1  0  0  0  0
  1 10  1  0  0  0  0
  3  4  1  1  0  0  0
  3  5  1  0  0  0  0
  5  6  1  6  0  0  0
  5  7  1  0  0  0  0
  7  8  1  1  0  0  0
  7  9  1  0  0  0  0
  9 10  1  0  0  0  0
  9 11  1  6  0  0  0
 11 12  1  0  0  0  0
 13 14  1  6  0  0  0
 13 15  1  0  0  0  0
 13 22  1  0  0  0  0
 15 16  1  1  0  0  0
 15 17  1  0  0  0  0
 17 18  1  6  0  0  0
 17 19  1  0  0  0  0
 19  2  1  1  0  0  0
 19 20  1  0  0  0  0
 20 21  1  6  0  0  0
 20 22  1  0  0  0  0
 23 18  1  6  0  0  0
 23 24  1  0  0  0  0
 23 28  1  0  0  0  0
 24 25  1  1  0  0  0
 24 26  1  0  0  0  0
 26 27  1  0  0  0  0
 26 38  1  1  0  0  0
 27 28  1  0  0  0  0
 27 29  1  6  0  0  0
 29 30  1  0  0  0  0
 31 32  1  6  0  0  0
 31 33  1  0  0  0  0
 31 39  1  0  0  0  0
 33 34  1  1  0  0  0
 33 35  1  0  0  0  0
 35 36  1  1  0  0  0
 35 37  1  0  0  0  0
 37 38  1  6  0  0  0
 37 40  1  0  0  0  0
 39 40  1  0  0  0  0
 39 41  1  1  0  0  0
 41 42  1  0  0  0  0
M  CHG  5   4   1  14   1  21   1  36   1  42   1
M  END
>  <CHROM.1>
-140.03779824,163.12977489,-109.39164431,68.16277265,59.27183226,-59.86124986
-64.92048323,172.04855243,-49.58327064,-68.45154631,-162.41151907,-79.37495788
-176.97902358,-166.69369609,179.03658063,-69.71503048,173.26859968,175.24852083
-109.27426132,-83.95080626,96.09068791,-170.21652088,2.97422978,-1.92068694
40.24780159,-0.14286678,-0.95744845,2.83695772

>  <Name>
1pbr

>  <RI>
0

>  <Rbt.Current_Directory>
/home/itssahil/PROJECTS/Mol_Feturizer/New_Systems/rnas/1pbr

>  <Rbt.Executable>
rbdock ($Id: //depot/dev/client3/rdock/2013.1/src/exe/rbdock.cxx#4 $)

>  <Rbt.Library>
libRbt.so (2013.1, Build901 2013/11/27)

>  <Rbt.Parameter_File>
/export/apps/rDock/src/rDock_2013.1_src/data/scripts/dock_solv.prm

>  <Rbt.Receptor>
prm/pocket_docking_7.prm

>  <SCORE>
-31.5599

>  <SCORE.INTER>
-33.9552

>  <SCORE.INTER.CONST>
1

>  <SCORE.INTER.POLAR>
-5.02862

>  <SCORE.INTER.ROT>
9

>  <SCORE.INTER.SOLV>
41.4297

>  <SCORE.INTER.VDW>
-29.2846

>  <SCORE.INTER.norm>
-0.808457

>  <SCORE.INTRA>
2.39532

>  <SCORE.INTRA.DIHEDRAL>
-3.77741

>  <SCORE.INTRA.DIHEDRAL.0>
29.7866

>  <SCORE.INTRA.POLAR>
0.0688624

>  <SCORE.INTRA.POLAR.0>
-0.984091

>  <SCORE.INTRA.REPUL>
-0.209957

>  <SCORE.INTRA.REPUL.0>
0.274115

>  <SCORE.INTRA.SOLV>
0.371282

>  <SCORE.INTRA.SOLV.lig_0>
-152.978

>  <SCORE.INTRA.VDW>
4.91404

>  <SCORE.INTRA.VDW.0>
-6.10719

>  <SCORE.INTRA.norm>
0.0570314

>  <SCORE.RESTR>
0

>  <SCORE.RESTR.CAVITY>
0

>  <SCORE.RESTR.norm>
0

>  <SCORE.SYSTEM>
0

>  <SCORE.SYSTEM.CONST>
0

>  <SCORE.SYSTEM.DIHEDRAL>
0

>  <SCORE.SYSTEM.SOLV>
0

>  <SCORE.SYSTEM.norm>
0

>  <SCORE.heavy>
42

>  <SCORE.norm>
-0.751426

>  <RMSD>
8.681

$$$$
1pbr
 OpenBabel11021811403D
libRbt.so/2013.1/901 2013/11/27
 42 45  0  0  0  0  0  0  0  0999 V2000
    0.7012    3.0739   38.0028 C   0  0  2  0  0  0  0  0  0  0  0  0
    1.1320    1.8786   37.3038 O   0  0  0  0  0  0  0  0  0  0  0  0
   -0.8198    2.9741   38.3964 C   0  0  2  0  0  0  0  0  0  0  0  0
   -1.2400    1.6402   38.8989 N   0  3  0  0  0  0  0  0  0  0  0  0
   -1.7372    3.2931   37.2010 C   0  0  1  0  0  0  0  0  0  0  0  0
   -3.0873    3.4584   37.6291 O   0  0  0  0  0  0  0  0  0  0  0  0
   -1.2732    4.5636   36.4728 C   0  0  2  0  0  0  0  0  0  0  0  0
   -2.1576    4.8668   35.3986 O   0  0  0  0  0  0  0  0  0  0  0  0
    0.1941    4.4242   36.0100 C   0  0  2  0  0  0  0  0  0  0  0  0
    0.9936    4.2503   37.1991 O   0  0  0  0  0  0  0  0  0  0  0  0
    0.7321    5.6391   35.2559 C   0  0  0  0  0  0  0  0  0  0  0  0
    2.1237    5.5098   34.9969 O   0  0  0  0  0  0  0  0  0  0  0  0
    4.7119   -0.0665   36.0353 C   0  0  1  0  0  0  0  0  0  0  0  0
    6.0965   -0.4536   35.7081 N   0  3  0  0  0  0  0  0  0  0  0  0
    4.4677    0.0094   37.5729 C   0  0  2  0  0  0  0  0  0  0  0  0
    4.7356   -1.2514   38.1822 O   0  0  0  0  0  0  0  0  0  0  0  0
    2.9970    0.4071   37.8928 C   0  0  1  0  0  0  0  0  0  0  0  0
    2.8756    0.6271   39.3294 O   0  0  0  0  0  0  0  0  0  0  0  0
    2.5584    1.6999   37.1302 C   0  0  1  0  0  0  0  0  0  0  0  0
    2.8588    1.6321   35.5986 C   0  0  1  0  0  0  0  0  0  0  0  0
    2.5254    2.9049   34.9216 N   0  3  0  0  0  0  0  0  0  0  0  0
    4.3487    1.2826   35.3486 C   0  0  0  0  0  0  0  0  0  0  0  0
    3.8410    1.4812   40.0225 C   0  0  1  0  0  0  0  0  0  0  0  0
    3.4147    1.6116   41.4968 C   0  0  2  0  0  0  0  0  0  0  0  0
    3.9123    2.8180   42.0688 O   0  0  0  0  0  0  0  0  0  0  0  0
    4.1164    0.3672   42.0615 C   0  0  1  0  0  0  0  0  0  0  0  0
    5.4721    0.4196   41.3767 C   0  0  2  0  0  0  0  0  0  0  0  0
    5.1304    0.8449   40.0663 O   0  0  0  0  0  0  0  0  0  0  0  0
    6.2296   -0.9134   41.3242 C   0  0  0  0  0  0  0  0  0  0  0  0
    6.6680   -1.2764   42.6251 O   0  0  0  0  0  0  0  0  0  0  0  0
    0.6802   -1.1147   45.4289 C   0  0  1  0  0  0  0  0  0  0  0  0
    1.0212   -2.4957   45.3225 O   0  0  0  0  0  0  0  0  0  0  0  0
    1.7166   -0.3964   46.3375 C   0  0  2  0  0  0  0  0  0  0  0  0
    1.1752    0.8605   46.7372 O   0  0  0  0  0  0  0  0  0  0  0  0
    3.1209   -0.1569   45.6922 C   0  0  1  0  0  0  0  0  0  0  0  0
    3.9728   -1.3556   45.8544 N   0  3  0  0  0  0  0  0  0  0  0  0
    3.0073    0.3035   44.2151 C   0  0  1  0  0  0  0  0  0  0  0  0
    4.2710    0.3330   43.5071 O   0  0  0  0  0  0  0  0  0  0  0  0
    0.6670   -0.4551   44.0269 C   0  0  1  0  0  0  0  0  0  0  0  0
    2.0205   -0.5132   43.4990 O   0  0  0  0  0  0  0  0  0  0  0  0
   -0.3346   -1.0944   43.0470 C   0  0  0  0  0  0  0  0  0  0  0  0
   -0.1249   -0.6586   41.6525 N   0  3  0  0  0  0  0  0  0  0  0  0
  1  2  1  6  0  0  0
  1  3  1  0  0  0  0
  1 10  1  0  0  0  0
  3  4  1  6  0  0  0
  3  5  1  0  0  0  0
  5  6  1  1  0  0  0
  5  7  1  0  0  0  0
  7  8  1  6  0  0  0
  7  9  1  0  0  0  0
  9 10  1  0  0  0  0
  9 11  1  1  0  0  0
 11 12  1  0  0  0  0
 13 14  1  1  0  0  0
 13 15  1  0  0  0  0
 13 22  1  0  0  0  0
 15 16  1  1  0  0  0
 15 17  1  0  0  0  0
 17 18  1  1  0  0  0
 17 19  1  0  0  0  0
 19  2  1  6  0  0  0
 19 20  1  0  0  0  0
 20 21  1  1  0  0  0
 20 22  1  0  0  0  0
 23 18  1  6  0  0  0
 23 24  1  0  0  0  0
 23 28  1  0  0  0  0
 24 25  1  1  0  0  0
 24 26  1  0  0  0  0
 26 27  1  0  0  0  0
 26 38  1  1  0  0  0
 27 28  1  0  0  0  0
 27 29  1  6  0  0  0
 29 30  1  0  0  0  0
 31 32  1  6  0  0  0
 31 33  1  0  0  0  0
 31 39  1  0  0  0  0
 33 34  1  6  0  0  0
 33 35  1  0  0  0  0
 35 36  1  6  0  0  0
 35 37  1  0  0  0  0
 37 38  1  6  0  0  0
 37 40  1  0  0  0  0
 39 40  1  0  0  0  0
 39 41  1  6  0  0  0
 41 42  1  0  0  0  0
M  CHG  5   4   1  14   1  21   1  36   1  42   1
M  END
>  <CHROM.1>
-167.26927623,117.11037112,-177.72611594,-174.22320033,64.00648593,173.21899004
-175.72183718,-45.79323359,-55.90405456,49.18944243,176.08819407,9.67717171
-64.52624108,63.27732120,-69.87326765,-174.44868329,-175.52366089,-57.33379702
52.84660559,162.55046405,-167.35936238,-51.95881328,2.22797022,1.20441973
39.92312661,1.80006675,0.39003669,-1.21066308

>  <Name>
1pbr

>  <RI>
0

>  <Rbt.Current_Directory>
/home/itssahil/PROJECTS/Mol_Feturizer/New_Systems/rnas/1pbr

>  <Rbt.Executable>
rbdock ($Id: //depot/dev/client3/rdock/2013.1/src/exe/rbdock.cxx#4 $)

>  <Rbt.Library>
libRbt.so (2013.1, Build901 2013/11/27)

>  <Rbt.Parameter_File>
/export/apps/rDock/src/rDock_2013.1_src/data/scripts/dock_solv.prm

>  <Rbt.Receptor>
prm/pocket_docking_6.prm

>  <SCORE>
-40.0657

>  <SCORE.INTER>
-39.0222

>  <SCORE.INTER.CONST>
1

>  <SCORE.INTER.POLAR>
-5.74909

>  <SCORE.INTER.ROT>
9

>  <SCORE.INTER.SOLV>
28.1301

>  <SCORE.INTER.VDW>
-25.8279

>  <SCORE.INTER.norm>
-0.929101

>  <SCORE.INTRA>
-1.0672

>  <SCORE.INTRA.DIHEDRAL>
-12.6836

>  <SCORE.INTRA.DIHEDRAL.0>
29.7866

>  <SCORE.INTRA.POLAR>
0.152995

>  <SCORE.INTRA.POLAR.0>
-0.984091

>  <SCORE.INTRA.REPUL>
-0.274115

>  <SCORE.INTRA.REPUL.0>
0.274115

>  <SCORE.INTRA.SOLV>
5.50253

>  <SCORE.INTRA.SOLV.lig_0>
-152.978

>  <SCORE.INTRA.VDW>
3.37373

>  <SCORE.INTRA.VDW.0>
-6.10719

>  <SCORE.INTRA.norm>
-0.0254094

>  <SCORE.RESTR>
0.0237054

>  <SCORE.RESTR.CAVITY>
0.0237054

>  <SCORE.RESTR.norm>
0.000564414

>  <SCORE.SYSTEM>
0

>  <SCORE.SYSTEM.CONST>
0

>  <SCORE.SYSTEM.DIHEDRAL>
0

>  <SCORE.SYSTEM.SOLV>
0

>  <SCORE.SYSTEM.norm>
0

>  <SCORE.heavy>
42

>  <SCORE.norm>
-0.953946

>  <RMSD>
8.685

$$$$
1pbr
 OpenBabel11021811403D
libRbt.so/2013.1/901 2013/11/27
 42 45  0  0  0  0  0  0  0  0999 V2000
    0.4898    2.8575   37.5156 C   0  0  2  0  0  0  0  0  0  0  0  0
    0.6292    1.7239   36.6219 O   0  0  0  0  0  0  0  0  0  0  0  0
   -0.9860    2.9685   38.0523 C   0  0  2  0  0  0  0  0  0  0  0  0
   -1.6093    1.6691   38.4147 N   0  3  0  0  0  0  0  0  0  0  0  0
   -1.9194    3.6198   37.0145 C   0  0  1  0  0  0  0  0  0  0  0  0
   -3.1750    3.9536   37.6022 O   0  0  0  0  0  0  0  0  0  0  0  0
   -1.2834    4.8838   36.4166 C   0  0  2  0  0  0  0  0  0  0  0  0
   -2.1778    5.4957   35.4926 O   0  0  0  0  0  0  0  0  0  0  0  0
    0.0890    4.5599   35.7857 C   0  0  2  0  0  0  0  0  0  0  0  0
    0.9341    4.0714   36.8490 O   0  0  0  0  0  0  0  0  0  0  0  0
    0.7848    5.7606   35.1469 C   0  0  0  0  0  0  0  0  0  0  0  0
    1.8506    5.3486   34.3014 O   0  0  0  0  0  0  0  0  0  0  0  0
    3.2834   -1.5740   36.0861 C   0  0  1  0  0  0  0  0  0  0  0  0
    4.4367   -2.4878   35.9938 N   0  3  0  0  0  0  0  0  0  0  0  0
    2.9732   -1.1614   37.5569 C   0  0  2  0  0  0  0  0  0  0  0  0
    2.6953   -2.3138   38.3489 O   0  0  0  0  0  0  0  0  0  0  0  0
    1.7449   -0.2076   37.6293 C   0  0  1  0  0  0  0  0  0  0  0  0
    1.6101    0.2755   38.9988 O   0  0  0  0  0  0  0  0  0  0  0  0
    1.8889    1.0111   36.6601 C   0  0  1  0  0  0  0  0  0  0  0  0
    2.2537    0.5865   35.2016 C   0  0  1  0  0  0  0  0  0  0  0  0
    2.4808    1.7626   34.3329 N   0  3  0  0  0  0  0  0  0  0  0  0
    3.5127   -0.3187   35.1944 C   0  0  0  0  0  0  0  0  0  0  0  0
    2.5264    1.2971   39.5073 C   0  0  1  0  0  0  0  0  0  0  0  0
    2.2658    1.4877   41.0132 C   0  0  2  0  0  0  0  0  0  0  0  0
    2.6596    2.7888   41.4403 O   0  0  0  0  0  0  0  0  0  0  0  0
    3.1924    0.3908   41.5590 C   0  0  1  0  0  0  0  0  0  0  0  0
    4.4367    0.5610   40.7032 C   0  0  2  0  0  0  0  0  0  0  0  0
    3.8862    0.8351   39.4239 O   0  0  0  0  0  0  0  0  0  0  0  0
    5.3565   -0.6650   40.6363 C   0  0  0  0  0  0  0  0  0  0  0  0
    6.6952   -0.2573   40.3951 O   0  0  0  0  0  0  0  0  0  0  0  0
    0.7045   -0.6832   46.0326 C   0  0  1  0  0  0  0  0  0  0  0  0
    1.5234   -1.7169   46.5764 O   0  0  0  0  0  0  0  0  0  0  0  0
    1.4109    0.6880   46.2234 C   0  0  2  0  0  0  0  0  0  0  0  0
    0.4508    1.7237   46.0284 O   0  0  0  0  0  0  0  0  0  0  0  0
    2.6315    0.9496   45.2813 C   0  0  1  0  0  0  0  0  0  0  0  0
    3.8606    0.3598   45.8561 N   0  3  0  0  0  0  0  0  0  0  0  0
    2.3562    0.4695   43.8320 C   0  0  1  0  0  0  0  0  0  0  0  0
    3.5219    0.4902   42.9719 O   0  0  0  0  0  0  0  0  0  0  0  0
    0.4507   -0.9362   44.5252 C   0  0  1  0  0  0  0  0  0  0  0  0
    1.7320   -0.8585   43.8427 O   0  0  0  0  0  0  0  0  0  0  0  0
   -0.2521   -2.2739   44.2276 C   0  0  0  0  0  0  0  0  0  0  0  0
   -1.5479   -2.4041   44.9223 N   0  3  0  0  0  0  0  0  0  0  0  0
  1  2  1  6  0  0  0
  1  3  1  0  0  0  0
  1 10  1  0  0  0  0
  3  4  1  6  0  0  0
  3  5  1  0  0  0  0
  5  6  1  1  0  0  0
  5  7  1  0  0  0  0
  7  8  1  6  0  0  0
  7  9  1  0  0  0  0
  9 10  1  0  0  0  0
  9 11  1  1  0  0  0
 11 12  1  0  0  0  0
 13 14  1  1  0  0  0
 13 15  1  0  0  0  0
 13 22  1  0  0  0  0
 15 16  1  1  0  0  0
 15 17  1  0  0  0  0
 17 18  1  1  0  0  0
 17 19  1  0  0  0  0
 19  2  1  6  0  0  0
 19 20  1  0  0  0  0
 20 21  1  6  0  0  0
 20 22  1  0  0  0  0
 23 18  1  1  0  0  0
 23 24  1  0  0  0  0
 23 28  1  0  0  0  0
 24 25  1  1  0  0  0
 24 26  1  0  0  0  0
 26 27  1  0  0  0  0
 26 38  1  1  0  0  0
 27 28  1  0  0  0  0
 27 29  1  6  0  0  0
 29 30  1  0  0  0  0
 31 32  1  6  0  0  0
 31 33  1  0  0  0  0
 31 39  1  0  0  0  0
 33 34  1  6  0  0  0
 33 35  1  0  0  0  0
 35 36  1  1  0  0  0
 35 37  1  0  0  0  0
 37 38  1  6  0  0  0
 37 40  1  0  0  0  0
 39 40  1  0  0  0  0
 39 41  1  1  0  0  0
 41 42  1  0  0  0  0
M  CHG  5   4   1  14   1  21   1  36   1  42   1
M  END
>  <CHROM.1>
-144.72847371,95.01035696,-78.41163244,-168.33805101,-70.81681863,-165.03475516
-175.83764755,-174.03460909,-52.99524709,75.19307206,-173.16734756,-75.76481723
-170.77037823,58.36435147,-152.45607085,-45.08177289,58.59598221,67.80521845
-49.55020782,-164.41745040,57.28334354,154.34334435,1.62393073,1.06240830
39.77924724,1.72311384,0.66739728,-1.29377526

>  <Name>
1pbr

>  <RI>
0

>  <Rbt.Current_Directory>
/home/itssahil/PROJECTS/Mol_Feturizer/New_Systems/rnas/1pbr

>  <Rbt.Executable>
rbdock ($Id: //depot/dev/client3/rdock/2013.1/src/exe/rbdock.cxx#4 $)

>  <Rbt.Library>
libRbt.so (2013.1, Build901 2013/11/27)

>  <Rbt.Parameter_File>
/export/apps/rDock/src/rDock_2013.1_src/data/scripts/dock_solv.prm

>  <Rbt.Receptor>
prm/blind_docking_60.prm

>  <SCORE>
-35.7628

>  <SCORE.INTER>
-33.6969

>  <SCORE.INTER.CONST>
1

>  <SCORE.INTER.POLAR>
-7.28648

>  <SCORE.INTER.ROT>
9

>  <SCORE.INTER.SOLV>
38.787

>  <SCORE.INTER.VDW>
-20.7054

>  <SCORE.INTER.norm>
-0.802308

>  <SCORE.INTRA>
-2.69188

>  <SCORE.INTRA.DIHEDRAL>
-7.92731

>  <SCORE.INTRA.DIHEDRAL.0>
29.7866

>  <SCORE.INTRA.POLAR>
0.984091

>  <SCORE.INTRA.POLAR.0>
-0.984091

>  <SCORE.INTRA.REPUL>
-0.274115

>  <SCORE.INTRA.REPUL.0>
0.274115

>  <SCORE.INTRA.SOLV>
-2.06277

>  <SCORE.INTRA.SOLV.lig_0>
-152.978

>  <SCORE.INTRA.VDW>
0.327825

>  <SCORE.INTRA.VDW.0>
-6.10719

>  <SCORE.INTRA.norm>
-0.0640924

>  <SCORE.RESTR>
0.626051

>  <SCORE.RESTR.CAVITY>
0.626051

>  <SCORE.RESTR.norm>
0.014906

>  <SCORE.SYSTEM>
0

>  <SCORE.SYSTEM.CONST>
0

>  <SCORE.SYSTEM.DIHEDRAL>
0

>  <SCORE.SYSTEM.SOLV>
0

>  <SCORE.SYSTEM.norm>
0

>  <SCORE.heavy>
42

>  <SCORE.norm>
-0.851494

>  <RMSD>
8.688

$$$$
1pbr
 OpenBabel11021811403D
libRbt.so/2013.1/901 2013/11/27
 42 45  0  0  0  0  0  0  0  0999 V2000
    4.7104    1.8109   36.5093 C   0  0  2  0  0  0  0  0  0  0  0  0
    4.7150    1.4632   37.9173 O   0  0  0  0  0  0  0  0  0  0  0  0
    4.3398    3.3277   36.3091 C   0  0  2  0  0  0  0  0  0  0  0  0
    4.9689    4.2504   37.2895 N   0  3  0  0  0  0  0  0  0  0  0  0
    2.8204    3.5589   36.4131 C   0  0  1  0  0  0  0  0  0  0  0  0
    2.4767    4.8707   35.9721 O   0  0  0  0  0  0  0  0  0  0  0  0
    2.0466    2.5225   35.5844 C   0  0  2  0  0  0  0  0  0  0  0  0
    0.6475    2.7784   35.6574 O   0  0  0  0  0  0  0  0  0  0  0  0
    2.4095    1.0873   36.0259 C   0  0  2  0  0  0  0  0  0  0  0  0
    3.8220    0.9185   35.7816 O   0  0  0  0  0  0  0  0  0  0  0  0
    1.6669   -0.0098   35.2648 C   0  0  0  0  0  0  0  0  0  0  0  0
    1.6533    0.2514   33.8676 O   0  0  0  0  0  0  0  0  0  0  0  0
    4.5138   -2.7851   37.5717 C   0  0  1  0  0  0  0  0  0  0  0  0
    4.6850   -4.2446   37.6916 N   0  3  0  0  0  0  0  0  0  0  0  0
    3.8733   -2.1589   38.8474 C   0  0  2  0  0  0  0  0  0  0  0  0
    2.5961   -2.7400   39.0995 O   0  0  0  0  0  0  0  0  0  0  0  0
    3.6912   -0.6207   38.6916 C   0  0  1  0  0  0  0  0  0  0  0  0
    3.2509   -0.0718   39.9691 O   0  0  0  0  0  0  0  0  0  0  0  0
    5.0144    0.0863   38.2506 C   0  0  1  0  0  0  0  0  0  0  0  0
    5.6745   -0.5851   37.0039 C   0  0  1  0  0  0  0  0  0  0  0  0
    6.9729    0.0420   36.6715 N   0  3  0  0  0  0  0  0  0  0  0  0
    5.8744   -2.1041   37.2426 C   0  0  0  0  0  0  0  0  0  0  0  0
    4.2382    0.3191   40.9762 C   0  0  1  0  0  0  0  0  0  0  0  0
    3.5112    1.0451   42.1236 C   0  0  2  0  0  0  0  0  0  0  0  0
    4.3929    1.9294   42.8099 O   0  0  0  0  0  0  0  0  0  0  0  0
    3.1296   -0.1740   42.9768 C   0  0  1  0  0  0  0  0  0  0  0  0
    4.3969   -1.0116   42.9321 C   0  0  2  0  0  0  0  0  0  0  0  0
    4.8183   -0.8473   41.5867 O   0  0  0  0  0  0  0  0  0  0  0  0
    4.2084   -2.4997   43.2539 C   0  0  0  0  0  0  0  0  0  0  0  0
    3.8753   -2.6635   44.6245 O   0  0  0  0  0  0  0  0  0  0  0  0
   -0.9557   -0.9324   46.3144 C   0  0  1  0  0  0  0  0  0  0  0  0
   -0.3567   -1.2403   47.5718 O   0  0  0  0  0  0  0  0  0  0  0  0
   -0.7364    0.5725   45.9938 C   0  0  2  0  0  0  0  0  0  0  0  0
   -1.6349    0.9502   44.9533 O   0  0  0  0  0  0  0  0  0  0  0  0
    0.7174    0.9620   45.5689 C   0  0  1  0  0  0  0  0  0  0  0  0
    1.5544    1.2071   46.7641 N   0  3  0  0  0  0  0  0  0  0  0  0
    1.3378   -0.0840   44.6057 C   0  0  1  0  0  0  0  0  0  0  0  0
    2.7504    0.1129   44.3510 O   0  0  0  0  0  0  0  0  0  0  0  0
   -0.3317   -1.8026   45.1946 C   0  0  1  0  0  0  0  0  0  0  0  0
    1.0734   -1.4443   45.0884 O   0  0  0  0  0  0  0  0  0  0  0  0
   -0.4989   -3.3174   45.4166 C   0  0  0  0  0  0  0  0  0  0  0  0
   -1.9074   -3.7130   45.6117 N   0  3  0  0  0  0  0  0  0  0  0  0
  1  2  1  1  0  0  0
  1  3  1  0  0  0  0
  1 10  1  0  0  0  0
  3  4  1  1  0  0  0
  3  5  1  0  0  0  0
  5  6  1  6  0  0  0
  5  7  1  0  0  0  0
  7  8  1  1  0  0  0
  7  9  1  0  0  0  0
  9 10  1  0  0  0  0
  9 11  1  6  0  0  0
 11 12  1  0  0  0  0
 13 14  1  1  0  0  0
 13 15  1  0  0  0  0
 13 22  1  0  0  0  0
 15 16  1  6  0  0  0
 15 17  1  0  0  0  0
 17 18  1  1  0  0  0
 17 19  1  0  0  0  0
 19  2  1  6  0  0  0
 19 20  1  0  0  0  0
 20 21  1  1  0  0  0
 20 22  1  0  0  0  0
 23 18  1  6  0  0  0
 23 24  1  0  0  0  0
 23 28  1  0  0  0  0
 24 25  1  1  0  0  0
 24 26  1  0  0  0  0
 26 27  1  0  0  0  0
 26 38  1  1  0  0  0
 27 28  1  0  0  0  0
 27 29  1  6  0  0  0
 29 30  1  0  0  0  0
 31 32  1  1  0  0  0
 31 33  1  0  0  0  0
 31 39  1  0  0  0  0
 33 34  1  6  0  0  0
 33 35  1  0  0  0  0
 35 36  1  1  0  0  0
 35 37  1  0  0  0  0
 37 38  1  1  0  0  0
 37 40  1  0  0  0  0
 39 40  1  0  0  0  0
 39 41  1  1  0  0  0
 41 42  1  0  0  0  0
M  CHG  5   4   1  14   1  21   1  36   1  42   1
M  END
>  <CHROM.1>
178.79341609,-106.13831622,-131.98006325,-66.81792119,173.57065509,44.84364015
79.47373576,-76.73224026,-173.68819491,86.95963086,171.91237910,5.02398464
-78.26247770,109.54917178,-68.85178767,-48.09034458,155.45851279,-157.15516740
69.74989470,-142.23545708,54.85132705,62.08463618,2.74687003,-0.02202095
40.55339179,1.01276693,0.91803463,-0.87615283

>  <Name>
1pbr

>  <RI>
0

>  <Rbt.Current_Directory>
/home/itssahil/PROJECTS/Mol_Feturizer/New_Systems/rnas/1pbr

>  <Rbt.Executable>
rbdock ($Id: //depot/dev/client3/rdock/2013.1/src/exe/rbdock.cxx#4 $)

>  <Rbt.Library>
libRbt.so (2013.1, Build901 2013/11/27)

>  <Rbt.Parameter_File>
/export/apps/rDock/src/rDock_2013.1_src/data/scripts/dock_solv.prm

>  <Rbt.Receptor>
prm/pocket_docking_6.prm

>  <SCORE>
-43.3004

>  <SCORE.INTER>
-55.9257

>  <SCORE.INTER.CONST>
1

>  <SCORE.INTER.POLAR>
-8.37192

>  <SCORE.INTER.ROT>
9

>  <SCORE.INTER.SOLV>
45.9717

>  <SCORE.INTER.VDW>
-34.3013

>  <SCORE.INTER.norm>
-1.33156

>  <SCORE.INTRA>
12.4904

>  <SCORE.INTRA.DIHEDRAL>
10.3527

>  <SCORE.INTRA.DIHEDRAL.0>
29.7866

>  <SCORE.INTRA.POLAR>
0.853869

>  <SCORE.INTRA.POLAR.0>
-0.984091

>  <SCORE.INTRA.REPUL>
-0.274115

>  <SCORE.INTRA.REPUL.0>
0.274115

>  <SCORE.INTRA.SOLV>
-2.63544

>  <SCORE.INTRA.SOLV.lig_0>
-152.978

>  <SCORE.INTRA.VDW>
7.0992

>  <SCORE.INTRA.VDW.0>
-6.10719

>  <SCORE.INTRA.norm>
0.297391

>  <SCORE.RESTR>
0.134856

>  <SCORE.RESTR.CAVITY>
0.134856

>  <SCORE.RESTR.norm>
0.00321085

>  <SCORE.SYSTEM>
0

>  <SCORE.SYSTEM.CONST>
0

>  <SCORE.SYSTEM.DIHEDRAL>
0

>  <SCORE.SYSTEM.SOLV>
0

>  <SCORE.SYSTEM.norm>
0

>  <SCORE.heavy>
42

>  <SCORE.norm>
-1.03096

>  <RMSD>
8.690

$$$$
1pbr
 OpenBabel11021811403D
libRbt.so/2013.1/901 2013/11/27
 42 45  0  0  0  0  0  0  0  0999 V2000
    4.0734    0.2284   36.3371 C   0  0  2  0  0  0  0  0  0  0  0  0
    3.6054    1.3677   37.1027 O   0  0  0  0  0  0  0  0  0  0  0  0
    4.1750   -1.0527   37.2463 C   0  0  2  0  0  0  0  0  0  0  0  0
    3.0471   -1.2236   38.1986 N   0  3  0  0  0  0  0  0  0  0  0  0
    5.4595   -1.0445   38.0963 C   0  0  1  0  0  0  0  0  0  0  0  0
    5.6700   -2.3155   38.7076 O   0  0  0  0  0  0  0  0  0  0  0  0
    6.6836   -0.6792   37.2431 C   0  0  2  0  0  0  0  0  0  0  0  0
    7.8663   -0.7194   38.0354 O   0  0  0  0  0  0  0  0  0  0  0  0
    6.4806    0.6872   36.5516 C   0  0  2  0  0  0  0  0  0  0  0  0
    5.3331    0.5525   35.6865 O   0  0  0  0  0  0  0  0  0  0  0  0
    7.6631    1.1391   35.6962 C   0  0  0  0  0  0  0  0  0  0  0  0
    7.8313    0.2967   34.5637 O   0  0  0  0  0  0  0  0  0  0  0  0
    0.4770    4.2524   36.7876 C   0  0  1  0  0  0  0  0  0  0  0  0
   -0.7697    4.9949   36.5262 N   0  3  0  0  0  0  0  0  0  0  0  0
    0.2825    3.1270   37.8485 C   0  0  2  0  0  0  0  0  0  0  0  0
   -0.1765    3.6784   39.0805 O   0  0  0  0  0  0  0  0  0  0  0  0
    1.6142    2.3666   38.1164 C   0  0  1  0  0  0  0  0  0  0  0  0
    1.3338    1.2262   38.9813 O   0  0  0  0  0  0  0  0  0  0  0  0
    2.2807    1.8644   36.7941 C   0  0  1  0  0  0  0  0  0  0  0  0
    2.4197    2.9897   35.7194 C   0  0  1  0  0  0  0  0  0  0  0  0
    2.9608    2.4633   34.4467 N   0  3  0  0  0  0  0  0  0  0  0  0
    1.0513    3.6721   35.4622 C   0  0  0  0  0  0  0  0  0  0  0  0
    1.3655    1.3862   40.4357 C   0  0  1  0  0  0  0  0  0  0  0  0
    1.3007   -0.0080   41.0868 C   0  0  2  0  0  0  0  0  0  0  0  0
    0.7573    0.0658   42.4019 O   0  0  0  0  0  0  0  0  0  0  0  0
    2.8005   -0.3403   41.0947 C   0  0  1  0  0  0  0  0  0  0  0  0
    3.4219    0.9728   41.5409 C   0  0  2  0  0  0  0  0  0  0  0  0
    2.6313    1.9289   40.8514 O   0  0  0  0  0  0  0  0  0  0  0  0
    4.9036    1.1491   41.1840 C   0  0  0  0  0  0  0  0  0  0  0  0
    5.4440    2.2611   41.8823 O   0  0  0  0  0  0  0  0  0  0  0  0
    2.1837   -5.5249   41.0601 C   0  0  1  0  0  0  0  0  0  0  0  0
    3.5325   -5.9661   40.9154 O   0  0  0  0  0  0  0  0  0  0  0  0
    1.9484   -5.0583   42.5239 C   0  0  2  0  0  0  0  0  0  0  0  0
    0.5437   -4.9792   42.7544 O   0  0  0  0  0  0  0  0  0  0  0  0
    2.5983   -3.6872   42.9026 C   0  0  1  0  0  0  0  0  0  0  0  0
    4.0085   -3.8805   43.3066 N   0  3  0  0  0  0  0  0  0  0  0  0
    2.4364   -2.6386   41.7709 C   0  0  1  0  0  0  0  0  0  0  0  0
    3.2006   -1.4250   41.9767 O   0  0  0  0  0  0  0  0  0  0  0  0
    1.8933   -4.3563   40.0850 C   0  0  1  0  0  0  0  0  0  0  0  0
    2.7428   -3.2403   40.4680 O   0  0  0  0  0  0  0  0  0  0  0  0
    2.0943   -4.7182   38.6015 C   0  0  0  0  0  0  0  0  0  0  0  0
    3.3047   -5.5310   38.3719 N   0  3  0  0  0  0  0  0  0  0  0  0
  1  2  1  1  0  0  0
  1  3  1  0  0  0  0
  1 10  1  0  0  0  0
  3  4  1  1  0  0  0
  3  5  1  0  0  0  0
  5  6  1  6  0  0  0
  5  7  1  0  0  0  0
  7  8  1  1  0  0  0
  7  9  1  0  0  0  0
  9 10  1  0  0  0  0
  9 11  1  6  0  0  0
 11 12  1  0  0  0  0
 13 14  1  6  0  0  0
 13 15  1  0  0  0  0
 13 22  1  0  0  0  0
 15 16  1  1  0  0  0
 15 17  1  0  0  0  0
 17 18  1  1  0  0  0
 17 19  1  0  0  0  0
 19  2  1  1  0  0  0
 19 20  1  0  0  0  0
 20 21  1  6  0  0  0
 20 22  1  0  0  0  0
 23 18  1  6  0  0  0
 23 24  1  0  0  0  0
 23 28  1  0  0  0  0
 24 25  1  1  0  0  0
 24 26  1  0  0  0  0
 26 27  1  0  0  0  0
 26 38  1  1  0  0  0
 27 28  1  0  0  0  0
 27 29  1  6  0  0  0
 29 30  1  0  0  0  0
 31 32  1  1  0  0  0
 31 33  1  0  0  0  0
 31 39  1  0  0  0  0
 33 34  1  6  0  0  0
 33 35  1  0  0  0  0
 35 36  1  6  0  0  0
 35 37  1  0  0  0  0
 37 38  1  1  0  0  0
 37 40  1  0  0  0  0
 39 40  1  0  0  0  0
 39 41  1  6  0  0  0
 41 42  1  0  0  0  0
M  CHG  5   4   1  14   1  21   1  36   1  42   1
M  END
>  <CHROM.1>
-111.13934173,144.93287280,84.48137818,58.69928816,-64.84814004,67.01892920
-66.81388688,-57.11155632,-66.66956722,-88.36311257,-169.40171164,85.99954877
69.88192174,52.45801503,-167.76571575,-173.97394358,-52.61560453,62.21120614
-143.38139336,-166.13356902,-41.94998599,135.12405396,3.18098401,-0.39682888
39.02049887,-1.55640909,-0.61669546,2.51770612

>  <Name>
1pbr

>  <RI>
0

>  <Rbt.Current_Directory>
/home/itssahil/PROJECTS/Mol_Feturizer/New_Systems/rnas/1pbr

>  <Rbt.Executable>
rbdock ($Id: //depot/dev/client3/rdock/2013.1/src/exe/rbdock.cxx#4 $)

>  <Rbt.Library>
libRbt.so (2013.1, Build901 2013/11/27)

>  <Rbt.Parameter_File>
/export/apps/rDock/src/rDock_2013.1_src/data/scripts/dock_solv.prm

>  <Rbt.Receptor>
prm/pocket_docking_7.prm

>  <SCORE>
-39.9811

>  <SCORE.INTER>
-33.634

>  <SCORE.INTER.CONST>
1

>  <SCORE.INTER.POLAR>
-4.83662

>  <SCORE.INTER.ROT>
9

>  <SCORE.INTER.SOLV>
19.1203

>  <SCORE.INTER.VDW>
-22.274

>  <SCORE.INTER.norm>
-0.800808

>  <SCORE.INTRA>
-6.34716

>  <SCORE.INTRA.DIHEDRAL>
-1.66506

>  <SCORE.INTRA.DIHEDRAL.0>
29.7866

>  <SCORE.INTRA.POLAR>
-2.72273

>  <SCORE.INTRA.POLAR.0>
-0.984091

>  <SCORE.INTRA.REPUL>
-0.274115

>  <SCORE.INTRA.REPUL.0>
0.274115

>  <SCORE.INTRA.SOLV>
9.62207

>  <SCORE.INTRA.SOLV.lig_0>
-152.978

>  <SCORE.INTRA.VDW>
0.302181

>  <SCORE.INTRA.VDW.0>
-6.10719

>  <SCORE.INTRA.norm>
-0.151123

>  <SCORE.RESTR>
0

>  <SCORE.RESTR.CAVITY>
0

>  <SCORE.RESTR.norm>
0

>  <SCORE.SYSTEM>
0

>  <SCORE.SYSTEM.CONST>
0

>  <SCORE.SYSTEM.DIHEDRAL>
0

>  <SCORE.SYSTEM.SOLV>
0

>  <SCORE.SYSTEM.norm>
0

>  <SCORE.heavy>
42

>  <SCORE.norm>
-0.951931

>  <RMSD>
8.691

$$$$
1pbr
 OpenBabel11021811403D
libRbt.so/2013.1/901 2013/11/27
 42 45  0  0  0  0  0  0  0  0999 V2000
    0.6118    2.3949   37.4503 C   0  0  2  0  0  0  0  0  0  0  0  0
    0.6786    1.2053   36.6235 O   0  0  0  0  0  0  0  0  0  0  0  0
   -0.8324    2.5795   38.0490 C   0  0  2  0  0  0  0  0  0  0  0  0
   -1.4690    1.3226   38.5213 N   0  3  0  0  0  0  0  0  0  0  0  0
   -1.7997    3.1918   37.0184 C   0  0  1  0  0  0  0  0  0  0  0  0
   -3.0160    3.5957   37.6435 O   0  0  0  0  0  0  0  0  0  0  0  0
   -1.1629    4.3986   36.3128 C   0  0  2  0  0  0  0  0  0  0  0  0
   -2.0866    4.9774   35.3963 O   0  0  0  0  0  0  0  0  0  0  0  0
    0.1681    3.9986   35.6384 C   0  0  2  0  0  0  0  0  0  0  0  0
    1.0524    3.5529   36.6885 O   0  0  0  0  0  0  0  0  0  0  0  0
    0.8610    5.1383   34.8932 C   0  0  0  0  0  0  0  0  0  0  0  0
    2.0358    4.6838   34.2346 O   0  0  0  0  0  0  0  0  0  0  0  0
    3.2964   -2.1089   36.0142 C   0  0  1  0  0  0  0  0  0  0  0  0
    4.4424   -3.0261   35.8753 N   0  3  0  0  0  0  0  0  0  0  0  0
    3.0786   -1.6553   37.4895 C   0  0  2  0  0  0  0  0  0  0  0  0
    2.8517   -2.7850   38.3291 O   0  0  0  0  0  0  0  0  0  0  0  0
    1.8566   -0.6987   37.6122 C   0  0  1  0  0  0  0  0  0  0  0  0
    1.8075   -0.1776   38.9736 O   0  0  0  0  0  0  0  0  0  0  0  0
    1.9388    0.4925   36.6026 C   0  0  1  0  0  0  0  0  0  0  0  0
    2.2118    0.0273   35.1364 C   0  0  1  0  0  0  0  0  0  0  0  0
    2.3832    1.1786   34.2229 N   0  3  0  0  0  0  0  0  0  0  0  0
    3.4686   -0.8790   35.0754 C   0  0  0  0  0  0  0  0  0  0  0  0
    2.3412    1.1532   39.2669 C   0  0  1  0  0  0  0  0  0  0  0  0
    2.0683    1.4786   40.7473 C   0  0  2  0  0  0  0  0  0  0  0  0
    2.0144    2.8864   40.9605 O   0  0  0  0  0  0  0  0  0  0  0  0
    3.3215    0.8436   41.3686 C   0  0  1  0  0  0  0  0  0  0  0  0
    4.4160    1.2770   40.4074 C   0  0  2  0  0  0  0  0  0  0  0  0
    3.7747    1.1545   39.1471 O   0  0  0  0  0  0  0  0  0  0  0  0
    5.6911    0.4246   40.4420 C   0  0  0  0  0  0  0  0  0  0  0  0
    6.0624    0.0494   39.1238 O   0  0  0  0  0  0  0  0  0  0  0  0
    2.8073   -0.8551   46.4024 C   0  0  1  0  0  0  0  0  0  0  0  0
    2.2459    0.2684   47.0786 O   0  0  0  0  0  0  0  0  0  0  0  0
    1.9218   -1.2141   45.1766 C   0  0  2  0  0  0  0  0  0  0  0  0
    2.2634   -2.5274   44.7395 O   0  0  0  0  0  0  0  0  0  0  0  0
    2.0310   -0.2354   43.9616 C   0  0  1  0  0  0  0  0  0  0  0  0
    1.1196    0.9156   44.1449 N   0  3  0  0  0  0  0  0  0  0  0  0
    3.4975    0.1962   43.6971 C   0  0  1  0  0  0  0  0  0  0  0  0
    3.6329    1.2627   42.7259 O   0  0  0  0  0  0  0  0  0  0  0  0
    4.2480   -0.5336   45.9313 C   0  0  1  0  0  0  0  0  0  0  0  0
    4.1642    0.5427   44.9576 O   0  0  0  0  0  0  0  0  0  0  0  0
    5.2107   -0.1672   47.0763 C   0  0  0  0  0  0  0  0  0  0  0  0
    5.5721   -1.3295   47.9112 N   0  3  0  0  0  0  0  0  0  0  0  0
  1  2  1  6  0  0  0
  1  3  1  0  0  0  0
  1 10  1  0  0  0  0
  3  4  1  6  0  0  0
  3  5  1  0  0  0  0
  5  6  1  1  0  0  0
  5  7  1  0  0  0  0
  7  8  1  6  0  0  0
  7  9  1  0  0  0  0
  9 10  1  0  0  0  0
  9 11  1  1  0  0  0
 11 12  1  0  0  0  0
 13 14  1  1  0  0  0
 13 15  1  0  0  0  0
 13 22  1  0  0  0  0
 15 16  1  1  0  0  0
 15 17  1  0  0  0  0
 17 18  1  1  0  0  0
 17 19  1  0  0  0  0
 19  2  1  6  0  0  0
 19 20  1  0  0  0  0
 20 21  1  6  0  0  0
 20 22  1  0  0  0  0
 23 18  1  1  0  0  0
 23 24  1  0  0  0  0
 23 28  1  0  0  0  0
 24 25  1  6  0  0  0
 24 26  1  0  0  0  0
 26 27  1  0  0  0  0
 26 38  1  1  0  0  0
 27 28  1  0  0  0  0
 27 29  1  6  0  0  0
 29 30  1  0  0  0  0
 31 32  1  6  0  0  0
 31 33  1  0  0  0  0
 31 39  1  0  0  0  0
 33 34  1  6  0  0  0
 33 35  1  0  0  0  0
 35 36  1  1  0  0  0
 35 37  1  0  0  0  0
 37 38  1  6  0  0  0
 37 40  1  0  0  0  0
 39 40  1  0  0  0  0
 39 41  1  1  0  0  0
 41 42  1  0  0  0  0
M  CHG  5   4   1  14   1  21   1  36   1  42   1
M  END
>  <CHROM.1>
-147.22770158,97.46236559,147.72138733,-72.10847184,50.16766461,-176.64481692
63.45140377,-153.03828715,-175.37560793,99.02271056,176.05831382,-67.46518367
110.38256490,113.37380921,130.67910296,-55.79176080,-179.52992426,67.53394939
-175.71342636,-70.24500538,71.77243464,-30.82298265,2.15397095,0.88132938
39.75491002,1.99208923,0.77466175,-1.57240073

>  <Name>
1pbr

>  <RI>
0

>  <Rbt.Current_Directory>
/home/itssahil/PROJECTS/Mol_Feturizer/New_Systems/rnas/1pbr

>  <Rbt.Executable>
rbdock ($Id: //depot/dev/client3/rdock/2013.1/src/exe/rbdock.cxx#4 $)

>  <Rbt.Library>
libRbt.so (2013.1, Build901 2013/11/27)

>  <Rbt.Parameter_File>
/export/apps/rDock/src/rDock_2013.1_src/data/scripts/dock_solv.prm

>  <Rbt.Receptor>
prm/blind_docking_100.prm

>  <SCORE>
-27.9904

>  <SCORE.INTER>
-39.5204

>  <SCORE.INTER.CONST>
1

>  <SCORE.INTER.POLAR>
-6.45109

>  <SCORE.INTER.ROT>
9

>  <SCORE.INTER.SOLV>
39.7005

>  <SCORE.INTER.VDW>
-27.6768

>  <SCORE.INTER.norm>
-0.940961

>  <SCORE.INTRA>
9.26774

>  <SCORE.INTRA.DIHEDRAL>
11.6195

>  <SCORE.INTRA.DIHEDRAL.0>
29.7866

>  <SCORE.INTRA.POLAR>
0.873095

>  <SCORE.INTRA.POLAR.0>
-0.984091

>  <SCORE.INTRA.REPUL>
-0.274115

>  <SCORE.INTRA.REPUL.0>
0.274115

>  <SCORE.INTRA.SOLV>
0.689589

>  <SCORE.INTRA.SOLV.lig_0>
-152.978

>  <SCORE.INTRA.VDW>
1.51523

>  <SCORE.INTRA.VDW.0>
-6.10719

>  <SCORE.INTRA.norm>
0.22066

>  <SCORE.RESTR>
2.26225

>  <SCORE.RESTR.CAVITY>
2.26225

>  <SCORE.RESTR.norm>
0.053863

>  <SCORE.SYSTEM>
0

>  <SCORE.SYSTEM.CONST>
0

>  <SCORE.SYSTEM.DIHEDRAL>
0

>  <SCORE.SYSTEM.SOLV>
0

>  <SCORE.SYSTEM.norm>
0

>  <SCORE.heavy>
42

>  <SCORE.norm>
-0.666437

>  <RMSD>
8.693

$$$$
1pbr
 OpenBabel11021811403D
libRbt.so/2013.1/901 2013/11/27
 42 45  0  0  0  0  0  0  0  0999 V2000
    4.6354    0.5327   37.6137 C   0  0  2  0  0  0  0  0  0  0  0  0
    3.8214    1.4811   36.8781 O   0  0  0  0  0  0  0  0  0  0  0  0
    5.8487    0.0408   36.7395 C   0  0  2  0  0  0  0  0  0  0  0  0
    6.5074    1.1086   35.9431 N   0  3  0  0  0  0  0  0  0  0  0  0
    5.4201   -1.0446   35.7340 C   0  0  1  0  0  0  0  0  0  0  0  0
    6.5597   -1.6636   35.1411 O   0  0  0  0  0  0  0  0  0  0  0  0
    4.5533   -2.1152   36.4139 C   0  0  2  0  0  0  0  0  0  0  0  0
    4.2035   -3.1320   35.4800 O   0  0  0  0  0  0  0  0  0  0  0  0
    3.3167   -1.4748   37.0824 C   0  0  2  0  0  0  0  0  0  0  0  0
    3.8088   -0.5653   38.0894 O   0  0  0  0  0  0  0  0  0  0  0  0
    2.3856   -2.4741   37.7669 C   0  0  0  0  0  0  0  0  0  0  0  0
    3.0498   -3.1585   38.8209 O   0  0  0  0  0  0  0  0  0  0  0  0
   -0.2914    2.6156   36.9521 C   0  0  1  0  0  0  0  0  0  0  0  0
   -1.7647    2.6729   36.9519 N   0  3  0  0  0  0  0  0  0  0  0  0
    0.2737    1.9599   38.2484 C   0  0  2  0  0  0  0  0  0  0  0  0
   -0.1457    2.6900   39.3989 O   0  0  0  0  0  0  0  0  0  0  0  0
    1.8300    1.9225   38.2307 C   0  0  1  0  0  0  0  0  0  0  0  0
    2.2907    1.1512   39.3796 O   0  0  0  0  0  0  0  0  0  0  0  0
    2.3877    1.2823   36.9176 C   0  0  1  0  0  0  0  0  0  0  0  0
    1.7721    1.9116   35.6269 C   0  0  1  0  0  0  0  0  0  0  0  0
    2.2428    1.2200   34.4064 N   0  3  0  0  0  0  0  0  0  0  0  0
    0.2231    1.8722   35.6848 C   0  0  0  0  0  0  0  0  0  0  0  0
    2.1318    1.6879   40.7319 C   0  0  1  0  0  0  0  0  0  0  0  0
    1.8953    0.5160   41.7029 C   0  0  2  0  0  0  0  0  0  0  0  0
    1.1818    0.9452   42.8591 O   0  0  0  0  0  0  0  0  0  0  0  0
    3.3574    0.1655   42.0182 C   0  0  1  0  0  0  0  0  0  0  0  0
    3.9886    1.5361   42.1982 C   0  0  2  0  0  0  0  0  0  0  0  0
    3.3585    2.2936   41.1766 O   0  0  0  0  0  0  0  0  0  0  0  0
    5.5131    1.5804   42.0316 C   0  0  0  0  0  0  0  0  0  0  0  0
    5.8948    0.8874   40.8525 O   0  0  0  0  0  0  0  0  0  0  0  0
    2.5962    0.0607   47.3492 C   0  0  1  0  0  0  0  0  0  0  0  0
    2.8169   -1.2840   47.7708 O   0  0  0  0  0  0  0  0  0  0  0  0
    3.9314    0.6641   46.8308 C   0  0  2  0  0  0  0  0  0  0  0  0
    3.7945    2.0818   46.7686 O   0  0  0  0  0  0  0  0  0  0  0  0
    4.4045    0.1427   45.4343 C   0  0  1  0  0  0  0  0  0  0  0  0
    5.1607   -1.1200   45.5858 N   0  3  0  0  0  0  0  0  0  0  0  0
    3.2256    0.0201   44.4334 C   0  0  1  0  0  0  0  0  0  0  0  0
    3.5672   -0.6570   43.1989 O   0  0  0  0  0  0  0  0  0  0  0  0
    1.5310    0.1031   46.2248 C   0  0  1  0  0  0  0  0  0  0  0  0
    2.0696   -0.6122   45.0794 O   0  0  0  0  0  0  0  0  0  0  0  0
    0.1636   -0.4712   46.6400 C   0  0  0  0  0  0  0  0  0  0  0  0
   -0.2600   -1.6036   45.7934 N   0  3  0  0  0  0  0  0  0  0  0  0
  1  2  1  6  0  0  0
  1  3  1  0  0  0  0
  1 10  1  0  0  0  0
  3  4  1  6  0  0  0
  3  5  1  0  0  0  0
  5  6  1  1  0  0  0
  5  7  1  0  0  0  0
  7  8  1  6  0  0  0
  7  9  1  0  0  0  0
  9 10  1  0  0  0  0
  9 11  1  1  0  0  0
 11 12  1  0  0  0  0
 13 14  1  1  0  0  0
 13 15  1  0  0  0  0
 13 22  1  0  0  0  0
 15 16  1  1  0  0  0
 15 17  1  0  0  0  0
 17 18  1  1  0  0  0
 17 19  1  0  0  0  0
 19  2  1  6  0  0  0
 19 20  1  0  0  0  0
 20 21  1  6  0  0  0
 20 22  1  0  0  0  0
 23 18  1  6  0  0  0
 23 24  1  0  0  0  0
 23 28  1  0  0  0  0
 24 25  1  1  0  0  0
 24 26  1  0  0  0  0
 26 27  1  0  0  0  0
 26 38  1  1  0  0  0
 27 28  1  0  0  0  0
 27 29  1  6  0  0  0
 29 30  1  0  0  0  0
 31 32  1  6  0  0  0
 31 33  1  0  0  0  0
 31 39  1  0  0  0  0
 33 34  1  6  0  0  0
 33 35  1  0  0  0  0
 35 36  1  1  0  0  0
 35 37  1  0  0  0  0
 37 38  1  6  0  0  0
 37 40  1  0  0  0  0
 39 40  1  0  0  0  0
 39 41  1  1  0  0  0
 41 42  1  0  0  0  0
M  CHG  5   4   1  14   1  21   1  36   1  42   1
M  END
>  <CHROM.1>
133.57513410,83.02420724,-95.47604446,58.82601784,-179.91015630,61.80678890
59.74562992,64.06344897,155.54333532,-69.49626238,147.29824858,63.31188469
69.08253998,-66.78697334,47.59746534,-64.95102548,68.71732097,-179.14742835
70.34768530,-120.68785618,-121.14488089,85.27239248,2.94306493,0.29819685
40.44137416,-1.50468377,-0.48725314,1.62974435

>  <Name>
1pbr

>  <RI>
0

>  <Rbt.Current_Directory>
/home/itssahil/PROJECTS/Mol_Feturizer/New_Systems/rnas/1pbr

>  <Rbt.Executable>
rbdock ($Id: //depot/dev/client3/rdock/2013.1/src/exe/rbdock.cxx#4 $)

>  <Rbt.Library>
libRbt.so (2013.1, Build901 2013/11/27)

>  <Rbt.Parameter_File>
/export/apps/rDock/src/rDock_2013.1_src/data/scripts/dock_solv.prm

>  <Rbt.Receptor>
prm/blind_docking_100.prm

>  <SCORE>
-18.7949

>  <SCORE.INTER>
-26.6587

>  <SCORE.INTER.CONST>
1

>  <SCORE.INTER.POLAR>
-2.87813

>  <SCORE.INTER.ROT>
9

>  <SCORE.INTER.SOLV>
36.3988

>  <SCORE.INTER.VDW>
-29.9116

>  <SCORE.INTER.norm>
-0.63473

>  <SCORE.INTRA>
6.8057

>  <SCORE.INTRA.DIHEDRAL>
4.83877

>  <SCORE.INTRA.DIHEDRAL.0>
29.7866

>  <SCORE.INTRA.POLAR>
0.887717

>  <SCORE.INTRA.POLAR.0>
-0.984091

>  <SCORE.INTRA.REPUL>
-0.226461

>  <SCORE.INTRA.REPUL.0>
0.274115

>  <SCORE.INTRA.SOLV>
-0.825037

>  <SCORE.INTRA.SOLV.lig_0>
-152.978

>  <SCORE.INTRA.VDW>
2.9129

>  <SCORE.INTRA.VDW.0>
-6.10719

>  <SCORE.INTRA.norm>
0.16204

>  <SCORE.RESTR>
1.05807

>  <SCORE.RESTR.CAVITY>
1.05807

>  <SCORE.RESTR.norm>
0.0251921

>  <SCORE.SYSTEM>
0

>  <SCORE.SYSTEM.CONST>
0

>  <SCORE.SYSTEM.DIHEDRAL>
0

>  <SCORE.SYSTEM.SOLV>
0

>  <SCORE.SYSTEM.norm>
0

>  <SCORE.heavy>
42

>  <SCORE.norm>
-0.447498

>  <RMSD>
8.696

$$$$
1pbr
 OpenBabel11021811403D
libRbt.so/2013.1/901 2013/11/27
 42 45  0  0  0  0  0  0  0  0999 V2000
    2.8571   -0.5252   39.9933 C   0  0  2  0  0  0  0  0  0  0  0  0
    4.1797    0.0680   40.0399 O   0  0  0  0  0  0  0  0  0  0  0  0
    2.6478   -1.3203   38.6508 C   0  0  2  0  0  0  0  0  0  0  0  0
    3.8241   -2.1181   38.2173 N   0  3  0  0  0  0  0  0  0  0  0  0
    2.3110   -0.3777   37.4800 C   0  0  1  0  0  0  0  0  0  0  0  0
    1.8678   -1.1187   36.3452 O   0  0  0  0  0  0  0  0  0  0  0  0
    1.2295    0.6366   37.8817 C   0  0  2  0  0  0  0  0  0  0  0  0
    0.9002    1.4701   36.7749 O   0  0  0  0  0  0  0  0  0  0  0  0
    1.6714    1.4458   39.1211 C   0  0  2  0  0  0  0  0  0  0  0  0
    1.8466    0.5006   40.1978 O   0  0  0  0  0  0  0  0  0  0  0  0
    0.6600    2.4958   39.5779 C   0  0  0  0  0  0  0  0  0  0  0  0
   -0.5194    1.8877   40.0874 O   0  0  0  0  0  0  0  0  0  0  0  0
    7.7245   -1.1193   42.0973 C   0  0  1  0  0  0  0  0  0  0  0  0
    8.7637   -1.4636   43.0848 N   0  3  0  0  0  0  0  0  0  0  0  0
    6.5397   -2.1321   42.1095 C   0  0  2  0  0  0  0  0  0  0  0  0
    7.0075   -3.4487   41.8261 O   0  0  0  0  0  0  0  0  0  0  0  0
    5.4626   -1.7549   41.0507 C   0  0  1  0  0  0  0  0  0  0  0  0
    4.3102   -2.6315   41.2255 O   0  0  0  0  0  0  0  0  0  0  0  0
    5.0066   -0.2648   41.1810 C   0  0  1  0  0  0  0  0  0  0  0  0
    6.2061    0.7353   41.2225 C   0  0  1  0  0  0  0  0  0  0  0  0
    5.7490    2.1247   41.4460 N   0  3  0  0  0  0  0  0  0  0  0  0
    7.2150    0.3333   42.3293 C   0  0  0  0  0  0  0  0  0  0  0  0
    4.4392   -4.0676   40.9751 C   0  0  1  0  0  0  0  0  0  0  0  0
    4.2181   -4.8210   42.3001 C   0  0  2  0  0  0  0  0  0  0  0  0
    4.8706   -6.0876   42.2839 O   0  0  0  0  0  0  0  0  0  0  0  0
    2.6885   -4.9538   42.2496 C   0  0  1  0  0  0  0  0  0  0  0  0
    2.4431   -5.3348   40.7990 C   0  0  2  0  0  0  0  0  0  0  0  0
    3.3817   -4.5215   40.1118 O   0  0  0  0  0  0  0  0  0  0  0  0
    1.0240   -5.0634   40.2832 C   0  0  0  0  0  0  0  0  0  0  0  0
    0.8970   -5.5179   38.9439 O   0  0  0  0  0  0  0  0  0  0  0  0
   -1.5933   -5.9666   45.3714 C   0  0  1  0  0  0  0  0  0  0  0  0
   -1.4326   -7.2891   45.8813 O   0  0  0  0  0  0  0  0  0  0  0  0
   -0.4557   -5.0609   45.9203 C   0  0  2  0  0  0  0  0  0  0  0  0
   -0.8248   -3.6983   45.7211 O   0  0  0  0  0  0  0  0  0  0  0  0
    0.9542   -5.2979   45.2863 C   0  0  1  0  0  0  0  0  0  0  0  0
    1.6501   -6.4048   45.9788 N   0  3  0  0  0  0  0  0  0  0  0  0
    0.8698   -5.5087   43.7517 C   0  0  1  0  0  0  0  0  0  0  0  0
    2.1123   -5.9430   43.1462 O   0  0  0  0  0  0  0  0  0  0  0  0
   -1.5512   -5.9792   43.8226 C   0  0  1  0  0  0  0  0  0  0  0  0
   -0.2272   -6.4254   43.4206 O   0  0  0  0  0  0  0  0  0  0  0  0
   -2.6457   -6.8493   43.1767 C   0  0  0  0  0  0  0  0  0  0  0  0
   -2.4550   -8.2900   43.4348 N   0  3  0  0  0  0  0  0  0  0  0  0
  1  2  1  6  0  0  0
  1  3  1  0  0  0  0
  1 10  1  0  0  0  0
  3  4  1  6  0  0  0
  3  5  1  0  0  0  0
  5  6  1  6  0  0  0
  5  7  1  0  0  0  0
  7  8  1  6  0  0  0
  7  9  1  0  0  0  0
  9 10  1  0  0  0  0
  9 11  1  1  0  0  0
 11 12  1  0  0  0  0
 13 14  1  1  0  0  0
 13 15  1  0  0  0  0
 13 22  1  0  0  0  0
 15 16  1  6  0  0  0
 15 17  1  0  0  0  0
 17 18  1  1  0  0  0
 17 19  1  0  0  0  0
 19  2  1  6  0  0  0
 19 20  1  0  0  0  0
 20 21  1  1  0  0  0
 20 22  1  0  0  0  0
 23 18  1  1  0  0  0
 23 24  1  0  0  0  0
 23 28  1  0  0  0  0
 24 25  1  6  0  0  0
 24 26  1  0  0  0  0
 26 27  1  0  0  0  0
 26 38  1  1  0  0  0
 27 28  1  0  0  0  0
 27 29  1  6  0  0  0
 29 30  1  0  0  0  0
 31 32  1  1  0  0  0
 31 33  1  0  0  0  0
 31 39  1  0  0  0  0
 33 34  1  6  0  0  0
 33 35  1  0  0  0  0
 35 36  1  1  0  0  0
 35 37  1  0  0  0  0
 37 38  1  1  0  0  0
 37 40  1  0  0  0  0
 39 40  1  0  0  0  0
 39 41  1  6  0  0  0
 41 42  1  0  0  0  0
M  CHG  5   4   1  14   1  21   1  36   1  42   1
M  END
>  <CHROM.1>
-124.41807092,71.28571914,63.47922551,-73.61276471,-176.40913539,67.68399974
64.78105149,62.64970944,-59.13638208,-65.36919158,115.28896303,56.57389419
62.39375664,140.98705696,-177.15846820,60.68212898,83.62373957,174.13190266
-173.63987838,-113.56356741,-67.73820372,-73.27333274,2.50671050,-2.87621556
41.53993129,1.04084627,-0.21741944,-0.72285708

>  <Name>
1pbr

>  <RI>
0

>  <Rbt.Current_Directory>
/home/itssahil/PROJECTS/Mol_Feturizer/New_Systems/rnas/1pbr

>  <Rbt.Executable>
rbdock ($Id: //depot/dev/client3/rdock/2013.1/src/exe/rbdock.cxx#4 $)

>  <Rbt.Library>
libRbt.so (2013.1, Build901 2013/11/27)

>  <Rbt.Parameter_File>
/export/apps/rDock/src/rDock_2013.1_src/data/scripts/dock_solv.prm

>  <Rbt.Receptor>
prm/pocket_docking_6.prm

>  <SCORE>
-27.1932

>  <SCORE.INTER>
-24.97

>  <SCORE.INTER.CONST>
1

>  <SCORE.INTER.POLAR>
-3.47501

>  <SCORE.INTER.ROT>
9

>  <SCORE.INTER.SOLV>
25.7081

>  <SCORE.INTER.VDW>
-23.2326

>  <SCORE.INTER.norm>
-0.594523

>  <SCORE.INTRA>
-2.24125

>  <SCORE.INTRA.DIHEDRAL>
2.51063

>  <SCORE.INTRA.DIHEDRAL.0>
29.7866

>  <SCORE.INTRA.POLAR>
-0.896157

>  <SCORE.INTRA.POLAR.0>
-0.984091

>  <SCORE.INTRA.REPUL>
-0.274115

>  <SCORE.INTRA.REPUL.0>
0.274115

>  <SCORE.INTRA.SOLV>
1.3785

>  <SCORE.INTRA.SOLV.lig_0>
-152.978

>  <SCORE.INTRA.VDW>
0.231692

>  <SCORE.INTRA.VDW.0>
-6.10719

>  <SCORE.INTRA.norm>
-0.0533631

>  <SCORE.RESTR>
0.0179673

>  <SCORE.RESTR.CAVITY>
0.0179673

>  <SCORE.RESTR.norm>
0.000427793

>  <SCORE.SYSTEM>
0

>  <SCORE.SYSTEM.CONST>
0

>  <SCORE.SYSTEM.DIHEDRAL>
0

>  <SCORE.SYSTEM.SOLV>
0

>  <SCORE.SYSTEM.norm>
0

>  <SCORE.heavy>
42

>  <SCORE.norm>
-0.647458

>  <RMSD>
8.697

$$$$
1pbr
 OpenBabel11021811403D
libRbt.so/2013.1/901 2013/11/27
 42 45  0  0  0  0  0  0  0  0999 V2000
    1.4611    3.0428   36.3737 C   0  0  2  0  0  0  0  0  0  0  0  0
    2.2724    2.8513   37.5605 O   0  0  0  0  0  0  0  0  0  0  0  0
    1.3570    4.5705   36.0080 C   0  0  2  0  0  0  0  0  0  0  0  0
    2.6268    5.3278   36.1573 N   0  3  0  0  0  0  0  0  0  0  0  0
    0.3178    5.2941   36.8850 C   0  0  1  0  0  0  0  0  0  0  0  0
    0.0435    6.5967   36.3740 O   0  0  0  0  0  0  0  0  0  0  0  0
   -0.9897    4.4919   36.9669 C   0  0  2  0  0  0  0  0  0  0  0  0
   -1.9522    5.1965   37.7449 O   0  0  0  0  0  0  0  0  0  0  0  0
   -0.7249    3.0669   37.5016 C   0  0  2  0  0  0  0  0  0  0  0  0
    0.1584    2.4232   36.5590 O   0  0  0  0  0  0  0  0  0  0  0  0
   -1.9786    2.2041   37.6352 C   0  0  0  0  0  0  0  0  0  0  0  0
   -2.7658    2.2529   36.4526 O   0  0  0  0  0  0  0  0  0  0  0  0
    4.4548   -0.4143   35.8929 C   0  0  1  0  0  0  0  0  0  0  0  0
    5.3546   -1.5508   35.6234 N   0  3  0  0  0  0  0  0  0  0  0  0
    3.3414   -0.7741   36.9227 C   0  0  2  0  0  0  0  0  0  0  0  0
    2.5554   -1.8636   36.4454 O   0  0  0  0  0  0  0  0  0  0  0  0
    2.3975    0.4367   37.1808 C   0  0  1  0  0  0  0  0  0  0  0  0
    1.4894    0.0958   38.2699 O   0  0  0  0  0  0  0  0  0  0  0  0
    3.1909    1.7320   37.5520 C   0  0  1  0  0  0  0  0  0  0  0  0
    4.3390    2.0506   36.5415 C   0  0  1  0  0  0  0  0  0  0  0  0
    5.1335    3.2224   36.9720 N   0  3  0  0  0  0  0  0  0  0  0  0
    5.2708    0.8234   36.3679 C   0  0  0  0  0  0  0  0  0  0  0  0
    0.8980    1.1555   39.0878 C   0  0  1  0  0  0  0  0  0  0  0  0
   -0.0198    0.5102   40.1429 C   0  0  2  0  0  0  0  0  0  0  0  0
   -1.0330    1.4189   40.5647 O   0  0  0  0  0  0  0  0  0  0  0  0
    1.0219    0.2494   41.2413 C   0  0  1  0  0  0  0  0  0  0  0  0
    1.8310    1.5359   41.2339 C   0  0  2  0  0  0  0  0  0  0  0  0
    1.9175    1.8284   39.8477 O   0  0  0  0  0  0  0  0  0  0  0  0
    3.2342    1.4288   41.8448 C   0  0  0  0  0  0  0  0  0  0  0  0
    3.9828    2.6000   41.5546 O   0  0  0  0  0  0  0  0  0  0  0  0
    2.5847   -1.1230   46.1799 C   0  0  1  0  0  0  0  0  0  0  0  0
    1.6266   -0.5524   47.0694 O   0  0  0  0  0  0  0  0  0  0  0  0
    1.9200   -2.2761   45.3773 C   0  0  2  0  0  0  0  0  0  0  0  0
    2.9475   -3.0672   44.7848 O   0  0  0  0  0  0  0  0  0  0  0  0
    0.9235   -1.8264   44.2591 C   0  0  1  0  0  0  0  0  0  0  0  0
   -0.4215   -1.5960   44.8310 N   0  3  0  0  0  0  0  0  0  0  0  0
    1.4568   -0.6035   43.4674 C   0  0  1  0  0  0  0  0  0  0  0  0
    0.4864   -0.0141   42.5674 O   0  0  0  0  0  0  0  0  0  0  0  0
    3.1192   -0.0456   45.2031 C   0  0  1  0  0  0  0  0  0  0  0  0
    2.0031    0.4021   44.3860 O   0  0  0  0  0  0  0  0  0  0  0  0
    3.8029    1.1446   45.9018 C   0  0  0  0  0  0  0  0  0  0  0  0
    4.7295    0.7227   46.9704 N   0  3  0  0  0  0  0  0  0  0  0  0
  1  2  1  1  0  0  0
  1  3  1  0  0  0  0
  1 10  1  0  0  0  0
  3  4  1  1  0  0  0
  3  5  1  0  0  0  0
  5  6  1  6  0  0  0
  5  7  1  0  0  0  0
  7  8  1  1  0  0  0
  7  9  1  0  0  0  0
  9 10  1  0  0  0  0
  9 11  1  6  0  0  0
 11 12  1  0  0  0  0
 13 14  1  1  0  0  0
 13 15  1  0  0  0  0
 13 22  1  0  0  0  0
 15 16  1  6  0  0  0
 15 17  1  0  0  0  0
 17 18  1  1  0  0  0
 17 19  1  0  0  0  0
 19  2  1  6  0  0  0
 19 20  1  0  0  0  0
 20 21  1  1  0  0  0
 20 22  1  0  0  0  0
 23 18  1  6  0  0  0
 23 24  1  0  0  0  0
 23 28  1  0  0  0  0
 24 25  1  1  0  0  0
 24 26  1  0  0  0  0
 26 27  1  0  0  0  0
 26 38  1  1  0  0  0
 27 28  1  0  0  0  0
 27 29  1  6  0  0  0
 29 30  1  0  0  0  0
 31 32  1  1  0  0  0
 31 33  1  0  0  0  0
 31 39  1  0  0  0  0
 33 34  1  6  0  0  0
 33 35  1  0  0  0  0
 35 36  1  1  0  0  0
 35 37  1  0  0  0  0
 37 38  1  1  0  0  0
 37 40  1  0  0  0  0
 39 40  1  0  0  0  0
 39 41  1  1  0  0  0
 41 42  1  0  0  0  0
M  CHG  5   4   1  14   1  21   1  36   1  42   1
M  END
>  <CHROM.1>
-139.09040764,-52.59652782,76.09339511,79.92166093,154.42039613,48.48631141
176.52881671,-164.98136922,135.61784146,154.55927531,179.50356361,70.52956893
-64.19386692,164.13025414,168.81980153,-176.06115898,63.51620279,62.31605248
-62.22460377,-133.17732151,45.15312227,-70.25248629,1.76574080,1.27451089
39.94105916,1.69714067,0.57501659,-1.22518471

>  <Name>
1pbr

>  <RI>
0

>  <Rbt.Current_Directory>
/home/itssahil/PROJECTS/Mol_Feturizer/New_Systems/rnas/1pbr

>  <Rbt.Executable>
rbdock ($Id: //depot/dev/client3/rdock/2013.1/src/exe/rbdock.cxx#4 $)

>  <Rbt.Library>
libRbt.so (2013.1, Build901 2013/11/27)

>  <Rbt.Parameter_File>
/export/apps/rDock/src/rDock_2013.1_src/data/scripts/dock_solv.prm

>  <Rbt.Receptor>
prm/blind_docking_100.prm

>  <SCORE>
-32.1731

>  <SCORE.INTER>
-41.4691

>  <SCORE.INTER.CONST>
1

>  <SCORE.INTER.POLAR>
-6.84636

>  <SCORE.INTER.ROT>
9

>  <SCORE.INTER.SOLV>
43.3776

>  <SCORE.INTER.VDW>
-28.884

>  <SCORE.INTER.norm>
-0.987359

>  <SCORE.INTRA>
6.75038

>  <SCORE.INTRA.DIHEDRAL>
1.05109

>  <SCORE.INTRA.DIHEDRAL.0>
29.7866

>  <SCORE.INTRA.POLAR>
0.953823

>  <SCORE.INTRA.POLAR.0>
-0.984091

>  <SCORE.INTRA.REPUL>
-0.274115

>  <SCORE.INTRA.REPUL.0>
0.274115

>  <SCORE.INTRA.SOLV>
1.26564

>  <SCORE.INTRA.SOLV.lig_0>
-152.978

>  <SCORE.INTRA.VDW>
3.71959

>  <SCORE.INTRA.VDW.0>
-6.10719

>  <SCORE.INTRA.norm>
0.160723

>  <SCORE.RESTR>
2.54557

>  <SCORE.RESTR.CAVITY>
2.54557

>  <SCORE.RESTR.norm>
0.0606088

>  <SCORE.SYSTEM>
0

>  <SCORE.SYSTEM.CONST>
0

>  <SCORE.SYSTEM.DIHEDRAL>
0

>  <SCORE.SYSTEM.SOLV>
0

>  <SCORE.SYSTEM.norm>
0

>  <SCORE.heavy>
42

>  <SCORE.norm>
-0.766026

>  <RMSD>
8.705

$$$$
1pbr
 OpenBabel11021811403D
libRbt.so/2013.1/901 2013/11/27
 42 45  0  0  0  0  0  0  0  0999 V2000
    5.5152   -1.1672   38.1709 C   0  0  2  0  0  0  0  0  0  0  0  0
    6.0394   -0.5293   39.3631 O   0  0  0  0  0  0  0  0  0  0  0  0
    6.5463   -1.0700   36.9853 C   0  0  2  0  0  0  0  0  0  0  0  0
    7.9607   -1.3010   37.3781 N   0  3  0  0  0  0  0  0  0  0  0  0
    6.5067    0.3146   36.3114 C   0  0  1  0  0  0  0  0  0  0  0  0
    7.2416    0.3038   35.0894 O   0  0  0  0  0  0  0  0  0  0  0  0
    5.0606    0.7521   36.0337 C   0  0  2  0  0  0  0  0  0  0  0  0
    5.0457    2.0130   35.3718 O   0  0  0  0  0  0  0  0  0  0  0  0
    4.2308    0.7578   37.3367 C   0  0  2  0  0  0  0  0  0  0  0  0
    4.2204   -0.5976   37.8328 O   0  0  0  0  0  0  0  0  0  0  0  0
    2.7805    1.2025   37.1548 C   0  0  0  0  0  0  0  0  0  0  0  0
    2.7078    2.5374   36.6719 O   0  0  0  0  0  0  0  0  0  0  0  0
    4.9572   -0.6314   43.4894 C   0  0  1  0  0  0  0  0  0  0  0  0
    4.2797   -0.5702   44.7975 N   0  3  0  0  0  0  0  0  0  0  0  0
    4.4181   -1.7917   42.5990 C   0  0  2  0  0  0  0  0  0  0  0  0
    4.5957   -3.0455   43.2540 O   0  0  0  0  0  0  0  0  0  0  0  0
    5.1570   -1.8436   41.2298 C   0  0  1  0  0  0  0  0  0  0  0  0
    4.4984   -2.8308   40.3820 O   0  0  0  0  0  0  0  0  0  0  0  0
    5.1565   -0.4562   40.5085 C   0  0  1  0  0  0  0  0  0  0  0  0
    5.6473    0.7065   41.4294 C   0  0  1  0  0  0  0  0  0  0  0  0
    5.5417    2.0183   40.7531 N   0  3  0  0  0  0  0  0  0  0  0  0
    4.8388    0.7346   42.7523 C   0  0  0  0  0  0  0  0  0  0  0  0
    3.1369   -2.5906   39.9019 C   0  0  1  0  0  0  0  0  0  0  0  0
    2.6004   -3.8887   39.2702 C   0  0  2  0  0  0  0  0  0  0  0  0
    1.5887   -3.6092   38.3066 O   0  0  0  0  0  0  0  0  0  0  0  0
    2.0333   -4.5548   40.5329 C   0  0  1  0  0  0  0  0  0  0  0  0
    1.3462   -3.3936   41.2322 C   0  0  2  0  0  0  0  0  0  0  0  0
    2.2559   -2.3273   41.0082 O   0  0  0  0  0  0  0  0  0  0  0  0
    1.1082   -3.5846   42.7357 C   0  0  0  0  0  0  0  0  0  0  0  0
    0.4473   -2.4483   43.2727 O   0  0  0  0  0  0  0  0  0  0  0  0
    3.0598   -9.4752   39.9082 C   0  0  1  0  0  0  0  0  0  0  0  0
    2.9910   -9.8026   41.2948 O   0  0  0  0  0  0  0  0  0  0  0  0
    1.6203   -9.3659   39.3324 C   0  0  2  0  0  0  0  0  0  0  0  0
    1.6961   -9.4130   37.9095 O   0  0  0  0  0  0  0  0  0  0  0  0
    0.8265   -8.0853   39.7517 C   0  0  1  0  0  0  0  0  0  0  0  0
    0.1695   -8.2931   41.0610 N   0  3  0  0  0  0  0  0  0  0  0  0
    1.7190   -6.8167   39.7225 C   0  0  1  0  0  0  0  0  0  0  0  0
    1.0977   -5.6442   40.3041 O   0  0  0  0  0  0  0  0  0  0  0  0
    3.8064   -8.1321   39.7098 C   0  0  1  0  0  0  0  0  0  0  0  0
    3.0180   -7.0904   40.3478 O   0  0  0  0  0  0  0  0  0  0  0  0
    5.2502   -8.1369   40.2458 C   0  0  0  0  0  0  0  0  0  0  0  0
    5.3122   -8.2530   41.7159 N   0  3  0  0  0  0  0  0  0  0  0  0
  1  2  1  1  0  0  0
  1  3  1  0  0  0  0
  1 10  1  0  0  0  0
  3  4  1  1  0  0  0
  3  5  1  0  0  0  0
  5  6  1  6  0  0  0
  5  7  1  0  0  0  0
  7  8  1  1  0  0  0
  7  9  1  0  0  0  0
  9 10  1  0  0  0  0
  9 11  1  6  0  0  0
 11 12  1  0  0  0  0
 13 14  1  1  0  0  0
 13 15  1  0  0  0  0
 13 22  1  0  0  0  0
 15 16  1  1  0  0  0
 15 17  1  0  0  0  0
 17 18  1  6  0  0  0
 17 19  1  0  0  0  0
 19  2  1  6  0  0  0
 19 20  1  0  0  0  0
 20 21  1  6  0  0  0
 20 22  1  0  0  0  0
 23 18  1  1  0  0  0
 23 24  1  0  0  0  0
 23 28  1  0  0  0  0
 24 25  1  6  0  0  0
 24 26  1  0  0  0  0
 26 27  1  0  0  0  0
 26 38  1  6  0  0  0
 27 28  1  0  0  0  0
 27 29  1  1  0  0  0
 29 30  1  0  0  0  0
 31 32  1  1  0  0  0
 31 33  1  0  0  0  0
 31 39  1  0  0  0  0
 33 34  1  6  0  0  0
 33 35  1  0  0  0  0
 35 36  1  1  0  0  0
 35 37  1  0  0  0  0
 37 38  1  1  0  0  0
 37 40  1  0  0  0  0
 39 40  1  0  0  0  0
 39 41  1  1  0  0  0
 41 42  1  0  0  0  0
M  CHG  5   4   1  14   1  21   1  36   1  42   1
M  END
>  <CHROM.1>
175.61905178,79.38696243,92.37460145,80.38878174,71.64900742,-61.59107842
-178.66118483,53.63790198,66.03308811,67.19358926,-169.26614798,-39.87905332
60.92194294,68.18999614,-179.21804081,-178.76227639,-53.58461633,-64.63355639
85.62216484,167.44516850,-66.84058745,49.95075263,3.75575960,-3.07449042
39.82668910,-0.39143776,-1.22379329,-2.24889427

>  <Name>
1pbr

>  <RI>
0

>  <Rbt.Current_Directory>
/home/itssahil/PROJECTS/Mol_Feturizer/New_Systems/rnas/1pbr

>  <Rbt.Executable>
rbdock ($Id: //depot/dev/client3/rdock/2013.1/src/exe/rbdock.cxx#4 $)

>  <Rbt.Library>
libRbt.so (2013.1, Build901 2013/11/27)

>  <Rbt.Parameter_File>
/export/apps/rDock/src/rDock_2013.1_src/data/scripts/dock_solv.prm

>  <Rbt.Receptor>
prm/pocket_docking_7.prm

>  <SCORE>
-29.9318

>  <SCORE.INTER>
-22.2397

>  <SCORE.INTER.CONST>
1

>  <SCORE.INTER.POLAR>
-3.67811

>  <SCORE.INTER.ROT>
9

>  <SCORE.INTER.SOLV>
23.0776

>  <SCORE.INTER.VDW>
-19.8586

>  <SCORE.INTER.norm>
-0.529517

>  <SCORE.INTRA>
-7.69205

>  <SCORE.INTRA.DIHEDRAL>
-17.6051

>  <SCORE.INTRA.DIHEDRAL.0>
29.7866

>  <SCORE.INTRA.POLAR>
0.394186

>  <SCORE.INTRA.POLAR.0>
-0.984091

>  <SCORE.INTRA.REPUL>
-0.274115

>  <SCORE.INTRA.REPUL.0>
0.274115

>  <SCORE.INTRA.SOLV>
-0.474809

>  <SCORE.INTRA.SOLV.lig_0>
-152.978

>  <SCORE.INTRA.VDW>
1.37826

>  <SCORE.INTRA.VDW.0>
-6.10719

>  <SCORE.INTRA.norm>
-0.183144

>  <SCORE.RESTR>
0

>  <SCORE.RESTR.CAVITY>
0

>  <SCORE.RESTR.norm>
0

>  <SCORE.SYSTEM>
0

>  <SCORE.SYSTEM.CONST>
0

>  <SCORE.SYSTEM.DIHEDRAL>
0

>  <SCORE.SYSTEM.SOLV>
0

>  <SCORE.SYSTEM.norm>
0

>  <SCORE.heavy>
42

>  <SCORE.norm>
-0.712661

>  <RMSD>
8.714

$$$$
1pbr
 OpenBabel11021811403D
libRbt.so/2013.1/901 2013/11/27
 42 45  0  0  0  0  0  0  0  0999 V2000
    6.6715   -1.8131   43.5149 C   0  0  2  0  0  0  0  0  0  0  0  0
    5.7772   -0.6765   43.6224 O   0  0  0  0  0  0  0  0  0  0  0  0
    7.7476   -1.7885   44.6637 C   0  0  2  0  0  0  0  0  0  0  0  0
    7.2182   -1.3963   45.9957 N   0  3  0  0  0  0  0  0  0  0  0  0
    8.8917   -0.8065   44.3483 C   0  0  1  0  0  0  0  0  0  0  0  0
    9.9776   -0.9866   45.2548 O   0  0  0  0  0  0  0  0  0  0  0  0
    9.3934   -0.9881   42.9078 C   0  0  2  0  0  0  0  0  0  0  0  0
   10.4787   -0.1031   42.6488 O   0  0  0  0  0  0  0  0  0  0  0  0
    8.2359   -0.8162   41.8993 C   0  0  2  0  0  0  0  0  0  0  0  0
    7.2703   -1.8488   42.1900 O   0  0  0  0  0  0  0  0  0  0  0  0
    8.6520   -0.9606   40.4364 C   0  0  0  0  0  0  0  0  0  0  0  0
    9.2353   -2.2332   40.1900 O   0  0  0  0  0  0  0  0  0  0  0  0
    2.4561    1.0007   41.5331 C   0  0  1  0  0  0  0  0  0  0  0  0
    1.4587    1.4407   40.5403 N   0  3  0  0  0  0  0  0  0  0  0  0
    2.4395   -0.5438   41.7420 C   0  0  2  0  0  0  0  0  0  0  0  0
    1.1526   -0.9729   42.1804 O   0  0  0  0  0  0  0  0  0  0  0  0
    3.4913   -0.9820   42.8029 C   0  0  1  0  0  0  0  0  0  0  0  0
    3.5469   -2.4392   42.8297 O   0  0  0  0  0  0  0  0  0  0  0  0
    4.9139   -0.4134   42.4900 C   0  0  1  0  0  0  0  0  0  0  0  0
    4.9076    1.1269   42.2288 C   0  0  1  0  0  0  0  0  0  0  0  0
    6.2476    1.6184   41.8385 N   0  3  0  0  0  0  0  0  0  0  0  0
    3.8773    1.4906   41.1285 C   0  0  0  0  0  0  0  0  0  0  0  0
    3.8265   -3.1831   41.6008 C   0  0  1  0  0  0  0  0  0  0  0  0
    4.3788   -4.5702   41.9787 C   0  0  2  0  0  0  0  0  0  0  0  0
    5.1867   -5.1020   40.9325 O   0  0  0  0  0  0  0  0  0  0  0  0
    3.0498   -5.3260   42.1290 C   0  0  1  0  0  0  0  0  0  0  0  0
    2.2560   -4.8286   40.9323 C   0  0  2  0  0  0  0  0  0  0  0  0
    2.6046   -3.4534   40.8911 O   0  0  0  0  0  0  0  0  0  0  0  0
    0.7345   -4.9898   41.0448 C   0  0  0  0  0  0  0  0  0  0  0  0
    0.0870   -4.2111   40.0496 O   0  0  0  0  0  0  0  0  0  0  0  0
    0.2619   -8.6936   44.7033 C   0  0  1  0  0  0  0  0  0  0  0  0
   -0.7350   -8.8518   43.6954 O   0  0  0  0  0  0  0  0  0  0  0  0
    1.5177   -9.5257   44.3212 C   0  0  2  0  0  0  0  0  0  0  0  0
    2.3388   -9.6649   45.4783 O   0  0  0  0  0  0  0  0  0  0  0  0
    2.3826   -8.9377   43.1584 C   0  0  1  0  0  0  0  0  0  0  0  0
    1.8390   -9.3600   41.8487 N   0  3  0  0  0  0  0  0  0  0  0  0
    2.5388   -7.3987   43.2756 C   0  0  1  0  0  0  0  0  0  0  0  0
    3.1456   -6.7769   42.1161 O   0  0  0  0  0  0  0  0  0  0  0  0
    0.6476   -7.1999   44.8476 C   0  0  1  0  0  0  0  0  0  0  0  0
    1.2486   -6.7761   43.5935 O   0  0  0  0  0  0  0  0  0  0  0  0
   -0.5317   -6.2861   45.2302 C   0  0  0  0  0  0  0  0  0  0  0  0
   -0.8355   -6.3218   46.6741 N   0  3  0  0  0  0  0  0  0  0  0  0
  1  2  1  6  0  0  0
  1  3  1  0  0  0  0
  1 10  1  0  0  0  0
  3  4  1  1  0  0  0
  3  5  1  0  0  0  0
  5  6  1  1  0  0  0
  5  7  1  0  0  0  0
  7  8  1  6  0  0  0
  7  9  1  0  0  0  0
  9 10  1  0  0  0  0
  9 11  1  6  0  0  0
 11 12  1  0  0  0  0
 13 14  1  6  0  0  0
 13 15  1  0  0  0  0
 13 22  1  0  0  0  0
 15 16  1  1  0  0  0
 15 17  1  0  0  0  0
 17 18  1  6  0  0  0
 17 19  1  0  0  0  0
 19  2  1  1  0  0  0
 19 20  1  0  0  0  0
 20 21  1  6  0  0  0
 20 22  1  0  0  0  0
 23 18  1  1  0  0  0
 23 24  1  0  0  0  0
 23 28  1  0  0  0  0
 24 25  1  6  0  0  0
 24 26  1  0  0  0  0
 26 27  1  0  0  0  0
 26 38  1  6  0  0  0
 27 28  1  0  0  0  0
 27 29  1  1  0  0  0
 29 30  1  0  0  0  0
 31 32  1  6  0  0  0
 31 33  1  0  0  0  0
 31 39  1  0  0  0  0
 33 34  1  1  0  0  0
 33 35  1  0  0  0  0
 35 36  1  6  0  0  0
 35 37  1  0  0  0  0
 37 38  1  6  0  0  0
 37 40  1  0  0  0  0
 39 40  1  0  0  0  0
 39 41  1  6  0  0  0
 41 42  1  0  0  0  0
M  CHG  5   4   1  14   1  21   1  36   1  42   1
M  END
>  <CHROM.1>
167.73021984,99.96491204,71.00880192,63.95832161,56.87775693,58.60417660
-178.64630221,135.80261768,65.44952624,55.93755445,157.48004584,55.76213259
175.44650751,125.51033914,165.68160527,162.45048932,68.30885935,-56.76630519
-52.18261146,168.79746919,80.46580884,21.98266818,4.04358412,-3.45418994
42.74801777,-0.82860462,0.22320057,2.79191862

>  <Name>
1pbr

>  <RI>
0

>  <Rbt.Current_Directory>
/home/itssahil/PROJECTS/Mol_Feturizer/New_Systems/rnas/1pbr

>  <Rbt.Executable>
rbdock ($Id: //depot/dev/client3/rdock/2013.1/src/exe/rbdock.cxx#4 $)

>  <Rbt.Library>
libRbt.so (2013.1, Build901 2013/11/27)

>  <Rbt.Parameter_File>
/export/apps/rDock/src/rDock_2013.1_src/data/scripts/dock_solv.prm

>  <Rbt.Receptor>
prm/pocket_docking_7.prm

>  <SCORE>
-21.8353

>  <SCORE.INTER>
-22.0038

>  <SCORE.INTER.CONST>
1

>  <SCORE.INTER.POLAR>
-4.57611

>  <SCORE.INTER.ROT>
9

>  <SCORE.INTER.SOLV>
27.0747

>  <SCORE.INTER.VDW>
-18.0404

>  <SCORE.INTER.norm>
-0.523899

>  <SCORE.INTRA>
0.168457

>  <SCORE.INTRA.DIHEDRAL>
-2.67996

>  <SCORE.INTRA.DIHEDRAL.0>
29.7866

>  <SCORE.INTRA.POLAR>
0.97935

>  <SCORE.INTRA.POLAR.0>
-0.984091

>  <SCORE.INTRA.REPUL>
-0.270023

>  <SCORE.INTRA.REPUL.0>
0.274115

>  <SCORE.INTRA.SOLV>
-2.23582

>  <SCORE.INTRA.SOLV.lig_0>
-152.978

>  <SCORE.INTRA.VDW>
0.646673

>  <SCORE.INTRA.VDW.0>
-6.10719

>  <SCORE.INTRA.norm>
0.00401088

>  <SCORE.RESTR>
0

>  <SCORE.RESTR.CAVITY>
0

>  <SCORE.RESTR.norm>
0

>  <SCORE.SYSTEM>
0

>  <SCORE.SYSTEM.CONST>
0

>  <SCORE.SYSTEM.DIHEDRAL>
0

>  <SCORE.SYSTEM.SOLV>
0

>  <SCORE.SYSTEM.norm>
0

>  <SCORE.heavy>
42

>  <SCORE.norm>
-0.519888

>  <RMSD>
8.735

$$$$
1pbr
 OpenBabel11021811403D
libRbt.so/2013.1/901 2013/11/27
 42 45  0  0  0  0  0  0  0  0999 V2000
    5.0370    0.7590   37.1938 C   0  0  2  0  0  0  0  0  0  0  0  0
    4.1226    1.4669   36.3186 O   0  0  0  0  0  0  0  0  0  0  0  0
    6.3710    0.4020   36.4381 C   0  0  2  0  0  0  0  0  0  0  0  0
    6.8881    1.4814   35.5573 N   0  3  0  0  0  0  0  0  0  0  0  0
    6.2011   -0.8402   35.5433 C   0  0  1  0  0  0  0  0  0  0  0  0
    7.4661   -1.3055   35.0778 O   0  0  0  0  0  0  0  0  0  0  0  0
    5.4876   -1.9713   36.2992 C   0  0  2  0  0  0  0  0  0  0  0  0
    5.3786   -3.1250   35.4713 O   0  0  0  0  0  0  0  0  0  0  0  0
    4.1186   -1.4944   36.8329 C   0  0  2  0  0  0  0  0  0  0  0  0
    4.3810   -0.4129   37.7520 O   0  0  0  0  0  0  0  0  0  0  0  0
    3.3294   -2.5666   37.5823 C   0  0  0  0  0  0  0  0  0  0  0  0
    2.0884   -2.0581   38.0530 O   0  0  0  0  0  0  0  0  0  0  0  0
    0.0687    2.6788   36.8708 C   0  0  1  0  0  0  0  0  0  0  0  0
   -1.3894    2.7630   37.0723 N   0  3  0  0  0  0  0  0  0  0  0  0
    0.8073    2.1245   38.1266 C   0  0  2  0  0  0  0  0  0  0  0  0
    0.5592    2.9565   39.2575 O   0  0  0  0  0  0  0  0  0  0  0  0
    2.3451    2.0572   37.8941 C   0  0  1  0  0  0  0  0  0  0  0  0
    2.9587    1.3771   39.0291 O   0  0  0  0  0  0  0  0  0  0  0  0
    2.7077    1.2985   36.5757 C   0  0  1  0  0  0  0  0  0  0  0  0
    1.9199    1.8279   35.3349 C   0  0  1  0  0  0  0  0  0  0  0  0
    2.2089    1.0275   34.1244 N   0  3  0  0  0  0  0  0  0  0  0  0
    0.3943    1.8220   35.6126 C   0  0  0  0  0  0  0  0  0  0  0  0
    2.7538    1.8875   40.3853 C   0  0  1  0  0  0  0  0  0  0  0  0
    2.0258    0.8115   41.2125 C   0  0  2  0  0  0  0  0  0  0  0  0
    1.2983    1.3978   42.2882 O   0  0  0  0  0  0  0  0  0  0  0  0
    3.2460    0.0161   41.7005 C   0  0  1  0  0  0  0  0  0  0  0  0
    4.2211    1.1178   42.0811 C   0  0  2  0  0  0  0  0  0  0  0  0
    4.0180    2.0691   41.0474 O   0  0  0  0  0  0  0  0  0  0  0  0
    5.6951    0.6959   42.1354 C   0  0  0  0  0  0  0  0  0  0  0  0
    6.3420    1.0267   40.9154 O   0  0  0  0  0  0  0  0  0  0  0  0
    1.1437    0.1434   46.5910 C   0  0  1  0  0  0  0  0  0  0  0  0
    0.4121   -1.0755   46.7091 O   0  0  0  0  0  0  0  0  0  0  0  0
    2.6668   -0.1641   46.6276 C   0  0  2  0  0  0  0  0  0  0  0  0
    3.3685    1.0501   46.8846 O   0  0  0  0  0  0  0  0  0  0  0  0
    3.2497   -0.8174   45.3318 C   0  0  1  0  0  0  0  0  0  0  0  0
    3.0637   -2.2847   45.3671 N   0  3  0  0  0  0  0  0  0  0  0  0
    2.6700   -0.1695   44.0469 C   0  0  1  0  0  0  0  0  0  0  0  0
    3.0089   -0.8730   42.8265 O   0  0  0  0  0  0  0  0  0  0  0  0
    0.7857    0.8583   45.2638 C   0  0  1  0  0  0  0  0  0  0  0  0
    1.2179    0.0024   44.1709 O   0  0  0  0  0  0  0  0  0  0  0  0
   -0.7073    1.2118   45.1296 C   0  0  0  0  0  0  0  0  0  0  0  0
   -1.3626    1.4235   46.4351 N   0  3  0  0  0  0  0  0  0  0  0  0
  1  2  1  6  0  0  0
  1  3  1  0  0  0  0
  1 10  1  0  0  0  0
  3  4  1  6  0  0  0
  3  5  1  0  0  0  0
  5  6  1  1  0  0  0
  5  7  1  0  0  0  0
  7  8  1  6  0  0  0
  7  9  1  0  0  0  0
  9 10  1  0  0  0  0
  9 11  1  1  0  0  0
 11 12  1  0  0  0  0
 13 14  1  1  0  0  0
 13 15  1  0  0  0  0
 13 22  1  0  0  0  0
 15 16  1  1  0  0  0
 15 17  1  0  0  0  0
 17 18  1  1  0  0  0
 17 19  1  0  0  0  0
 19  2  1  6  0  0  0
 19 20  1  0  0  0  0
 20 21  1  6  0  0  0
 20 22  1  0  0  0  0
 23 18  1  6  0  0  0
 23 24  1  0  0  0  0
 23 28  1  0  0  0  0
 24 25  1  1  0  0  0
 24 26  1  0  0  0  0
 26 27  1  0  0  0  0
 26 38  1  1  0  0  0
 27 28  1  0  0  0  0
 27 29  1  6  0  0  0
 29 30  1  0  0  0  0
 31 32  1  6  0  0  0
 31 33  1  0  0  0  0
 31 39  1  0  0  0  0
 33 34  1  6  0  0  0
 33 35  1  0  0  0  0
 35 36  1  1  0  0  0
 35 37  1  0  0  0  0
 37 38  1  6  0  0  0
 37 40  1  0  0  0  0
 39 40  1  0  0  0  0
 39 41  1  6  0  0  0
 41 42  1  0  0  0  0
M  CHG  5   4   1  14   1  21   1  36   1  42   1
M  END
>  <CHROM.1>
150.59589105,71.33699785,38.44522658,-166.23029657,55.59426292,179.55788530
58.99476463,61.02859776,69.95770630,-56.63395846,117.96686449,75.63318516
69.28685511,-65.77346439,96.74896825,81.15150207,67.55002356,66.59383600
-88.30176944,-143.55809639,27.95452758,66.76902409,2.90957347,0.43061180
40.13426626,-1.25609276,-0.49303986,1.71773179

>  <Name>
1pbr

>  <RI>
0

>  <Rbt.Current_Directory>
/home/itssahil/PROJECTS/Mol_Feturizer/New_Systems/rnas/1pbr

>  <Rbt.Executable>
rbdock ($Id: //depot/dev/client3/rdock/2013.1/src/exe/rbdock.cxx#4 $)

>  <Rbt.Library>
libRbt.so (2013.1, Build901 2013/11/27)

>  <Rbt.Parameter_File>
/export/apps/rDock/src/rDock_2013.1_src/data/scripts/dock_solv.prm

>  <Rbt.Receptor>
prm/blind_docking_100.prm

>  <SCORE>
-31.4453

>  <SCORE.INTER>
-40.3939

>  <SCORE.INTER.CONST>
1

>  <SCORE.INTER.POLAR>
-5.7715

>  <SCORE.INTER.ROT>
9

>  <SCORE.INTER.SOLV>
43.9909

>  <SCORE.INTER.VDW>
-31.9546

>  <SCORE.INTER.norm>
-0.961759

>  <SCORE.INTRA>
7.50955

>  <SCORE.INTRA.DIHEDRAL>
1.42181

>  <SCORE.INTRA.DIHEDRAL.0>
29.7866

>  <SCORE.INTRA.POLAR>
0.831916

>  <SCORE.INTRA.POLAR.0>
-0.984091

>  <SCORE.INTRA.REPUL>
-0.0569578

>  <SCORE.INTRA.REPUL.0>
0.274115

>  <SCORE.INTRA.SOLV>
-0.79329

>  <SCORE.INTRA.SOLV.lig_0>
-152.978

>  <SCORE.INTRA.VDW>
4.65156

>  <SCORE.INTRA.VDW.0>
-6.10719

>  <SCORE.INTRA.norm>
0.178799

>  <SCORE.RESTR>
1.43907

>  <SCORE.RESTR.CAVITY>
1.43907

>  <SCORE.RESTR.norm>
0.0342635

>  <SCORE.SYSTEM>
0

>  <SCORE.SYSTEM.CONST>
0

>  <SCORE.SYSTEM.DIHEDRAL>
0

>  <SCORE.SYSTEM.SOLV>
0

>  <SCORE.SYSTEM.norm>
0

>  <SCORE.heavy>
42

>  <SCORE.norm>
-0.748697

>  <RMSD>
8.737

$$$$
1pbr
 OpenBabel11021811403D
libRbt.so/2013.1/901 2013/11/27
 42 45  0  0  0  0  0  0  0  0999 V2000
    4.5330    1.9325   36.2372 C   0  0  2  0  0  0  0  0  0  0  0  0
    4.6911    1.5474   37.6264 O   0  0  0  0  0  0  0  0  0  0  0  0
    3.8903    3.3651   36.1237 C   0  0  2  0  0  0  0  0  0  0  0  0
    4.4114    4.3537   37.1031 N   0  3  0  0  0  0  0  0  0  0  0  0
    2.3641    3.3198   36.3273 C   0  0  1  0  0  0  0  0  0  0  0  0
    1.7679    4.5630   35.9634 O   0  0  0  0  0  0  0  0  0  0  0  0
    1.7306    2.1890   35.5030 C   0  0  2  0  0  0  0  0  0  0  0  0
    0.3163    2.1903   35.6697 O   0  0  0  0  0  0  0  0  0  0  0  0
    2.3674    0.8278   35.8610 C   0  0  2  0  0  0  0  0  0  0  0  0
    3.7685    0.9198   35.5264 O   0  0  0  0  0  0  0  0  0  0  0  0
    1.7797   -0.3592   35.0997 C   0  0  0  0  0  0  0  0  0  0  0  0
    2.7749   -1.0215   34.3305 O   0  0  0  0  0  0  0  0  0  0  0  0
    5.3946   -2.5901   36.8556 C   0  0  1  0  0  0  0  0  0  0  0  0
    5.8261   -3.9998   36.8710 N   0  3  0  0  0  0  0  0  0  0  0  0
    4.4291   -2.2552   38.0326 C   0  0  2  0  0  0  0  0  0  0  0  0
    3.2673   -3.0794   37.9732 O   0  0  0  0  0  0  0  0  0  0  0  0
    3.9779   -0.7659   37.9873 C   0  0  1  0  0  0  0  0  0  0  0  0
    3.2204   -0.4715   39.1984 O   0  0  0  0  0  0  0  0  0  0  0  0
    5.1924    0.2135   37.8831 C   0  0  1  0  0  0  0  0  0  0  0  0
    6.1807   -0.1658   36.7340 C   0  0  1  0  0  0  0  0  0  0  0  0
    7.3679    0.7173   36.7234 N   0  3  0  0  0  0  0  0  0  0  0  0
    6.6307   -1.6438   36.8655 C   0  0  0  0  0  0  0  0  0  0  0  0
    2.8190    0.9046   39.4934 C   0  0  1  0  0  0  0  0  0  0  0  0
    1.4845    0.8752   40.2617 C   0  0  2  0  0  0  0  0  0  0  0  0
    0.7617    2.0894   40.0791 O   0  0  0  0  0  0  0  0  0  0  0  0
    2.0318    0.7330   41.6900 C   0  0  1  0  0  0  0  0  0  0  0  0
    3.1953    1.7107   41.6911 C   0  0  2  0  0  0  0  0  0  0  0  0
    3.7538    1.5144   40.4011 O   0  0  0  0  0  0  0  0  0  0  0  0
    4.2542    1.4651   42.7736 C   0  0  0  0  0  0  0  0  0  0  0  0
    5.1005    2.5990   42.8938 O   0  0  0  0  0  0  0  0  0  0  0  0
    1.2660   -0.4951   46.7920 C   0  0  1  0  0  0  0  0  0  0  0  0
    1.0293    0.7619   47.4235 O   0  0  0  0  0  0  0  0  0  0  0  0
    0.0227   -0.8893   45.9466 C   0  0  2  0  0  0  0  0  0  0  0  0
    0.1087   -2.2776   45.6338 O   0  0  0  0  0  0  0  0  0  0  0  0
   -0.1668   -0.0853   44.6187 C   0  0  1  0  0  0  0  0  0  0  0  0
   -0.8839    1.1817   44.8823 N   0  3  0  0  0  0  0  0  0  0  0  0
    1.1784    0.1295   43.8762 C   0  0  1  0  0  0  0  0  0  0  0  0
    1.0952    1.0463   42.7574 O   0  0  0  0  0  0  0  0  0  0  0  0
    2.5147   -0.4106   45.8787 C   0  0  1  0  0  0  0  0  0  0  0  0
    2.2236    0.5422   44.8198 O   0  0  0  0  0  0  0  0  0  0  0  0
    3.8071   -0.0283   46.6241 C   0  0  0  0  0  0  0  0  0  0  0  0
    5.0236   -0.5032   45.9363 N   0  3  0  0  0  0  0  0  0  0  0  0
  1  2  1  1  0  0  0
  1  3  1  0  0  0  0
  1 10  1  0  0  0  0
  3  4  1  1  0  0  0
  3  5  1  0  0  0  0
  5  6  1  6  0  0  0
  5  7  1  0  0  0  0
  7  8  1  1  0  0  0
  7  9  1  0  0  0  0
  9 10  1  0  0  0  0
  9 11  1  6  0  0  0
 11 12  1  0  0  0  0
 13 14  1  1  0  0  0
 13 15  1  0  0  0  0
 13 22  1  0  0  0  0
 15 16  1  6  0  0  0
 15 17  1  0  0  0  0
 17 18  1  1  0  0  0
 17 19  1  0  0  0  0
 19  2  1  6  0  0  0
 19 20  1  0  0  0  0
 20 21  1  1  0  0  0
 20 22  1  0  0  0  0
 23 18  1  1  0  0  0
 23 24  1  0  0  0  0
 23 28  1  0  0  0  0
 24 25  1  1  0  0  0
 24 26  1  0  0  0  0
 26 27  1  0  0  0  0
 26 38  1  1  0  0  0
 27 28  1  0  0  0  0
 27 29  1  1  0  0  0
 29 30  1  0  0  0  0
 31 32  1  6  0  0  0
 31 33  1  0  0  0  0
 31 39  1  0  0  0  0
 33 34  1  6  0  0  0
 33 35  1  0  0  0  0
 35 36  1  1  0  0  0
 35 37  1  0  0  0  0
 37 38  1  6  0  0  0
 37 40  1  0  0  0  0
 39 40  1  0  0  0  0
 39 41  1  1  0  0  0
 41 42  1  0  0  0  0
M  CHG  5   4   1  14   1  21   1  36   1  42   1
M  END
>  <CHROM.1>
176.13470561,-90.06085514,-35.04436269,-179.39736471,176.17653455,119.99845162
-72.82839214,-153.51195741,-51.17142902,172.34114225,148.59429883,-85.39354745
-179.06206363,139.12852166,-165.80925890,63.40807880,69.16608600,54.79781436
-46.42973610,-148.99237441,155.10657687,88.27735350,3.00566151,0.50669294
40.03487726,1.20916592,0.83538184,-1.23188249

>  <Name>
1pbr

>  <RI>
0

>  <Rbt.Current_Directory>
/home/itssahil/PROJECTS/Mol_Feturizer/New_Systems/rnas/1pbr

>  <Rbt.Executable>
rbdock ($Id: //depot/dev/client3/rdock/2013.1/src/exe/rbdock.cxx#4 $)

>  <Rbt.Library>
libRbt.so (2013.1, Build901 2013/11/27)

>  <Rbt.Parameter_File>
/export/apps/rDock/src/rDock_2013.1_src/data/scripts/dock_solv.prm

>  <Rbt.Receptor>
prm/blind_docking_60.prm

>  <SCORE>
-36.2793

>  <SCORE.INTER>
-41.055

>  <SCORE.INTER.CONST>
1

>  <SCORE.INTER.POLAR>
-6.91398

>  <SCORE.INTER.ROT>
9

>  <SCORE.INTER.SOLV>
47.3276

>  <SCORE.INTER.VDW>
-29.6993

>  <SCORE.INTER.norm>
-0.977501

>  <SCORE.INTRA>
4.7671

>  <SCORE.INTRA.DIHEDRAL>
4.02385

>  <SCORE.INTRA.DIHEDRAL.0>
29.7866

>  <SCORE.INTRA.POLAR>
0.848138

>  <SCORE.INTRA.POLAR.0>
-0.984091

>  <SCORE.INTRA.REPUL>
-0.22931

>  <SCORE.INTRA.REPUL.0>
0.274115

>  <SCORE.INTRA.SOLV>
-3.75683

>  <SCORE.INTRA.SOLV.lig_0>
-152.978

>  <SCORE.INTRA.VDW>
2.89647

>  <SCORE.INTRA.VDW.0>
-6.10719

>  <SCORE.INTRA.norm>
0.113502

>  <SCORE.RESTR>
0.00865804

>  <SCORE.RESTR.CAVITY>
0.00865804

>  <SCORE.RESTR.norm>
0.000206144

>  <SCORE.SYSTEM>
0

>  <SCORE.SYSTEM.CONST>
0

>  <SCORE.SYSTEM.DIHEDRAL>
0

>  <SCORE.SYSTEM.SOLV>
0

>  <SCORE.SYSTEM.norm>
0

>  <SCORE.heavy>
42

>  <SCORE.norm>
-0.863792

>  <RMSD>
8.740

$$$$
1pbr
 OpenBabel11021811403D
libRbt.so/2013.1/901 2013/11/27
 42 45  0  0  0  0  0  0  0  0999 V2000
   -0.5781    5.1176   36.4474 C   0  0  2  0  0  0  0  0  0  0  0  0
   -0.8932    3.8804   35.7596 O   0  0  0  0  0  0  0  0  0  0  0  0
   -0.7930    6.3553   35.4987 C   0  0  2  0  0  0  0  0  0  0  0  0
   -2.0113    6.2781   34.6513 N   0  3  0  0  0  0  0  0  0  0  0  0
    0.3925    6.5424   34.5331 C   0  0  1  0  0  0  0  0  0  0  0  0
    0.3119    7.8028   33.8710 O   0  0  0  0  0  0  0  0  0  0  0  0
    1.7321    6.4417   35.2781 C   0  0  2  0  0  0  0  0  0  0  0  0
    2.8141    6.6605   34.3782 O   0  0  0  0  0  0  0  0  0  0  0  0
    1.8446    5.0925   36.0219 C   0  0  2  0  0  0  0  0  0  0  0  0
    0.7713    5.0550   36.9863 O   0  0  0  0  0  0  0  0  0  0  0  0
    3.1597    4.8993   36.7752 C   0  0  0  0  0  0  0  0  0  0  0  0
    3.8490    3.7425   36.3198 O   0  0  0  0  0  0  0  0  0  0  0  0
   -0.7707    1.5008   39.2995 C   0  0  1  0  0  0  0  0  0  0  0  0
   -0.7546    0.4208   40.3031 N   0  3  0  0  0  0  0  0  0  0  0  0
    0.5174    1.5106   38.4218 C   0  0  2  0  0  0  0  0  0  0  0  0
    1.6745    1.6757   39.2382 O   0  0  0  0  0  0  0  0  0  0  0  0
    0.4825    2.6664   37.3795 C   0  0  1  0  0  0  0  0  0  0  0  0
    1.6240    2.5206   36.4835 O   0  0  0  0  0  0  0  0  0  0  0  0
   -0.8385    2.6637   36.5427 C   0  0  1  0  0  0  0  0  0  0  0  0
   -2.1205    2.5985   37.4331 C   0  0  1  0  0  0  0  0  0  0  0  0
   -3.3482    2.4969   36.6133 N   0  3  0  0  0  0  0  0  0  0  0  0
   -2.0458    1.3984   38.4122 C   0  0  0  0  0  0  0  0  0  0  0  0
    1.6301    1.4617   35.4733 C   0  0  1  0  0  0  0  0  0  0  0  0
    3.0272    1.4042   34.8276 C   0  0  2  0  0  0  0  0  0  0  0  0
    2.9620    0.8558   33.5141 O   0  0  0  0  0  0  0  0  0  0  0  0
    3.7130    0.4544   35.8213 C   0  0  1  0  0  0  0  0  0  0  0  0
    2.6447   -0.6016   36.0517 C   0  0  2  0  0  0  0  0  0  0  0  0
    1.4581    0.1761   36.0954 O   0  0  0  0  0  0  0  0  0  0  0  0
    2.7974   -1.4145   37.3438 C   0  0  0  0  0  0  0  0  0  0  0  0
    1.9345   -0.9006   38.3477 O   0  0  0  0  0  0  0  0  0  0  0  0
    8.7597   -0.3269   37.3909 C   0  0  1  0  0  0  0  0  0  0  0  0
    9.1257   -1.6065   36.8777 O   0  0  0  0  0  0  0  0  0  0  0  0
    8.6401    0.6843   36.2166 C   0  0  2  0  0  0  0  0  0  0  0  0
    8.6473    2.0052   36.7530 O   0  0  0  0  0  0  0  0  0  0  0  0
    7.3747    0.5152   35.3132 C   0  0  1  0  0  0  0  0  0  0  0  0
    7.6213   -0.5024   34.2678 N   0  3  0  0  0  0  0  0  0  0  0  0
    6.1023    0.2198   36.1502 C   0  0  1  0  0  0  0  0  0  0  0  0
    4.9489   -0.1562   35.3582 O   0  0  0  0  0  0  0  0  0  0  0  0
    7.4087   -0.4166   38.1442 C   0  0  1  0  0  0  0  0  0  0  0  0
    6.3882   -0.7882   37.1776 O   0  0  0  0  0  0  0  0  0  0  0  0
    7.4227   -1.3942   39.3342 C   0  0  0  0  0  0  0  0  0  0  0  0
    7.1730   -2.7909   38.9275 N   0  3  0  0  0  0  0  0  0  0  0  0
  1  2  1  6  0  0  0
  1  3  1  0  0  0  0
  1 10  1  0  0  0  0
  3  4  1  6  0  0  0
  3  5  1  0  0  0  0
  5  6  1  1  0  0  0
  5  7  1  0  0  0  0
  7  8  1  6  0  0  0
  7  9  1  0  0  0  0
  9 10  1  0  0  0  0
  9 11  1  1  0  0  0
 11 12  1  0  0  0  0
 13 14  1  1  0  0  0
 13 15  1  0  0  0  0
 13 22  1  0  0  0  0
 15 16  1  1  0  0  0
 15 17  1  0  0  0  0
 17 18  1  6  0  0  0
 17 19  1  0  0  0  0
 19  2  1  1  0  0  0
 19 20  1  0  0  0  0
 20 21  1  6  0  0  0
 20 22  1  0  0  0  0
 23 18  1  1  0  0  0
 23 24  1  0  0  0  0
 23 28  1  0  0  0  0
 24 25  1  6  0  0  0
 24 26  1  0  0  0  0
 26 27  1  0  0  0  0
 26 38  1  6  0  0  0
 27 28  1  0  0  0  0
 27 29  1  1  0  0  0
 29 30  1  0  0  0  0
 31 32  1  6  0  0  0
 31 33  1  0  0  0  0
 31 39  1  0  0  0  0
 33 34  1  1  0  0  0
 33 35  1  0  0  0  0
 35 36  1  6  0  0  0
 35 37  1  0  0  0  0
 37 38  1  6  0  0  0
 37 40  1  0  0  0  0
 39 40  1  0  0  0  0
 39 41  1  1  0  0  0
 41 42  1  0  0  0  0
M  CHG  5   4   1  14   1  21   1  36   1  42   1
M  END
>  <CHROM.1>
-175.44369444,-46.33932933,68.34209641,64.68765601,68.54877589,-121.41828151
-61.72167383,9.03281426,96.08132049,73.38727623,-171.34998209,55.40349615
63.51423226,117.14908166,99.25936369,-172.69172917,162.70810168,70.39829503
-49.91889462,-138.47723133,-84.01852844,44.98052811,2.75050961,1.98667724
36.56612974,-2.59417715,-0.24508128,2.60075610

>  <Name>
1pbr

>  <RI>
0

>  <Rbt.Current_Directory>
/home/itssahil/PROJECTS/Mol_Feturizer/New_Systems/rnas/1pbr

>  <Rbt.Executable>
rbdock ($Id: //depot/dev/client3/rdock/2013.1/src/exe/rbdock.cxx#4 $)

>  <Rbt.Library>
libRbt.so (2013.1, Build901 2013/11/27)

>  <Rbt.Parameter_File>
/export/apps/rDock/src/rDock_2013.1_src/data/scripts/dock_solv.prm

>  <Rbt.Receptor>
prm/blind_docking_40.prm

>  <SCORE>
-9.08941

>  <SCORE.INTER>
-21.3203

>  <SCORE.INTER.CONST>
1

>  <SCORE.INTER.POLAR>
-3.22759

>  <SCORE.INTER.ROT>
9

>  <SCORE.INTER.SOLV>
40.9136

>  <SCORE.INTER.VDW>
-26.6927

>  <SCORE.INTER.norm>
-0.507625

>  <SCORE.INTRA>
8.02492

>  <SCORE.INTRA.DIHEDRAL>
8.53101

>  <SCORE.INTRA.DIHEDRAL.0>
29.7866

>  <SCORE.INTRA.POLAR>
-0.534931

>  <SCORE.INTRA.POLAR.0>
-0.984091

>  <SCORE.INTRA.REPUL>
-0.274115

>  <SCORE.INTRA.REPUL.0>
0.274115

>  <SCORE.INTRA.SOLV>
2.21753

>  <SCORE.INTRA.SOLV.lig_0>
-152.978

>  <SCORE.INTRA.VDW>
5.83999

>  <SCORE.INTRA.VDW.0>
-6.10719

>  <SCORE.INTRA.norm>
0.19107

>  <SCORE.RESTR>
4.20592

>  <SCORE.RESTR.CAVITY>
4.20592

>  <SCORE.RESTR.norm>
0.100141

>  <SCORE.SYSTEM>
0

>  <SCORE.SYSTEM.CONST>
0

>  <SCORE.SYSTEM.DIHEDRAL>
0

>  <SCORE.SYSTEM.SOLV>
0

>  <SCORE.SYSTEM.norm>
0

>  <SCORE.heavy>
42

>  <SCORE.norm>
-0.216415

>  <RMSD>
8.743

$$$$
1pbr
 OpenBabel11021811403D
libRbt.so/2013.1/901 2013/11/27
 42 45  0  0  0  0  0  0  0  0999 V2000
    3.0463    3.3774   37.2136 C   0  0  2  0  0  0  0  0  0  0  0  0
    2.9451    2.0472   36.6447 O   0  0  0  0  0  0  0  0  0  0  0  0
    1.9513    3.5957   38.3234 C   0  0  2  0  0  0  0  0  0  0  0  0
    1.7417    2.4294   39.2201 N   0  3  0  0  0  0  0  0  0  0  0  0
    0.5767    3.9190   37.7081 C   0  0  1  0  0  0  0  0  0  0  0  0
   -0.3324    4.3707   38.7096 O   0  0  0  0  0  0  0  0  0  0  0  0
    0.7005    4.9876   36.6115 C   0  0  2  0  0  0  0  0  0  0  0  0
   -0.5842    5.3048   36.0853 O   0  0  0  0  0  0  0  0  0  0  0  0
    1.6933    4.5364   35.5173 C   0  0  2  0  0  0  0  0  0  0  0  0
    2.9769    4.3746   36.1572 O   0  0  0  0  0  0  0  0  0  0  0  0
    1.8616    5.5344   34.3729 C   0  0  0  0  0  0  0  0  0  0  0  0
    0.6446    5.7102   33.6597 O   0  0  0  0  0  0  0  0  0  0  0  0
    5.2703   -1.5076   36.2389 C   0  0  1  0  0  0  0  0  0  0  0  0
    6.2881   -2.5723   36.3051 N   0  3  0  0  0  0  0  0  0  0  0  0
    4.5367   -1.3066   37.5995 C   0  0  2  0  0  0  0  0  0  0  0  0
    3.8951   -2.5145   38.0021 O   0  0  0  0  0  0  0  0  0  0  0  0
    3.4593   -0.1873   37.5008 C   0  0  1  0  0  0  0  0  0  0  0  0
    2.9311    0.0701   38.8356 O   0  0  0  0  0  0  0  0  0  0  0  0
    4.0406    1.1376   36.9076 C   0  0  1  0  0  0  0  0  0  0  0  0
    4.8201    0.9138   35.5723 C   0  0  1  0  0  0  0  0  0  0  0  0
    5.4418    2.1663   35.0883 N   0  3  0  0  0  0  0  0  0  0  0  0
    5.9099   -0.1747   35.7513 C   0  0  0  0  0  0  0  0  0  0  0  0
    1.8983   -0.8035   39.3944 C   0  0  1  0  0  0  0  0  0  0  0  0
    2.1326   -0.9368   40.9107 C   0  0  2  0  0  0  0  0  0  0  0  0
    1.5851   -2.1546   41.4083 O   0  0  0  0  0  0  0  0  0  0  0  0
    1.3437    0.2928   41.3856 C   0  0  1  0  0  0  0  0  0  0  0  0
    0.0889    0.2237   40.5311 C   0  0  2  0  0  0  0  0  0  0  0  0
    0.6038   -0.1876   39.2739 O   0  0  0  0  0  0  0  0  0  0  0  0
   -0.6772    1.5450   40.3870 C   0  0  0  0  0  0  0  0  0  0  0  0
   -1.4113    1.5527   39.1716 O   0  0  0  0  0  0  0  0  0  0  0  0
    3.5933   -0.4881   46.1650 C   0  0  1  0  0  0  0  0  0  0  0  0
    2.6810   -1.3614   46.8281 O   0  0  0  0  0  0  0  0  0  0  0  0
    4.0061   -1.1120   44.8026 C   0  0  2  0  0  0  0  0  0  0  0  0
    5.1719   -0.4405   44.3309 O   0  0  0  0  0  0  0  0  0  0  0  0
    2.9123   -1.0657   43.6858 C   0  0  1  0  0  0  0  0  0  0  0  0
    1.9973   -2.2213   43.8136 N   0  3  0  0  0  0  0  0  0  0  0  0
    2.1641    0.2932   43.6657 C   0  0  1  0  0  0  0  0  0  0  0  0
    1.0031    0.3151   42.7992 O   0  0  0  0  0  0  0  0  0  0  0  0
    2.9375    0.8958   45.9298 C   0  0  1  0  0  0  0  0  0  0  0  0
    1.8119    0.7037   45.0298 O   0  0  0  0  0  0  0  0  0  0  0  0
    2.4938    1.6030   47.2241 C   0  0  0  0  0  0  0  0  0  0  0  0
    1.6527    0.7460   48.0824 N   0  3  0  0  0  0  0  0  0  0  0  0
  1  2  1  6  0  0  0
  1  3  1  0  0  0  0
  1 10  1  0  0  0  0
  3  4  1  6  0  0  0
  3  5  1  0  0  0  0
  5  6  1  1  0  0  0
  5  7  1  0  0  0  0
  7  8  1  6  0  0  0
  7  9  1  0  0  0  0
  9 10  1  0  0  0  0
  9 11  1  6  0  0  0
 11 12  1  0  0  0  0
 13 14  1  1  0  0  0
 13 15  1  0  0  0  0
 13 22  1  0  0  0  0
 15 16  1  6  0  0  0
 15 17  1  0  0  0  0
 17 18  1  1  0  0  0
 17 19  1  0  0  0  0
 19  2  1  6  0  0  0
 19 20  1  0  0  0  0
 20 21  1  1  0  0  0
 20 22  1  0  0  0  0
 23 18  1  1  0  0  0
 23 24  1  0  0  0  0
 23 28  1  0  0  0  0
 24 25  1  1  0  0  0
 24 26  1  0  0  0  0
 26 27  1  0  0  0  0
 26 38  1  1  0  0  0
 27 28  1  0  0  0  0
 27 29  1  6  0  0  0
 29 30  1  0  0  0  0
 31 32  1  6  0  0  0
 31 33  1  0  0  0  0
 31 39  1  0  0  0  0
 33 34  1  6  0  0  0
 33 35  1  0  0  0  0
 35 36  1  1  0  0  0
 35 37  1  0  0  0  0
 37 38  1  6  0  0  0
 37 40  1  0  0  0  0
 39 40  1  0  0  0  0
 39 41  1  1  0  0  0
 41 42  1  0  0  0  0
M  CHG  5   4   1  14   1  21   1  36   1  42   1
M  END
>  <CHROM.1>
-112.92198289,127.08510664,-81.57298220,68.17338746,-166.20143624,-63.46543968
-63.58477717,176.52781148,173.69254513,-81.26354156,144.82191245,71.98858102
-39.37730863,60.41148300,153.69134581,-144.36993492,70.16276368,68.87496626
86.06655302,-70.94023832,-51.77822615,6.61363332,2.39565011,1.03184645,39.84654688
1.59008648,0.84986456,-1.22400981

>  <Name>
1pbr

>  <RI>
0

>  <Rbt.Current_Directory>
/home/itssahil/PROJECTS/Mol_Feturizer/New_Systems/rnas/1pbr

>  <Rbt.Executable>
rbdock ($Id: //depot/dev/client3/rdock/2013.1/src/exe/rbdock.cxx#4 $)

>  <Rbt.Library>
libRbt.so (2013.1, Build901 2013/11/27)

>  <Rbt.Parameter_File>
/export/apps/rDock/src/rDock_2013.1_src/data/scripts/dock_solv.prm

>  <Rbt.Receptor>
prm/blind_docking_100.prm

>  <SCORE>
4.75315

>  <SCORE.INTER>
-5.27645

>  <SCORE.INTER.CONST>
1

>  <SCORE.INTER.POLAR>
-3.6288

>  <SCORE.INTER.ROT>
9

>  <SCORE.INTER.SOLV>
36.9478

>  <SCORE.INTER.VDW>
-13.3376

>  <SCORE.INTER.norm>
-0.12563

>  <SCORE.INTRA>
5.63406

>  <SCORE.INTRA.DIHEDRAL>
9.33029

>  <SCORE.INTRA.DIHEDRAL.0>
29.7866

>  <SCORE.INTRA.POLAR>
-2.80225

>  <SCORE.INTRA.POLAR.0>
-0.984091

>  <SCORE.INTRA.REPUL>
-0.274115

>  <SCORE.INTRA.REPUL.0>
0.274115

>  <SCORE.INTRA.SOLV>
15.0254

>  <SCORE.INTRA.SOLV.lig_0>
-152.978

>  <SCORE.INTRA.VDW>
4.35443

>  <SCORE.INTRA.VDW.0>
-6.10719

>  <SCORE.INTRA.norm>
0.134144

>  <SCORE.RESTR>
4.39554

>  <SCORE.RESTR.CAVITY>
4.39554

>  <SCORE.RESTR.norm>
0.104656

>  <SCORE.SYSTEM>
0

>  <SCORE.SYSTEM.CONST>
0

>  <SCORE.SYSTEM.DIHEDRAL>
0

>  <SCORE.SYSTEM.SOLV>
0

>  <SCORE.SYSTEM.norm>
0

>  <SCORE.heavy>
42

>  <SCORE.norm>
0.11317

>  <RMSD>
8.748

$$$$
1pbr
 OpenBabel11021811403D
libRbt.so/2013.1/901 2013/11/27
 42 45  0  0  0  0  0  0  0  0999 V2000
    1.4365    2.4652   38.0707 C   0  0  2  0  0  0  0  0  0  0  0  0
    1.9443    1.1991   37.5785 O   0  0  0  0  0  0  0  0  0  0  0  0
   -0.1152    2.3850   38.3240 C   0  0  2  0  0  0  0  0  0  0  0  0
   -0.5723    1.1184   38.9525 N   0  3  0  0  0  0  0  0  0  0  0  0
   -0.9120    2.5282   37.0136 C   0  0  1  0  0  0  0  0  0  0  0  0
   -2.2992    2.7189   37.2830 O   0  0  0  0  0  0  0  0  0  0  0  0
   -0.3883    3.7038   36.1749 C   0  0  2  0  0  0  0  0  0  0  0  0
   -1.1642    3.8476   34.9894 O   0  0  0  0  0  0  0  0  0  0  0  0
    1.1187    3.5368   35.8793 C   0  0  2  0  0  0  0  0  0  0  0  0
    1.7977    3.5342   37.1530 O   0  0  0  0  0  0  0  0  0  0  0  0
    1.7189    4.6555   35.0294 C   0  0  0  0  0  0  0  0  0  0  0  0
    1.6261    5.9106   35.6901 O   0  0  0  0  0  0  0  0  0  0  0  0
    5.6578   -0.8056   36.9468 C   0  0  1  0  0  0  0  0  0  0  0  0
    7.0705   -1.2221   36.8779 N   0  3  0  0  0  0  0  0  0  0  0  0
    5.1209   -0.7786   38.4099 C   0  0  2  0  0  0  0  0  0  0  0  0
    5.2366   -2.0683   39.0063 O   0  0  0  0  0  0  0  0  0  0  0  0
    3.6253   -0.3486   38.4554 C   0  0  1  0  0  0  0  0  0  0  0  0
    3.2317   -0.1778   39.8493 O   0  0  0  0  0  0  0  0  0  0  0  0
    3.3727    0.9838   37.6770 C   0  0  1  0  0  0  0  0  0  0  0  0
    3.9639    0.9631   36.2310 C   0  0  1  0  0  0  0  0  0  0  0  0
    3.7973    2.2693   35.5561 N   0  3  0  0  0  0  0  0  0  0  0  0
    5.4656    0.5781   36.2598 C   0  0  0  0  0  0  0  0  0  0  0  0
    4.1171    0.5259   40.7782 C   0  0  1  0  0  0  0  0  0  0  0  0
    3.2652    1.4536   41.6645 C   0  0  2  0  0  0  0  0  0  0  0  0
    4.0381    2.5462   42.1534 O   0  0  0  0  0  0  0  0  0  0  0  0
    2.8992    0.4569   42.7747 C   0  0  1  0  0  0  0  0  0  0  0  0
    4.2161   -0.2638   43.0115 C   0  0  2  0  0  0  0  0  0  0  0  0
    4.7229   -0.4044   41.6931 O   0  0  0  0  0  0  0  0  0  0  0  0
    4.0976   -1.6364   43.6865 C   0  0  0  0  0  0  0  0  0  0  0  0
    3.5594   -1.4923   44.9926 O   0  0  0  0  0  0  0  0  0  0  0  0
   -0.9869   -0.8243   45.9313 C   0  0  1  0  0  0  0  0  0  0  0  0
   -0.2362   -1.3874   47.0056 O   0  0  0  0  0  0  0  0  0  0  0  0
   -0.9097    0.7262   46.0058 C   0  0  2  0  0  0  0  0  0  0  0  0
   -1.9391    1.2716   45.1839 O   0  0  0  0  0  0  0  0  0  0  0  0
    0.4591    1.3501   45.5781 C   0  0  1  0  0  0  0  0  0  0  0  0
    1.4002    1.3575   46.7197 N   0  3  0  0  0  0  0  0  0  0  0  0
    1.0446    0.6530   44.3219 C   0  0  1  0  0  0  0  0  0  0  0  0
    2.4043    1.0438   44.0098 O   0  0  0  0  0  0  0  0  0  0  0  0
   -0.4270   -1.3117   44.5713 C   0  0  1  0  0  0  0  0  0  0  0  0
    0.9298   -0.8047   44.4454 O   0  0  0  0  0  0  0  0  0  0  0  0
   -0.4624   -2.8413   44.3951 C   0  0  0  0  0  0  0  0  0  0  0  0
   -1.5858   -3.4722   45.1151 N   0  3  0  0  0  0  0  0  0  0  0  0
  1  2  1  6  0  0  0
  1  3  1  0  0  0  0
  1 10  1  0  0  0  0
  3  4  1  6  0  0  0
  3  5  1  0  0  0  0
  5  6  1  1  0  0  0
  5  7  1  0  0  0  0
  7  8  1  6  0  0  0
  7  9  1  0  0  0  0
  9 10  1  0  0  0  0
  9 11  1  6  0  0  0
 11 12  1  0  0  0  0
 13 14  1  1  0  0  0
 13 15  1  0  0  0  0
 13 22  1  0  0  0  0
 15 16  1  6  0  0  0
 15 17  1  0  0  0  0
 17 18  1  1  0  0  0
 17 19  1  0  0  0  0
 19  2  1  6  0  0  0
 19 20  1  0  0  0  0
 20 21  1  1  0  0  0
 20 22  1  0  0  0  0
 23 18  1  6  0  0  0
 23 24  1  0  0  0  0
 23 28  1  0  0  0  0
 24 25  1  1  0  0  0
 24 26  1  0  0  0  0
 26 27  1  0  0  0  0
 26 38  1  1  0  0  0
 27 28  1  0  0  0  0
 27 29  1  6  0  0  0
 29 30  1  0  0  0  0
 31 32  1  1  0  0  0
 31 33  1  0  0  0  0
 31 39  1  0  0  0  0
 33 34  1  6  0  0  0
 33 35  1  0  0  0  0
 35 36  1  1  0  0  0
 35 37  1  0  0  0  0
 37 38  1  1  0  0  0
 37 40  1  0  0  0  0
 39 40  1  0  0  0  0
 39 41  1  1  0  0  0
 41 42  1  0  0  0  0
M  CHG  5   4   1  14   1  21   1  36   1  42   1
M  END
>  <CHROM.1>
-162.06682650,125.18625906,-33.74667616,74.00671752,-55.41233404,62.15728756
-171.17809664,-149.96278079,61.81844442,44.09303514,138.00320101,19.73542774
-175.38225413,117.59817675,-63.48112647,70.34736720,161.32833325,75.49881239
60.97765790,-175.66231266,30.74310469,82.00478740,1.91636080,0.80684680,40.53552584
1.37727276,0.44486920,-1.15507281

>  <Name>
1pbr

>  <RI>
0

>  <Rbt.Current_Directory>
/home/itssahil/PROJECTS/Mol_Feturizer/New_Systems/rnas/1pbr

>  <Rbt.Executable>
rbdock ($Id: //depot/dev/client3/rdock/2013.1/src/exe/rbdock.cxx#4 $)

>  <Rbt.Library>
libRbt.so (2013.1, Build901 2013/11/27)

>  <Rbt.Parameter_File>
/export/apps/rDock/src/rDock_2013.1_src/data/scripts/dock_solv.prm

>  <Rbt.Receptor>
prm/blind_docking_60.prm

>  <SCORE>
-33.8978

>  <SCORE.INTER>
-40.6057

>  <SCORE.INTER.CONST>
1

>  <SCORE.INTER.POLAR>
-5.42502

>  <SCORE.INTER.ROT>
9

>  <SCORE.INTER.SOLV>
37.5925

>  <SCORE.INTER.VDW>
-31.1179

>  <SCORE.INTER.norm>
-0.966802

>  <SCORE.INTRA>
5.4962

>  <SCORE.INTRA.DIHEDRAL>
7.94907

>  <SCORE.INTRA.DIHEDRAL.0>
29.7866

>  <SCORE.INTRA.POLAR>
-0.563613

>  <SCORE.INTRA.POLAR.0>
-0.984091

>  <SCORE.INTRA.REPUL>
-0.243983

>  <SCORE.INTRA.REPUL.0>
0.274115

>  <SCORE.INTRA.SOLV>
3.14153

>  <SCORE.INTRA.SOLV.lig_0>
-152.978

>  <SCORE.INTRA.VDW>
3.0871

>  <SCORE.INTRA.VDW.0>
-6.10719

>  <SCORE.INTRA.norm>
0.130862

>  <SCORE.RESTR>
1.21164

>  <SCORE.RESTR.CAVITY>
1.21164

>  <SCORE.RESTR.norm>
0.0288485

>  <SCORE.SYSTEM>
0

>  <SCORE.SYSTEM.CONST>
0

>  <SCORE.SYSTEM.DIHEDRAL>
0

>  <SCORE.SYSTEM.SOLV>
0

>  <SCORE.SYSTEM.norm>
0

>  <SCORE.heavy>
42

>  <SCORE.norm>
-0.807091

>  <RMSD>
8.748

$$$$
1pbr
 OpenBabel11021811403D
libRbt.so/2013.1/901 2013/11/27
 42 45  0  0  0  0  0  0  0  0999 V2000
    4.6176   -4.4599   43.4930 C   0  0  2  0  0  0  0  0  0  0  0  0
    5.8169   -3.8522   42.9493 O   0  0  0  0  0  0  0  0  0  0  0  0
    3.8743   -3.4636   44.4589 C   0  0  2  0  0  0  0  0  0  0  0  0
    3.8303   -2.0578   43.9793 N   0  3  0  0  0  0  0  0  0  0  0  0
    4.5342   -3.4240   45.8502 C   0  0  1  0  0  0  0  0  0  0  0  0
    3.7071   -2.7319   46.7831 O   0  0  0  0  0  0  0  0  0  0  0  0
    4.8130   -4.8426   46.3693 C   0  0  2  0  0  0  0  0  0  0  0  0
    5.3823   -4.7870   47.6735 O   0  0  0  0  0  0  0  0  0  0  0  0
    5.6941   -5.6270   45.3719 C   0  0  2  0  0  0  0  0  0  0  0  0
    4.9498   -5.7200   44.1387 O   0  0  0  0  0  0  0  0  0  0  0  0
    6.0386   -7.0461   45.8208 C   0  0  0  0  0  0  0  0  0  0  0  0
    6.9074   -7.0340   46.9457 O   0  0  0  0  0  0  0  0  0  0  0  0
    8.1110   -4.6655   39.4445 C   0  0  1  0  0  0  0  0  0  0  0  0
    8.9479   -5.2495   38.3804 N   0  3  0  0  0  0  0  0  0  0  0  0
    6.7102   -5.3434   39.5329 C   0  0  2  0  0  0  0  0  0  0  0  0
    6.0152   -5.2130   38.2949 O   0  0  0  0  0  0  0  0  0  0  0  0
    5.8414   -4.7016   40.6540 C   0  0  1  0  0  0  0  0  0  0  0  0
    4.6189   -5.4832   40.8012 O   0  0  0  0  0  0  0  0  0  0  0  0
    6.5936   -4.6504   42.0240 C   0  0  1  0  0  0  0  0  0  0  0  0
    8.0179   -4.0185   41.9108 C   0  0  1  0  0  0  0  0  0  0  0  0
    8.7422   -4.0744   43.1999 N   0  3  0  0  0  0  0  0  0  0  0  0
    8.8480   -4.7343   40.8140 C   0  0  0  0  0  0  0  0  0  0  0  0
    3.7073   -5.6356   39.6665 C   0  0  1  0  0  0  0  0  0  0  0  0
    2.6947   -6.7491   39.9934 C   0  0  2  0  0  0  0  0  0  0  0  0
    2.1836   -7.3420   38.8028 O   0  0  0  0  0  0  0  0  0  0  0  0
    1.6379   -5.9069   40.7240 C   0  0  1  0  0  0  0  0  0  0  0  0
    1.5520   -4.6653   39.8519 C   0  0  2  0  0  0  0  0  0  0  0  0
    2.9106   -4.4490   39.5024 O   0  0  0  0  0  0  0  0  0  0  0  0
    0.9741   -3.4220   40.5402 C   0  0  0  0  0  0  0  0  0  0  0  0
   -0.3809   -3.6491   40.8991 O   0  0  0  0  0  0  0  0  0  0  0  0
   -0.9412   -9.6202   43.6059 C   0  0  1  0  0  0  0  0  0  0  0  0
   -2.3130   -9.2294   43.6191 O   0  0  0  0  0  0  0  0  0  0  0  0
   -0.5487  -10.0748   42.1723 C   0  0  2  0  0  0  0  0  0  0  0  0
    0.6760  -10.8009   42.2462 O   0  0  0  0  0  0  0  0  0  0  0  0
   -0.3891   -8.9245   41.1249 C   0  0  1  0  0  0  0  0  0  0  0  0
   -1.7020   -8.5778   40.5375 N   0  3  0  0  0  0  0  0  0  0  0  0
    0.3441   -7.6953   41.7237 C   0  0  1  0  0  0  0  0  0  0  0  0
    0.3299   -6.5255   40.8691 O   0  0  0  0  0  0  0  0  0  0  0  0
   -0.0414   -8.4377   44.0449 C   0  0  1  0  0  0  0  0  0  0  0  0
   -0.1860   -7.3821   43.0557 O   0  0  0  0  0  0  0  0  0  0  0  0
   -0.3487   -7.9129   45.4599 C   0  0  0  0  0  0  0  0  0  0  0  0
   -1.6974   -7.3232   45.5688 N   0  3  0  0  0  0  0  0  0  0  0  0
  1  2  1  1  0  0  0
  1  3  1  0  0  0  0
  1 10  1  0  0  0  0
  3  4  1  6  0  0  0
  3  5  1  0  0  0  0
  5  6  1  1  0  0  0
  5  7  1  0  0  0  0
  7  8  1  1  0  0  0
  7  9  1  0  0  0  0
  9 10  1  0  0  0  0
  9 11  1  1  0  0  0
 11 12  1  0  0  0  0
 13 14  1  6  0  0  0
 13 15  1  0  0  0  0
 13 22  1  0  0  0  0
 15 16  1  6  0  0  0
 15 17  1  0  0  0  0
 17 18  1  1  0  0  0
 17 19  1  0  0  0  0
 19  2  1  1  0  0  0
 19 20  1  0  0  0  0
 20 21  1  1  0  0  0
 20 22  1  0  0  0  0
 23 18  1  1  0  0  0
 23 24  1  0  0  0  0
 23 28  1  0  0  0  0
 24 25  1  6  0  0  0
 24 26  1  0  0  0  0
 26 27  1  0  0  0  0
 26 38  1  6  0  0  0
 27 28  1  0  0  0  0
 27 29  1  1  0  0  0
 29 30  1  0  0  0  0
 31 32  1  6  0  0  0
 31 33  1  0  0  0  0
 31 39  1  0  0  0  0
 33 34  1  1  0  0  0
 33 35  1  0  0  0  0
 35 36  1  1  0  0  0
 35 37  1  0  0  0  0
 37 38  1  6  0  0  0
 37 40  1  0  0  0  0
 39 40  1  0  0  0  0
 39 41  1  1  0  0  0
 41 42  1  0  0  0  0
M  CHG  5   4   1  14   1  21   1  36   1  42   1
M  END
>  <CHROM.1>
-179.06860071,74.36790757,-175.60444600,64.05608826,63.98287750,-68.21354133
47.50085540,71.10836470,60.61941320,-59.76245249,167.12301346,176.53512236
177.29730947,65.82982167,-64.34324508,43.93321449,55.02701826,-176.88085203
54.47860721,-132.13629390,-64.65995791,151.63954834,3.32770144,-5.89423605
42.47002837,0.00035174,0.45235324,1.50806234

>  <Name>
1pbr

>  <RI>
0

>  <Rbt.Current_Directory>
/home/itssahil/PROJECTS/Mol_Feturizer/New_Systems/rnas/1pbr

>  <Rbt.Executable>
rbdock ($Id: //depot/dev/client3/rdock/2013.1/src/exe/rbdock.cxx#4 $)

>  <Rbt.Library>
libRbt.so (2013.1, Build901 2013/11/27)

>  <Rbt.Parameter_File>
/export/apps/rDock/src/rDock_2013.1_src/data/scripts/dock_solv.prm

>  <Rbt.Receptor>
prm/pocket_docking_8.prm

>  <SCORE>
-25.1695

>  <SCORE.INTER>
-11.4204

>  <SCORE.INTER.CONST>
1

>  <SCORE.INTER.POLAR>
-3.38267

>  <SCORE.INTER.ROT>
9

>  <SCORE.INTER.SOLV>
24.1658

>  <SCORE.INTER.VDW>
-13.9933

>  <SCORE.INTER.norm>
-0.271915

>  <SCORE.INTRA>
-13.749

>  <SCORE.INTRA.DIHEDRAL>
-15.7544

>  <SCORE.INTRA.DIHEDRAL.0>
29.7866

>  <SCORE.INTRA.POLAR>
-1.53798

>  <SCORE.INTRA.POLAR.0>
-0.984091

>  <SCORE.INTRA.REPUL>
-0.274115

>  <SCORE.INTRA.REPUL.0>
0.274115

>  <SCORE.INTRA.SOLV>
-1.62776

>  <SCORE.INTRA.SOLV.lig_0>
-152.978

>  <SCORE.INTRA.VDW>
1.54177

>  <SCORE.INTRA.VDW.0>
-6.10719

>  <SCORE.INTRA.norm>
-0.327358

>  <SCORE.RESTR>
0

>  <SCORE.RESTR.CAVITY>
0

>  <SCORE.RESTR.norm>
0

>  <SCORE.SYSTEM>
0

>  <SCORE.SYSTEM.CONST>
0

>  <SCORE.SYSTEM.DIHEDRAL>
0

>  <SCORE.SYSTEM.SOLV>
0

>  <SCORE.SYSTEM.norm>
0

>  <SCORE.heavy>
42

>  <SCORE.norm>
-0.599273

>  <RMSD>
8.767

$$$$
1pbr
 OpenBabel11021811403D
libRbt.so/2013.1/901 2013/11/27
 42 45  0  0  0  0  0  0  0  0999 V2000
    4.4708    0.5095   37.7308 C   0  0  2  0  0  0  0  0  0  0  0  0
    3.7517    1.4529   36.8966 O   0  0  0  0  0  0  0  0  0  0  0  0
    5.7602   -0.0165   36.9966 C   0  0  2  0  0  0  0  0  0  0  0  0
    6.5138    1.0256   36.2521 N   0  3  0  0  0  0  0  0  0  0  0  0
    5.4212   -1.1170   35.9734 C   0  0  1  0  0  0  0  0  0  0  0  0
    6.6063   -1.7632   35.5139 O   0  0  0  0  0  0  0  0  0  0  0  0
    4.4726   -2.1617   36.5806 C   0  0  2  0  0  0  0  0  0  0  0  0
    4.2056   -3.1930   35.6355 O   0  0  0  0  0  0  0  0  0  0  0  0
    3.1835   -1.4912   37.1050 C   0  0  2  0  0  0  0  0  0  0  0  0
    3.5828   -0.5674   38.1396 O   0  0  0  0  0  0  0  0  0  0  0  0
    2.1716   -2.4636   37.7087 C   0  0  0  0  0  0  0  0  0  0  0  0
    2.8149   -3.4416   38.5151 O   0  0  0  0  0  0  0  0  0  0  0  0
   -0.3099    2.7098   36.5340 C   0  0  1  0  0  0  0  0  0  0  0  0
   -1.7750    2.8102   36.4016 N   0  3  0  0  0  0  0  0  0  0  0  0
    0.1197    2.1324   37.9167 C   0  0  2  0  0  0  0  0  0  0  0  0
   -0.3697    2.9550   38.9733 O   0  0  0  0  0  0  0  0  0  0  0  0
    1.6696    2.0482   38.0371 C   0  0  1  0  0  0  0  0  0  0  0  0
    2.0036    1.3480   39.2721 O   0  0  0  0  0  0  0  0  0  0  0  0
    2.3136    1.2996   36.8247 C   0  0  1  0  0  0  0  0  0  0  0  0
    1.8323    1.8525   35.4451 C   0  0  1  0  0  0  0  0  0  0  0  0
    2.3800    1.0619   34.3207 N   0  3  0  0  0  0  0  0  0  0  0  0
    0.2835    1.8628   35.3705 C   0  0  0  0  0  0  0  0  0  0  0  0
    1.3390    1.7147   40.5233 C   0  0  1  0  0  0  0  0  0  0  0  0
    0.7663    0.4394   41.1697 C   0  0  2  0  0  0  0  0  0  0  0  0
   -0.3364    0.7463   42.0182 O   0  0  0  0  0  0  0  0  0  0  0  0
    2.0044   -0.0058   41.9626 C   0  0  1  0  0  0  0  0  0  0  0  0
    2.5049    1.3049   42.5467 C   0  0  2  0  0  0  0  0  0  0  0  0
    2.2993    2.2102   41.4730 O   0  0  0  0  0  0  0  0  0  0  0  0
    3.9785    1.3097   42.9734 C   0  0  0  0  0  0  0  0  0  0  0  0
    4.8170    1.3697   41.8291 O   0  0  0  0  0  0  0  0  0  0  0  0
   -1.0886   -0.7925   46.2597 C   0  0  1  0  0  0  0  0  0  0  0  0
   -0.1920   -1.2894   47.2517 O   0  0  0  0  0  0  0  0  0  0  0  0
   -0.5578    0.5643   45.7186 C   0  0  2  0  0  0  0  0  0  0  0  0
   -1.6164    1.2217   45.0259 O   0  0  0  0  0  0  0  0  0  0  0  0
    0.6812    0.4684   44.7692 C   0  0  1  0  0  0  0  0  0  0  0  0
    1.9316    0.4188   45.5586 N   0  3  0  0  0  0  0  0  0  0  0  0
    0.5543   -0.7124   43.7709 C   0  0  1  0  0  0  0  0  0  0  0  0
    1.7615   -0.9790   43.0154 O   0  0  0  0  0  0  0  0  0  0  0  0
   -1.2167   -1.8065   45.0952 C   0  0  1  0  0  0  0  0  0  0  0  0
    0.0874   -1.9194   44.4626 O   0  0  0  0  0  0  0  0  0  0  0  0
   -1.7411   -3.1887   45.5274 C   0  0  0  0  0  0  0  0  0  0  0  0
   -0.6857   -4.2204   45.5396 N   0  3  0  0  0  0  0  0  0  0  0  0
  1  2  1  6  0  0  0
  1  3  1  0  0  0  0
  1 10  1  0  0  0  0
  3  4  1  6  0  0  0
  3  5  1  0  0  0  0
  5  6  1  1  0  0  0
  5  7  1  0  0  0  0
  7  8  1  6  0  0  0
  7  9  1  0  0  0  0
  9 10  1  0  0  0  0
  9 11  1  1  0  0  0
 11 12  1  0  0  0  0
 13 14  1  1  0  0  0
 13 15  1  0  0  0  0
 13 22  1  0  0  0  0
 15 16  1  1  0  0  0
 15 17  1  0  0  0  0
 17 18  1  1  0  0  0
 17 19  1  0  0  0  0
 19  2  1  6  0  0  0
 19 20  1  0  0  0  0
 20 21  1  6  0  0  0
 20 22  1  0  0  0  0
 23 18  1  6  0  0  0
 23 24  1  0  0  0  0
 23 28  1  0  0  0  0
 24 25  1  1  0  0  0
 24 26  1  0  0  0  0
 26 27  1  0  0  0  0
 26 38  1  1  0  0  0
 27 28  1  0  0  0  0
 27 29  1  6  0  0  0
 29 30  1  0  0  0  0
 31 32  1  1  0  0  0
 31 33  1  0  0  0  0
 31 39  1  0  0  0  0
 33 34  1  6  0  0  0
 33 35  1  0  0  0  0
 35 36  1  1  0  0  0
 35 37  1  0  0  0  0
 37 38  1  1  0  0  0
 37 40  1  0  0  0  0
 39 40  1  0  0  0  0
 39 41  1  1  0  0  0
 41 42  1  0  0  0  0
M  CHG  5   4   1  14   1  21   1  36   1  42   1
M  END
>  <CHROM.1>
135.45711828,84.91549459,-59.17812730,-54.62832368,-61.23509590,41.90946638
60.13694989,69.82920108,-53.32690572,-47.05751812,128.22098571,56.98143388
-42.48227274,-40.91948895,74.64784638,-179.35181762,171.93783669,50.00867943
40.12159948,-74.98695861,-106.23714203,51.91226748,1.83515477,0.06968547
40.21780380,-1.05294608,-0.69645956,2.03283226

>  <Name>
1pbr

>  <RI>
0

>  <Rbt.Current_Directory>
/home/itssahil/PROJECTS/Mol_Feturizer/New_Systems/rnas/1pbr

>  <Rbt.Executable>
rbdock ($Id: //depot/dev/client3/rdock/2013.1/src/exe/rbdock.cxx#4 $)

>  <Rbt.Library>
libRbt.so (2013.1, Build901 2013/11/27)

>  <Rbt.Parameter_File>
/export/apps/rDock/src/rDock_2013.1_src/data/scripts/dock_solv.prm

>  <Rbt.Receptor>
prm/blind_docking_100.prm

>  <SCORE>
-24.0649

>  <SCORE.INTER>
-35.6068

>  <SCORE.INTER.CONST>
1

>  <SCORE.INTER.POLAR>
-4.5298

>  <SCORE.INTER.ROT>
9

>  <SCORE.INTER.SOLV>
37.8356

>  <SCORE.INTER.VDW>
-30.8504

>  <SCORE.INTER.norm>
-0.847781

>  <SCORE.INTRA>
10.248

>  <SCORE.INTRA.DIHEDRAL>
0.241967

>  <SCORE.INTRA.DIHEDRAL.0>
29.7866

>  <SCORE.INTRA.POLAR>
0.843468

>  <SCORE.INTRA.POLAR.0>
-0.984091

>  <SCORE.INTRA.REPUL>
-0.217851

>  <SCORE.INTRA.REPUL.0>
0.274115

>  <SCORE.INTRA.SOLV>
2.66566

>  <SCORE.INTRA.SOLV.lig_0>
-152.978

>  <SCORE.INTRA.VDW>
7.01564

>  <SCORE.INTRA.VDW.0>
-6.10719

>  <SCORE.INTRA.norm>
0.244

>  <SCORE.RESTR>
1.29389

>  <SCORE.RESTR.CAVITY>
1.29389

>  <SCORE.RESTR.norm>
0.0308069

>  <SCORE.SYSTEM>
0

>  <SCORE.SYSTEM.CONST>
0

>  <SCORE.SYSTEM.DIHEDRAL>
0

>  <SCORE.SYSTEM.SOLV>
0

>  <SCORE.SYSTEM.norm>
0

>  <SCORE.heavy>
42

>  <SCORE.norm>
-0.572974

>  <RMSD>
8.771

$$$$
1pbr
 OpenBabel11021811403D
libRbt.so/2013.1/901 2013/11/27
 42 45  0  0  0  0  0  0  0  0999 V2000
    1.0473    2.1379   37.8780 C   0  0  2  0  0  0  0  0  0  0  0  0
    1.1091    1.1084   36.8584 O   0  0  0  0  0  0  0  0  0  0  0  0
   -0.2221    3.0473   37.6782 C   0  0  2  0  0  0  0  0  0  0  0  0
   -1.4571    2.3088   37.3072 N   0  3  0  0  0  0  0  0  0  0  0  0
    0.0006    4.0974   36.5735 C   0  0  1  0  0  0  0  0  0  0  0  0
   -1.0404    5.0719   36.5843 O   0  0  0  0  0  0  0  0  0  0  0  0
    1.3573    4.7976   36.7432 C   0  0  2  0  0  0  0  0  0  0  0  0
    1.5264    5.7942   35.7399 O   0  0  0  0  0  0  0  0  0  0  0  0
    2.5078    3.7667   36.7531 C   0  0  2  0  0  0  0  0  0  0  0  0
    2.2851    2.9015   37.8867 O   0  0  0  0  0  0  0  0  0  0  0  0
    3.8992    4.3810   36.8973 C   0  0  0  0  0  0  0  0  0  0  0  0
    4.9142    3.3957   36.7578 O   0  0  0  0  0  0  0  0  0  0  0  0
    3.6494   -2.2139   36.0118 C   0  0  1  0  0  0  0  0  0  0  0  0
    4.7749   -3.1358   35.7726 N   0  3  0  0  0  0  0  0  0  0  0  0
    3.5557   -1.7710   37.5033 C   0  0  2  0  0  0  0  0  0  0  0  0
    3.3919   -2.9062   38.3501 O   0  0  0  0  0  0  0  0  0  0  0  0
    2.3533   -0.8092   37.7329 C   0  0  1  0  0  0  0  0  0  0  0  0
    2.4188   -0.2988   39.0976 O   0  0  0  0  0  0  0  0  0  0  0  0
    2.3593    0.3895   36.7289 C   0  0  1  0  0  0  0  0  0  0  0  0
    2.5087   -0.0654   35.2418 C   0  0  1  0  0  0  0  0  0  0  0  0
    2.6113    1.0923   34.3260 N   0  3  0  0  0  0  0  0  0  0  0  0
    3.7511   -0.9775   35.0713 C   0  0  0  0  0  0  0  0  0  0  0  0
    3.6832    0.2146   39.6263 C   0  0  1  0  0  0  0  0  0  0  0  0
    3.4077    0.9153   40.9699 C   0  0  2  0  0  0  0  0  0  0  0  0
    4.4006    1.8987   41.2476 O   0  0  0  0  0  0  0  0  0  0  0  0
    3.5161   -0.3006   41.9025 C   0  0  1  0  0  0  0  0  0  0  0  0
    4.7345   -1.0239   41.3532 C   0  0  2  0  0  0  0  0  0  0  0  0
    4.5672   -0.8726   39.9518 O   0  0  0  0  0  0  0  0  0  0  0  0
    4.8332   -2.5100   41.7210 C   0  0  0  0  0  0  0  0  0  0  0  0
    6.0984   -3.0251   41.3334 O   0  0  0  0  0  0  0  0  0  0  0  0
    4.4713   -2.6615   46.6275 C   0  0  1  0  0  0  0  0  0  0  0  0
    3.6804   -1.9374   47.5682 O   0  0  0  0  0  0  0  0  0  0  0  0
    3.5560   -3.2060   45.4955 C   0  0  2  0  0  0  0  0  0  0  0  0
    4.2666   -4.2171   44.7846 O   0  0  0  0  0  0  0  0  0  0  0  0
    3.0457   -2.1373   44.4742 C   0  0  1  0  0  0  0  0  0  0  0  0
    1.8283   -1.4732   44.9898 N   0  3  0  0  0  0  0  0  0  0  0  0
    4.1603   -1.1303   44.0862 C   0  0  1  0  0  0  0  0  0  0  0  0
    3.6902    0.0020   43.3142 O   0  0  0  0  0  0  0  0  0  0  0  0
    5.5619   -1.7422   46.0223 C   0  0  1  0  0  0  0  0  0  0  0  0
    4.8890   -0.6882   45.2807 O   0  0  0  0  0  0  0  0  0  0  0  0
    6.5281   -1.1513   47.0660 C   0  0  0  0  0  0  0  0  0  0  0  0
    7.6150   -2.0820   47.4280 N   0  3  0  0  0  0  0  0  0  0  0  0
  1  2  1  6  0  0  0
  1  3  1  0  0  0  0
  1 10  1  0  0  0  0
  3  4  1  6  0  0  0
  3  5  1  0  0  0  0
  5  6  1  1  0  0  0
  5  7  1  0  0  0  0
  7  8  1  6  0  0  0
  7  9  1  0  0  0  0
  9 10  1  0  0  0  0
  9 11  1  1  0  0  0
 11 12  1  0  0  0  0
 13 14  1  1  0  0  0
 13 15  1  0  0  0  0
 13 22  1  0  0  0  0
 15 16  1  1  0  0  0
 15 17  1  0  0  0  0
 17 18  1  1  0  0  0
 17 19  1  0  0  0  0
 19  2  1  6  0  0  0
 19 20  1  0  0  0  0
 20 21  1  6  0  0  0
 20 22  1  0  0  0  0
 23 18  1  1  0  0  0
 23 24  1  0  0  0  0
 23 28  1  0  0  0  0
 24 25  1  1  0  0  0
 24 26  1  0  0  0  0
 26 27  1  0  0  0  0
 26 38  1  1  0  0  0
 27 28  1  0  0  0  0
 27 29  1  6  0  0  0
 29 30  1  0  0  0  0
 31 32  1  1  0  0  0
 31 33  1  0  0  0  0
 31 39  1  0  0  0  0
 33 34  1  6  0  0  0
 33 35  1  0  0  0  0
 35 36  1  1  0  0  0
 35 37  1  0  0  0  0
 37 38  1  1  0  0  0
 37 40  1  0  0  0  0
 39 40  1  0  0  0  0
 39 41  1  1  0  0  0
 41 42  1  0  0  0  0
M  CHG  5   4   1  14   1  21   1  36   1  42   1
M  END
>  <CHROM.1>
166.59616830,86.46952481,177.79533435,59.68163111,61.23596461,-173.83795670
160.34680801,-37.20614255,169.47143138,47.27517473,169.71977300,43.03976890
53.45455364,-163.50687271,-171.07629115,-64.03627648,173.41916961,-179.81117653
141.50989711,-80.49359578,82.65141964,65.84365612,3.24569781,0.12201386,40.12526753
2.25417056,1.08622945,-1.72255110

>  <Name>
1pbr

>  <RI>
0

>  <Rbt.Current_Directory>
/home/itssahil/PROJECTS/Mol_Feturizer/New_Systems/rnas/1pbr

>  <Rbt.Executable>
rbdock ($Id: //depot/dev/client3/rdock/2013.1/src/exe/rbdock.cxx#4 $)

>  <Rbt.Library>
libRbt.so (2013.1, Build901 2013/11/27)

>  <Rbt.Parameter_File>
/export/apps/rDock/src/rDock_2013.1_src/data/scripts/dock_solv.prm

>  <Rbt.Receptor>
prm/pocket_docking_5.prm

>  <SCORE>
-33.8196

>  <SCORE.INTER>
-29.2811

>  <SCORE.INTER.CONST>
1

>  <SCORE.INTER.POLAR>
-3.70505

>  <SCORE.INTER.ROT>
9

>  <SCORE.INTER.SOLV>
25.5409

>  <SCORE.INTER.VDW>
-25.2842

>  <SCORE.INTER.norm>
-0.69717

>  <SCORE.INTRA>
-4.53963

>  <SCORE.INTRA.DIHEDRAL>
-11.225

>  <SCORE.INTRA.DIHEDRAL.0>
29.7866

>  <SCORE.INTRA.POLAR>
0.37867

>  <SCORE.INTRA.POLAR.0>
-0.984091

>  <SCORE.INTRA.REPUL>
-0.274115

>  <SCORE.INTRA.REPUL.0>
0.274115

>  <SCORE.INTRA.SOLV>
-3.78927

>  <SCORE.INTRA.SOLV.lig_0>
-152.978

>  <SCORE.INTRA.VDW>
3.05061

>  <SCORE.INTRA.VDW.0>
-6.10719

>  <SCORE.INTRA.norm>
-0.108086

>  <SCORE.RESTR>
0.00113277

>  <SCORE.RESTR.CAVITY>
0.00113277

>  <SCORE.RESTR.norm>
2.69708e-05

>  <SCORE.SYSTEM>
0

>  <SCORE.SYSTEM.CONST>
0

>  <SCORE.SYSTEM.DIHEDRAL>
0

>  <SCORE.SYSTEM.SOLV>
0

>  <SCORE.SYSTEM.norm>
0

>  <SCORE.heavy>
42

>  <SCORE.norm>
-0.805229

>  <RMSD>
8.778

$$$$
1pbr
 OpenBabel11021811403D
libRbt.so/2013.1/901 2013/11/27
 42 45  0  0  0  0  0  0  0  0999 V2000
    2.1336    2.6113   38.1589 C   0  0  2  0  0  0  0  0  0  0  0  0
    2.5064    1.3405   37.5678 O   0  0  0  0  0  0  0  0  0  0  0  0
    0.7021    2.5273   38.8087 C   0  0  2  0  0  0  0  0  0  0  0  0
    0.4352    1.2678   39.5507 N   0  3  0  0  0  0  0  0  0  0  0  0
   -0.4096    2.6474   37.7493 C   0  0  1  0  0  0  0  0  0  0  0  0
   -1.6803    2.8353   38.3683 O   0  0  0  0  0  0  0  0  0  0  0  0
   -0.1324    3.8132   36.7882 C   0  0  2  0  0  0  0  0  0  0  0  0
   -1.1914    3.9358   35.8439 O   0  0  0  0  0  0  0  0  0  0  0  0
    1.2470    3.6491   36.1123 C   0  0  2  0  0  0  0  0  0  0  0  0
    2.2342    3.6684   37.1651 O   0  0  0  0  0  0  0  0  0  0  0  0
    1.5958    4.7582   35.1211 C   0  0  0  0  0  0  0  0  0  0  0  0
    1.4143    6.0432   35.7011 O   0  0  0  0  0  0  0  0  0  0  0  0
    6.2266   -0.4098   36.4255 C   0  0  1  0  0  0  0  0  0  0  0  0
    7.6165   -0.8922   36.3299 N   0  3  0  0  0  0  0  0  0  0  0  0
    5.4192   -1.1510   37.5339 C   0  0  2  0  0  0  0  0  0  0  0  0
    5.3894   -2.5526   37.2747 O   0  0  0  0  0  0  0  0  0  0  0  0
    3.9527   -0.6335   37.6067 C   0  0  1  0  0  0  0  0  0  0  0  0
    3.3025   -1.2371   38.7642 O   0  0  0  0  0  0  0  0  0  0  0  0
    3.8842    0.9241   37.7257 C   0  0  1  0  0  0  0  0  0  0  0  0
    4.7416    1.6537   36.6425 C   0  0  1  0  0  0  0  0  0  0  0  0
    4.7370    3.1199   36.8411 N   0  3  0  0  0  0  0  0  0  0  0  0
    6.2009    1.1296   36.6561 C   0  0  0  0  0  0  0  0  0  0  0  0
    3.9193   -1.1315   40.0871 C   0  0  1  0  0  0  0  0  0  0  0  0
    2.8048   -1.0961   41.1495 C   0  0  2  0  0  0  0  0  0  0  0  0
    3.2460   -0.4362   42.3327 O   0  0  0  0  0  0  0  0  0  0  0  0
    2.6236   -2.6071   41.3592 C   0  0  1  0  0  0  0  0  0  0  0  0
    4.0591   -3.1048   41.3939 C   0  0  2  0  0  0  0  0  0  0  0  0
    4.6737   -2.3200   40.3834 O   0  0  0  0  0  0  0  0  0  0  0  0
    4.2404   -4.5983   41.0933 C   0  0  0  0  0  0  0  0  0  0  0  0
    5.6220   -4.9119   40.9972 O   0  0  0  0  0  0  0  0  0  0  0  0
   -0.5839   -6.5199   42.4663 C   0  0  1  0  0  0  0  0  0  0  0  0
   -1.7996   -5.8130   42.2276 O   0  0  0  0  0  0  0  0  0  0  0  0
    0.3781   -6.3116   41.2634 C   0  0  2  0  0  0  0  0  0  0  0  0
    1.4070   -7.2962   41.3298 O   0  0  0  0  0  0  0  0  0  0  0  0
    1.0399   -4.8976   41.1720 C   0  0  1  0  0  0  0  0  0  0  0  0
    0.1399   -3.9524   40.4752 N   0  3  0  0  0  0  0  0  0  0  0  0
    1.4931   -4.3806   42.5627 C   0  0  1  0  0  0  0  0  0  0  0  0
    1.9151   -2.9947   42.5685 O   0  0  0  0  0  0  0  0  0  0  0  0
    0.0867   -6.0113   43.7671 C   0  0  1  0  0  0  0  0  0  0  0  0
    0.4457   -4.6173   43.5628 O   0  0  0  0  0  0  0  0  0  0  0  0
   -0.7872   -6.1768   45.0244 C   0  0  0  0  0  0  0  0  0  0  0  0
   -0.2605   -5.4347   46.1865 N   0  3  0  0  0  0  0  0  0  0  0  0
  1  2  1  6  0  0  0
  1  3  1  0  0  0  0
  1 10  1  0  0  0  0
  3  4  1  6  0  0  0
  3  5  1  0  0  0  0
  5  6  1  1  0  0  0
  5  7  1  0  0  0  0
  7  8  1  6  0  0  0
  7  9  1  0  0  0  0
  9 10  1  0  0  0  0
  9 11  1  6  0  0  0
 11 12  1  0  0  0  0
 13 14  1  1  0  0  0
 13 15  1  0  0  0  0
 13 22  1  0  0  0  0
 15 16  1  6  0  0  0
 15 17  1  0  0  0  0
 17 18  1  1  0  0  0
 17 19  1  0  0  0  0
 19  2  1  6  0  0  0
 19 20  1  0  0  0  0
 20 21  1  1  0  0  0
 20 22  1  0  0  0  0
 23 18  1  6  0  0  0
 23 24  1  0  0  0  0
 23 28  1  0  0  0  0
 24 25  1  1  0  0  0
 24 26  1  0  0  0  0
 26 27  1  0  0  0  0
 26 38  1  1  0  0  0
 27 28  1  0  0  0  0
 27 29  1  6  0  0  0
 29 30  1  0  0  0  0
 31 32  1  6  0  0  0
 31 33  1  0  0  0  0
 31 39  1  0  0  0  0
 33 34  1  1  0  0  0
 33 35  1  0  0  0  0
 35 36  1  1  0  0  0
 35 37  1  0  0  0  0
 37 38  1  6  0  0  0
 37 40  1  0  0  0  0
 39 40  1  0  0  0  0
 39 41  1  1  0  0  0
 41 42  1  0  0  0  0
M  CHG  5   4   1  14   1  21   1  36   1  42   1
M  END
>  <CHROM.1>
-140.59397888,155.74836618,-70.36731442,-70.79448563,53.98630534,50.78687664
77.90880953,-78.84641151,-63.11642082,53.31285675,148.62357307,56.83516256
-51.99538610,166.08653064,173.09330622,-55.79758561,-64.87562740,-59.90502650
-118.89039849,-36.51598764,-167.72086383,-91.09138044,2.24727947,-1.08156775
39.54119777,1.42431644,0.34187306,-0.58501902

>  <Name>
1pbr

>  <RI>
0

>  <Rbt.Current_Directory>
/home/itssahil/PROJECTS/Mol_Feturizer/New_Systems/rnas/1pbr

>  <Rbt.Executable>
rbdock ($Id: //depot/dev/client3/rdock/2013.1/src/exe/rbdock.cxx#4 $)

>  <Rbt.Library>
libRbt.so (2013.1, Build901 2013/11/27)

>  <Rbt.Parameter_File>
/export/apps/rDock/src/rDock_2013.1_src/data/scripts/dock_solv.prm

>  <Rbt.Receptor>
prm/pocket_docking_3.prm

>  <SCORE>
-25.8357

>  <SCORE.INTER>
-27.2387

>  <SCORE.INTER.CONST>
1

>  <SCORE.INTER.POLAR>
-4.67002

>  <SCORE.INTER.ROT>
9

>  <SCORE.INTER.SOLV>
32.4116

>  <SCORE.INTER.VDW>
-22.9963

>  <SCORE.INTER.norm>
-0.648541

>  <SCORE.INTRA>
0.190632

>  <SCORE.INTRA.DIHEDRAL>
-3.47289

>  <SCORE.INTRA.DIHEDRAL.0>
29.7866

>  <SCORE.INTRA.POLAR>
-0.361275

>  <SCORE.INTRA.POLAR.0>
-0.984091

>  <SCORE.INTRA.REPUL>
-0.274115

>  <SCORE.INTRA.REPUL.0>
0.274115

>  <SCORE.INTRA.SOLV>
2.80613

>  <SCORE.INTRA.SOLV.lig_0>
-152.978

>  <SCORE.INTRA.VDW>
3.12292

>  <SCORE.INTRA.VDW.0>
-6.10719

>  <SCORE.INTRA.norm>
0.00453886

>  <SCORE.RESTR>
1.21241

>  <SCORE.RESTR.CAVITY>
1.21241

>  <SCORE.RESTR.norm>
0.0288668

>  <SCORE.SYSTEM>
0

>  <SCORE.SYSTEM.CONST>
0

>  <SCORE.SYSTEM.DIHEDRAL>
0

>  <SCORE.SYSTEM.SOLV>
0

>  <SCORE.SYSTEM.norm>
0

>  <SCORE.heavy>
42

>  <SCORE.norm>
-0.615135

>  <RMSD>
8.780

$$$$
1pbr
 OpenBabel11021811403D
libRbt.so/2013.1/901 2013/11/27
 42 45  0  0  0  0  0  0  0  0999 V2000
    6.1379   -2.6799   39.4477 C   0  0  2  0  0  0  0  0  0  0  0  0
    6.1552   -2.0563   38.1385 O   0  0  0  0  0  0  0  0  0  0  0  0
    7.5965   -3.0499   39.9103 C   0  0  2  0  0  0  0  0  0  0  0  0
    8.6205   -2.0174   39.6042 N   0  3  0  0  0  0  0  0  0  0  0  0
    8.0873   -4.3527   39.2511 C   0  0  1  0  0  0  0  0  0  0  0  0
    9.2858   -4.8133   39.8714 O   0  0  0  0  0  0  0  0  0  0  0  0
    7.0157   -5.4502   39.3328 C   0  0  2  0  0  0  0  0  0  0  0  0
    7.5031   -6.6586   38.7580 O   0  0  0  0  0  0  0  0  0  0  0  0
    5.6963   -4.9762   38.6840 C   0  0  2  0  0  0  0  0  0  0  0  0
    5.2473   -3.8297   39.4371 O   0  0  0  0  0  0  0  0  0  0  0  0
    4.5785   -6.0176   38.7028 C   0  0  0  0  0  0  0  0  0  0  0  0
    4.8829   -7.1154   37.8527 O   0  0  0  0  0  0  0  0  0  0  0  0
    3.1695    0.0893   35.9730 C   0  0  1  0  0  0  0  0  0  0  0  0
    1.9726    0.5341   35.2357 N   0  3  0  0  0  0  0  0  0  0  0  0
    2.8622   -0.2113   37.4713 C   0  0  2  0  0  0  0  0  0  0  0  0
    2.3458    0.9506   38.1161 O   0  0  0  0  0  0  0  0  0  0  0  0
    4.1428   -0.6664   38.2306 C   0  0  1  0  0  0  0  0  0  0  0  0
    3.7620   -1.0936   39.5721 O   0  0  0  0  0  0  0  0  0  0  0  0
    4.8740   -1.8395   37.4997 C   0  0  1  0  0  0  0  0  0  0  0  0
    5.1269   -1.5473   35.9859 C   0  0  1  0  0  0  0  0  0  0  0  0
    5.7289   -2.7120   35.2998 N   0  3  0  0  0  0  0  0  0  0  0  0
    3.8059   -1.1497   35.2778 C   0  0  0  0  0  0  0  0  0  0  0  0
    2.5625   -1.9091   39.7670 C   0  0  1  0  0  0  0  0  0  0  0  0
    2.7562   -2.7789   41.0231 C   0  0  2  0  0  0  0  0  0  0  0  0
    1.9563   -3.9563   40.9590 O   0  0  0  0  0  0  0  0  0  0  0  0
    2.2499   -1.7884   42.0825 C   0  0  1  0  0  0  0  0  0  0  0  0
    1.0133   -1.2060   41.4182 C   0  0  2  0  0  0  0  0  0  0  0  0
    1.4323   -1.0719   40.0687 O   0  0  0  0  0  0  0  0  0  0  0  0
    0.5517    0.1489   41.9704 C   0  0  0  0  0  0  0  0  0  0  0  0
    0.1715    0.0162   43.3321 O   0  0  0  0  0  0  0  0  0  0  0  0
    4.5472   -4.0137   46.3825 C   0  0  1  0  0  0  0  0  0  0  0  0
    3.6862   -3.7262   47.4830 O   0  0  0  0  0  0  0  0  0  0  0  0
    3.8497   -5.0281   45.4338 C   0  0  2  0  0  0  0  0  0  0  0  0
    4.8326   -5.5861   44.5649 O   0  0  0  0  0  0  0  0  0  0  0  0
    2.6858   -4.4443   44.5677 C   0  0  1  0  0  0  0  0  0  0  0  0
    1.4195   -4.4559   45.3327 N   0  3  0  0  0  0  0  0  0  0  0  0
    3.0332   -3.0417   44.0029 C   0  0  1  0  0  0  0  0  0  0  0  0
    1.9164   -2.3649   43.3753 O   0  0  0  0  0  0  0  0  0  0  0  0
    4.8793   -2.7143   45.6067 C   0  0  1  0  0  0  0  0  0  0  0  0
    3.6381   -2.2055   45.0460 O   0  0  0  0  0  0  0  0  0  0  0  0
    5.5794   -1.6405   46.4604 C   0  0  0  0  0  0  0  0  0  0  0  0
    5.0985   -1.6187   47.8557 N   0  3  0  0  0  0  0  0  0  0  0  0
  1  2  1  6  0  0  0
  1  3  1  0  0  0  0
  1 10  1  0  0  0  0
  3  4  1  6  0  0  0
  3  5  1  0  0  0  0
  5  6  1  1  0  0  0
  5  7  1  0  0  0  0
  7  8  1  6  0  0  0
  7  9  1  0  0  0  0
  9 10  1  0  0  0  0
  9 11  1  1  0  0  0
 11 12  1  0  0  0  0
 13 14  1  6  0  0  0
 13 15  1  0  0  0  0
 13 22  1  0  0  0  0
 15 16  1  1  0  0  0
 15 17  1  0  0  0  0
 17 18  1  1  0  0  0
 17 19  1  0  0  0  0
 19  2  1  1  0  0  0
 19 20  1  0  0  0  0
 20 21  1  6  0  0  0
 20 22  1  0  0  0  0
 23 18  1  1  0  0  0
 23 24  1  0  0  0  0
 23 28  1  0  0  0  0
 24 25  1  6  0  0  0
 24 26  1  0  0  0  0
 26 27  1  0  0  0  0
 26 38  1  1  0  0  0
 27 28  1  0  0  0  0
 27 29  1  1  0  0  0
 29 30  1  0  0  0  0
 31 32  1  1  0  0  0
 31 33  1  0  0  0  0
 31 39  1  0  0  0  0
 33 34  1  6  0  0  0
 33 35  1  0  0  0  0
 35 36  1  1  0  0  0
 35 37  1  0  0  0  0
 37 38  1  1  0  0  0
 37 40  1  0  0  0  0
 39 40  1  0  0  0  0
 39 41  1  1  0  0  0
 41 42  1  0  0  0  0
M  CHG  5   4   1  14   1  21   1  36   1  42   1
M  END
>  <CHROM.1>
171.22844115,72.81936210,59.98463097,-69.46726172,71.53652792,-68.07009947
-63.39642688,-55.55958642,165.23963466,42.41722505,151.73878374,-154.70645436
-57.88280152,58.98676848,-63.18898744,-174.66410178,53.68138486,173.34425208
-50.18028547,-133.04230038,-35.46233983,-146.42137679,4.19868692,-2.73147681
40.84526972,-1.36449508,-0.68470705,1.81197569

>  <Name>
1pbr

>  <RI>
0

>  <Rbt.Current_Directory>
/home/itssahil/PROJECTS/Mol_Feturizer/New_Systems/rnas/1pbr

>  <Rbt.Executable>
rbdock ($Id: //depot/dev/client3/rdock/2013.1/src/exe/rbdock.cxx#4 $)

>  <Rbt.Library>
libRbt.so (2013.1, Build901 2013/11/27)

>  <Rbt.Parameter_File>
/export/apps/rDock/src/rDock_2013.1_src/data/scripts/dock_solv.prm

>  <Rbt.Receptor>
prm/pocket_docking_7.prm

>  <SCORE>
-39.434

>  <SCORE.INTER>
-33.314

>  <SCORE.INTER.CONST>
1

>  <SCORE.INTER.POLAR>
-5.00562

>  <SCORE.INTER.ROT>
9

>  <SCORE.INTER.SOLV>
27.8003

>  <SCORE.INTER.VDW>
-24.3907

>  <SCORE.INTER.norm>
-0.793192

>  <SCORE.INTRA>
-6.11996

>  <SCORE.INTRA.DIHEDRAL>
-8.12819

>  <SCORE.INTRA.DIHEDRAL.0>
29.7866

>  <SCORE.INTRA.POLAR>
-0.550142

>  <SCORE.INTRA.POLAR.0>
-0.984091

>  <SCORE.INTRA.REPUL>
-0.258558

>  <SCORE.INTRA.REPUL.0>
0.274115

>  <SCORE.INTRA.SOLV>
-0.630182

>  <SCORE.INTRA.SOLV.lig_0>
-152.978

>  <SCORE.INTRA.VDW>
1.4225

>  <SCORE.INTRA.VDW.0>
-6.10719

>  <SCORE.INTRA.norm>
-0.145713

>  <SCORE.RESTR>
0

>  <SCORE.RESTR.CAVITY>
0

>  <SCORE.RESTR.norm>
0

>  <SCORE.SYSTEM>
0

>  <SCORE.SYSTEM.CONST>
0

>  <SCORE.SYSTEM.DIHEDRAL>
0

>  <SCORE.SYSTEM.SOLV>
0

>  <SCORE.SYSTEM.norm>
0

>  <SCORE.heavy>
42

>  <SCORE.norm>
-0.938905

>  <RMSD>
8.808

$$$$
1pbr
 OpenBabel11021811403D
libRbt.so/2013.1/901 2013/11/27
 42 45  0  0  0  0  0  0  0  0999 V2000
    5.9787    0.2292   36.7219 C   0  0  2  0  0  0  0  0  0  0  0  0
    5.0017   -0.7302   36.2444 O   0  0  0  0  0  0  0  0  0  0  0  0
    7.4377   -0.2195   36.3370 C   0  0  2  0  0  0  0  0  0  0  0  0
    7.5691   -0.7783   34.9663 N   0  3  0  0  0  0  0  0  0  0  0  0
    7.9703   -1.3007   37.2961 C   0  0  1  0  0  0  0  0  0  0  0  0
    9.3683   -1.5043   37.1032 O   0  0  0  0  0  0  0  0  0  0  0  0
    7.7073   -0.9175   38.7603 C   0  0  2  0  0  0  0  0  0  0  0  0
    8.2446   -1.9066   39.6327 O   0  0  0  0  0  0  0  0  0  0  0  0
    6.2009   -0.6725   38.9998 C   0  0  2  0  0  0  0  0  0  0  0  0
    5.8162    0.4312   38.1530 O   0  0  0  0  0  0  0  0  0  0  0  0
    5.8463   -0.3054   40.4398 C   0  0  0  0  0  0  0  0  0  0  0  0
    5.9591   -1.4308   41.3009 O   0  0  0  0  0  0  0  0  0  0  0  0
    1.7077    1.3549   37.9791 C   0  0  1  0  0  0  0  0  0  0  0  0
    0.3853    1.8537   38.3990 N   0  3  0  0  0  0  0  0  0  0  0  0
    2.0115   -0.0640   38.5483 C   0  0  2  0  0  0  0  0  0  0  0  0
    1.9714   -0.0476   39.9733 O   0  0  0  0  0  0  0  0  0  0  0  0
    3.4171   -0.5630   38.1021 C   0  0  1  0  0  0  0  0  0  0  0  0
    3.5726   -1.9518   38.5192 O   0  0  0  0  0  0  0  0  0  0  0  0
    3.6133   -0.4602   36.5541 C   0  0  1  0  0  0  0  0  0  0  0  0
    3.2530    0.9511   35.9893 C   0  0  1  0  0  0  0  0  0  0  0  0
    3.3526    0.9886   34.5135 N   0  3  0  0  0  0  0  0  0  0  0  0
    1.8245    1.3667   36.4268 C   0  0  0  0  0  0  0  0  0  0  0  0
    2.5383   -2.9340   38.1914 C   0  0  1  0  0  0  0  0  0  0  0  0
    3.0429   -4.3334   38.5902 C   0  0  2  0  0  0  0  0  0  0  0  0
    2.4063   -5.3468   37.8169 O   0  0  0  0  0  0  0  0  0  0  0  0
    2.5846   -4.3461   40.0564 C   0  0  1  0  0  0  0  0  0  0  0  0
    1.1920   -3.7444   39.9668 C   0  0  2  0  0  0  0  0  0  0  0  0
    1.3695   -2.7186   39.0020 O   0  0  0  0  0  0  0  0  0  0  0  0
    0.6485   -3.1571   41.2757 C   0  0  0  0  0  0  0  0  0  0  0  0
    0.3665   -4.1996   42.1976 O   0  0  0  0  0  0  0  0  0  0  0  0
    6.0467   -7.5904   42.3156 C   0  0  1  0  0  0  0  0  0  0  0  0
    5.5161   -7.7421   43.6309 O   0  0  0  0  0  0  0  0  0  0  0  0
    5.1919   -8.4191   41.3164 C   0  0  2  0  0  0  0  0  0  0  0  0
    5.9272   -8.5659   40.1038 O   0  0  0  0  0  0  0  0  0  0  0  0
    3.7854   -7.8223   40.9826 C   0  0  1  0  0  0  0  0  0  0  0  0
    2.7962   -8.2356   42.0022 N   0  3  0  0  0  0  0  0  0  0  0  0
    3.8413   -6.2841   40.7892 C   0  0  1  0  0  0  0  0  0  0  0  0
    2.5405   -5.6538   40.6910 O   0  0  0  0  0  0  0  0  0  0  0  0
    6.0361   -6.0975   41.9009 C   0  0  1  0  0  0  0  0  0  0  0  0
    4.6493   -5.6645   41.8460 O   0  0  0  0  0  0  0  0  0  0  0  0
    6.8613   -5.1872   42.8294 C   0  0  0  0  0  0  0  0  0  0  0  0
    7.4247   -4.0174   42.1274 N   0  3  0  0  0  0  0  0  0  0  0  0
  1  2  1  1  0  0  0
  1  3  1  0  0  0  0
  1 10  1  0  0  0  0
  3  4  1  6  0  0  0
  3  5  1  0  0  0  0
  5  6  1  1  0  0  0
  5  7  1  0  0  0  0
  7  8  1  1  0  0  0
  7  9  1  0  0  0  0
  9 10  1  0  0  0  0
  9 11  1  1  0  0  0
 11 12  1  0  0  0  0
 13 14  1  6  0  0  0
 13 15  1  0  0  0  0
 13 22  1  0  0  0  0
 15 16  1  1  0  0  0
 15 17  1  0  0  0  0
 17 18  1  6  0  0  0
 17 19  1  0  0  0  0
 19  2  1  1  0  0  0
 19 20  1  0  0  0  0
 20 21  1  6  0  0  0
 20 22  1  0  0  0  0
 23 18  1  1  0  0  0
 23 24  1  0  0  0  0
 23 28  1  0  0  0  0
 24 25  1  6  0  0  0
 24 26  1  0  0  0  0
 26 27  1  0  0  0  0
 26 38  1  6  0  0  0
 27 28  1  0  0  0  0
 27 29  1  1  0  0  0
 29 30  1  0  0  0  0
 31 32  1  1  0  0  0
 31 33  1  0  0  0  0
 31 39  1  0  0  0  0
 33 34  1  6  0  0  0
 33 35  1  0  0  0  0
 35 36  1  1  0  0  0
 35 37  1  0  0  0  0
 37 38  1  1  0  0  0
 37 40  1  0  0  0  0
 39 40  1  0  0  0  0
 39 41  1  1  0  0  0
 41 42  1  0  0  0  0
M  CHG  5   4   1  14   1  21   1  36   1  42   1
M  END
>  <CHROM.1>
178.65879490,-66.08844226,-72.24600736,56.61794303,-171.35785818,-72.34417871
-70.76173703,52.75567070,66.76897912,50.83267050,172.86338332,177.81625956
-45.91224218,63.48161080,-69.81628907,-66.01141951,63.50446366,176.57214310
171.69529147,-159.57794434,150.20441378,67.97368142,4.35998010,-2.82403173
39.27368596,-1.59109824,-0.09311485,2.55241266

>  <Name>
1pbr

>  <RI>
0

>  <Rbt.Current_Directory>
/home/itssahil/PROJECTS/Mol_Feturizer/New_Systems/rnas/1pbr

>  <Rbt.Executable>
rbdock ($Id: //depot/dev/client3/rdock/2013.1/src/exe/rbdock.cxx#4 $)

>  <Rbt.Library>
libRbt.so (2013.1, Build901 2013/11/27)

>  <Rbt.Parameter_File>
/export/apps/rDock/src/rDock_2013.1_src/data/scripts/dock_solv.prm

>  <Rbt.Receptor>
prm/pocket_docking_7.prm

>  <SCORE>
-29.8469

>  <SCORE.INTER>
-19.5451

>  <SCORE.INTER.CONST>
1

>  <SCORE.INTER.POLAR>
-3.46825

>  <SCORE.INTER.ROT>
9

>  <SCORE.INTER.SOLV>
21.9157

>  <SCORE.INTER.VDW>
-18.3745

>  <SCORE.INTER.norm>
-0.465359

>  <SCORE.INTRA>
-10.3018

>  <SCORE.INTRA.DIHEDRAL>
-18.9952

>  <SCORE.INTRA.DIHEDRAL.0>
29.7866

>  <SCORE.INTRA.POLAR>
-0.657715

>  <SCORE.INTRA.POLAR.0>
-0.984091

>  <SCORE.INTRA.REPUL>
-0.274115

>  <SCORE.INTRA.REPUL.0>
0.274115

>  <SCORE.INTRA.SOLV>
0.696858

>  <SCORE.INTRA.SOLV.lig_0>
-152.978

>  <SCORE.INTRA.VDW>
2.45422

>  <SCORE.INTRA.VDW.0>
-6.10719

>  <SCORE.INTRA.norm>
-0.24528

>  <SCORE.RESTR>
0

>  <SCORE.RESTR.CAVITY>
0

>  <SCORE.RESTR.norm>
0

>  <SCORE.SYSTEM>
0

>  <SCORE.SYSTEM.CONST>
0

>  <SCORE.SYSTEM.DIHEDRAL>
0

>  <SCORE.SYSTEM.SOLV>
0

>  <SCORE.SYSTEM.norm>
0

>  <SCORE.heavy>
42

>  <SCORE.norm>
-0.71064

>  <RMSD>
8.809

$$$$
1pbr
 OpenBabel11021811403D
libRbt.so/2013.1/901 2013/11/27
 42 45  0  0  0  0  0  0  0  0999 V2000
    3.9476   -1.9282   36.0754 C   0  0  2  0  0  0  0  0  0  0  0  0
    2.8488   -1.5839   36.9571 O   0  0  0  0  0  0  0  0  0  0  0  0
    4.6963   -3.2137   36.5904 C   0  0  2  0  0  0  0  0  0  0  0  0
    3.8015   -4.2857   37.0988 N   0  3  0  0  0  0  0  0  0  0  0  0
    5.6678   -2.8823   37.7389 C   0  0  1  0  0  0  0  0  0  0  0  0
    6.5230   -3.9898   38.0137 O   0  0  0  0  0  0  0  0  0  0  0  0
    6.5207   -1.6499   37.4019 C   0  0  2  0  0  0  0  0  0  0  0  0
    7.4420   -1.3853   38.4552 O   0  0  0  0  0  0  0  0  0  0  0  0
    5.6230   -0.4342   37.0814 C   0  0  2  0  0  0  0  0  0  0  0  0
    4.8370   -0.7875   35.9236 O   0  0  0  0  0  0  0  0  0  0  0  0
    6.3923    0.8446   36.7544 C   0  0  0  0  0  0  0  0  0  0  0  0
    7.3050    0.6373   35.6846 O   0  0  0  0  0  0  0  0  0  0  0  0
    2.8997    2.6631   36.5473 C   0  0  1  0  0  0  0  0  0  0  0  0
    2.5818    4.0918   36.3697 N   0  3  0  0  0  0  0  0  0  0  0  0
    2.3538    2.0998   37.8943 C   0  0  2  0  0  0  0  0  0  0  0  0
    2.9037    2.8206   38.9945 O   0  0  0  0  0  0  0  0  0  0  0  0
    2.7127    0.5945   38.0643 C   0  0  1  0  0  0  0  0  0  0  0  0
    2.0348    0.0850   39.2509 O   0  0  0  0  0  0  0  0  0  0  0  0
    2.2916   -0.2544   36.8205 C   0  0  1  0  0  0  0  0  0  0  0  0
    2.7991    0.3512   35.4727 C   0  0  1  0  0  0  0  0  0  0  0  0
    2.3023   -0.4169   34.3096 N   0  3  0  0  0  0  0  0  0  0  0  0
    2.3660    1.8344   35.3424 C   0  0  0  0  0  0  0  0  0  0  0  0
    1.9263    0.9214   40.4469 C   0  0  1  0  0  0  0  0  0  0  0  0
    1.2308    0.1092   41.5553 C   0  0  2  0  0  0  0  0  0  0  0  0
    0.5845    0.9682   42.4906 O   0  0  0  0  0  0  0  0  0  0  0  0
    2.4634   -0.5830   42.1564 C   0  0  1  0  0  0  0  0  0  0  0  0
    3.4823    0.5439   42.1955 C   0  0  2  0  0  0  0  0  0  0  0  0
    3.2331    1.2167   40.9707 O   0  0  0  0  0  0  0  0  0  0  0  0
    4.9481    0.0973   42.2699 C   0  0  0  0  0  0  0  0  0  0  0  0
    5.8047    1.2293   42.2383 O   0  0  0  0  0  0  0  0  0  0  0  0
    2.0507    0.6967   47.3774 C   0  0  1  0  0  0  0  0  0  0  0  0
    1.6713   -0.4928   48.0672 O   0  0  0  0  0  0  0  0  0  0  0  0
    3.4716    0.5123   46.7752 C   0  0  2  0  0  0  0  0  0  0  0  0
    3.9855    1.7950   46.4243 O   0  0  0  0  0  0  0  0  0  0  0  0
    3.5527   -0.4217   45.5235 C   0  0  1  0  0  0  0  0  0  0  0  0
    3.6662   -1.8359   45.9434 N   0  3  0  0  0  0  0  0  0  0  0  0
    2.3744   -0.1790   44.5440 C   0  0  1  0  0  0  0  0  0  0  0  0
    2.2804   -1.1575   43.4797 O   0  0  0  0  0  0  0  0  0  0  0  0
    1.0389    1.0074   46.2459 C   0  0  1  0  0  0  0  0  0  0  0  0
    1.1093   -0.0775   45.2806 O   0  0  0  0  0  0  0  0  0  0  0  0
   -0.4053    1.2122   46.7404 C   0  0  0  0  0  0  0  0  0  0  0  0
   -1.4120    0.8796   45.7136 N   0  3  0  0  0  0  0  0  0  0  0  0
  1  2  1  1  0  0  0
  1  3  1  0  0  0  0
  1 10  1  0  0  0  0
  3  4  1  1  0  0  0
  3  5  1  0  0  0  0
  5  6  1  6  0  0  0
  5  7  1  0  0  0  0
  7  8  1  1  0  0  0
  7  9  1  0  0  0  0
  9 10  1  0  0  0  0
  9 11  1  6  0  0  0
 11 12  1  0  0  0  0
 13 14  1  6  0  0  0
 13 15  1  0  0  0  0
 13 22  1  0  0  0  0
 15 16  1  1  0  0  0
 15 17  1  0  0  0  0
 17 18  1  1  0  0  0
 17 19  1  0  0  0  0
 19  2  1  1  0  0  0
 19 20  1  0  0  0  0
 20 21  1  6  0  0  0
 20 22  1  0  0  0  0
 23 18  1  6  0  0  0
 23 24  1  0  0  0  0
 23 28  1  0  0  0  0
 24 25  1  1  0  0  0
 24 26  1  0  0  0  0
 26 27  1  0  0  0  0
 26 38  1  1  0  0  0
 27 28  1  0  0  0  0
 27 29  1  6  0  0  0
 29 30  1  0  0  0  0
 31 32  1  6  0  0  0
 31 33  1  0  0  0  0
 31 39  1  0  0  0  0
 33 34  1  6  0  0  0
 33 35  1  0  0  0  0
 35 36  1  1  0  0  0
 35 37  1  0  0  0  0
 37 38  1  6  0  0  0
 37 40  1  0  0  0  0
 39 40  1  0  0  0  0
 39 41  1  1  0  0  0
 41 42  1  0  0  0  0
M  CHG  5   4   1  14   1  21   1  36   1  42   1
M  END
>  <CHROM.1>
164.38161841,-108.19163542,130.00443611,-177.90640054,-60.23162657,55.57153348
-63.40585075,61.31913391,-60.20357500,-38.75206847,-177.24729366,174.82477344
52.65914338,-80.60605497,177.30304147,84.49275599,-61.68590013,153.63480416
-40.47868646,-116.94282432,-153.06607016,163.67783111,3.29647800,-0.01481968
40.47893886,-1.20729946,-0.75193360,1.74026099

>  <Name>
1pbr

>  <RI>
0

>  <Rbt.Current_Directory>
/home/itssahil/PROJECTS/Mol_Feturizer/New_Systems/rnas/1pbr

>  <Rbt.Executable>
rbdock ($Id: //depot/dev/client3/rdock/2013.1/src/exe/rbdock.cxx#4 $)

>  <Rbt.Library>
libRbt.so (2013.1, Build901 2013/11/27)

>  <Rbt.Parameter_File>
/export/apps/rDock/src/rDock_2013.1_src/data/scripts/dock_solv.prm

>  <Rbt.Receptor>
prm/blind_docking_60.prm

>  <SCORE>
-23.2007

>  <SCORE.INTER>
-40.9903

>  <SCORE.INTER.CONST>
1

>  <SCORE.INTER.POLAR>
-6.39838

>  <SCORE.INTER.ROT>
9

>  <SCORE.INTER.SOLV>
41.2784

>  <SCORE.INTER.VDW>
-29.3584

>  <SCORE.INTER.norm>
-0.97596

>  <SCORE.INTRA>
16.753

>  <SCORE.INTRA.DIHEDRAL>
2.59381

>  <SCORE.INTRA.DIHEDRAL.0>
29.7866

>  <SCORE.INTRA.POLAR>
0.880529

>  <SCORE.INTRA.POLAR.0>
-0.984091

>  <SCORE.INTRA.REPUL>
-0.274115

>  <SCORE.INTRA.REPUL.0>
0.274115

>  <SCORE.INTRA.SOLV>
-0.525051

>  <SCORE.INTRA.SOLV.lig_0>
-152.978

>  <SCORE.INTRA.VDW>
14.0954

>  <SCORE.INTRA.VDW.0>
-6.10719

>  <SCORE.INTRA.norm>
0.39888

>  <SCORE.RESTR>
1.03671

>  <SCORE.RESTR.CAVITY>
1.03671

>  <SCORE.RESTR.norm>
0.0246835

>  <SCORE.SYSTEM>
0

>  <SCORE.SYSTEM.CONST>
0

>  <SCORE.SYSTEM.DIHEDRAL>
0

>  <SCORE.SYSTEM.SOLV>
0

>  <SCORE.SYSTEM.norm>
0

>  <SCORE.heavy>
42

>  <SCORE.norm>
-0.552397

>  <RMSD>
8.817

$$$$
1pbr
 OpenBabel11021811403D
libRbt.so/2013.1/901 2013/11/27
 42 45  0  0  0  0  0  0  0  0999 V2000
    5.0036    0.1534   37.9381 C   0  0  2  0  0  0  0  0  0  0  0  0
    4.1165    1.1947   37.4564 O   0  0  0  0  0  0  0  0  0  0  0  0
    6.0961   -0.1939   36.8591 C   0  0  2  0  0  0  0  0  0  0  0  0
    6.6646    0.9854   36.1560 N   0  3  0  0  0  0  0  0  0  0  0  0
    5.5366   -1.1207   35.7634 C   0  0  1  0  0  0  0  0  0  0  0  0
    6.5888   -1.6361   34.9506 O   0  0  0  0  0  0  0  0  0  0  0  0
    4.7474   -2.2870   36.3771 C   0  0  2  0  0  0  0  0  0  0  0  0
    4.2755   -3.1560   35.3522 O   0  0  0  0  0  0  0  0  0  0  0  0
    3.6083   -1.7624   37.2791 C   0  0  2  0  0  0  0  0  0  0  0  0
    4.2291   -1.0093   38.3425 O   0  0  0  0  0  0  0  0  0  0  0  0
    2.7566   -2.8594   37.9158 C   0  0  0  0  0  0  0  0  0  0  0  0
    1.6889   -2.3074   38.6746 O   0  0  0  0  0  0  0  0  0  0  0  0
    0.0193    2.1044   38.2265 C   0  0  1  0  0  0  0  0  0  0  0  0
   -1.4480    2.1059   38.3709 N   0  3  0  0  0  0  0  0  0  0  0  0
    0.7082    1.1088   39.2083 C   0  0  2  0  0  0  0  0  0  0  0  0
    0.3918    1.4418   40.5580 O   0  0  0  0  0  0  0  0  0  0  0  0
    2.2562    1.1347   39.0457 C   0  0  1  0  0  0  0  0  0  0  0  0
    2.8283    0.0697   39.8615 O   0  0  0  0  0  0  0  0  0  0  0  0
    2.6944    0.9416   37.5572 C   0  0  1  0  0  0  0  0  0  0  0  0
    1.9560    1.9085   36.5771 C   0  0  1  0  0  0  0  0  0  0  0  0
    2.3165    1.6353   35.1682 N   0  3  0  0  0  0  0  0  0  0  0  0
    0.4195    1.7976   36.7537 C   0  0  0  0  0  0  0  0  0  0  0  0
    3.2674    0.3515   41.2288 C   0  0  1  0  0  0  0  0  0  0  0  0
    2.0345    0.3551   42.1519 C   0  0  2  0  0  0  0  0  0  0  0  0
    2.2631    1.1554   43.3084 O   0  0  0  0  0  0  0  0  0  0  0  0
    1.9773   -1.1438   42.4835 C   0  0  1  0  0  0  0  0  0  0  0  0
    3.4396   -1.4790   42.7257 C   0  0  2  0  0  0  0  0  0  0  0  0
    4.0925   -0.7198   41.7197 O   0  0  0  0  0  0  0  0  0  0  0  0
    3.8005   -2.9641   42.5914 C   0  0  0  0  0  0  0  0  0  0  0  0
    5.1698   -3.1636   42.9097 O   0  0  0  0  0  0  0  0  0  0  0  0
    0.0068   -5.5378   44.6637 C   0  0  1  0  0  0  0  0  0  0  0  0
    0.4197   -5.4515   46.0263 O   0  0  0  0  0  0  0  0  0  0  0  0
   -1.1434   -4.5241   44.4086 C   0  0  2  0  0  0  0  0  0  0  0  0
   -1.7900   -4.8700   43.1859 O   0  0  0  0  0  0  0  0  0  0  0  0
   -0.7106   -3.0227   44.3415 C   0  0  1  0  0  0  0  0  0  0  0  0
   -0.6491   -2.4438   45.7017 N   0  3  0  0  0  0  0  0  0  0  0  0
    0.6105   -2.8370   43.5497 C   0  0  1  0  0  0  0  0  0  0  0  0
    1.1689   -1.5030   43.6376 O   0  0  0  0  0  0  0  0  0  0  0  0
    1.1967   -5.2275   43.7212 C   0  0  1  0  0  0  0  0  0  0  0  0
    1.5948   -3.8484   43.9520 O   0  0  0  0  0  0  0  0  0  0  0  0
    2.3929   -6.1824   43.8928 C   0  0  0  0  0  0  0  0  0  0  0  0
    2.1111   -7.5438   43.3971 N   0  3  0  0  0  0  0  0  0  0  0  0
  1  2  1  6  0  0  0
  1  3  1  0  0  0  0
  1 10  1  0  0  0  0
  3  4  1  6  0  0  0
  3  5  1  0  0  0  0
  5  6  1  1  0  0  0
  5  7  1  0  0  0  0
  7  8  1  6  0  0  0
  7  9  1  0  0  0  0
  9 10  1  0  0  0  0
  9 11  1  1  0  0  0
 11 12  1  0  0  0  0
 13 14  1  6  0  0  0
 13 15  1  0  0  0  0
 13 22  1  0  0  0  0
 15 16  1  1  0  0  0
 15 17  1  0  0  0  0
 17 18  1  1  0  0  0
 17 19  1  0  0  0  0
 19  2  1  1  0  0  0
 19 20  1  0  0  0  0
 20 21  1  6  0  0  0
 20 22  1  0  0  0  0
 23 18  1  6  0  0  0
 23 24  1  0  0  0  0
 23 28  1  0  0  0  0
 24 25  1  1  0  0  0
 24 26  1  0  0  0  0
 26 27  1  0  0  0  0
 26 38  1  1  0  0  0
 27 28  1  0  0  0  0
 27 29  1  6  0  0  0
 29 30  1  0  0  0  0
 31 32  1  1  0  0  0
 31 33  1  0  0  0  0
 31 39  1  0  0  0  0
 33 34  1  6  0  0  0
 33 35  1  0  0  0  0
 35 36  1  1  0  0  0
 35 37  1  0  0  0  0
 37 38  1  1  0  0  0
 37 40  1  0  0  0  0
 39 40  1  0  0  0  0
 39 41  1  1  0  0  0
 41 42  1  0  0  0  0
M  CHG  5   4   1  14   1  21   1  36   1  42   1
M  END
>  <CHROM.1>
129.47850877,76.25950136,55.92346340,-85.79566914,-58.01593628,-176.99199091
-157.49099345,48.96448965,67.54060520,-93.09536314,80.14040196,-179.10558689
-60.53659279,151.64624668,-176.83964252,-69.09440820,172.87616305,64.03458342
-161.65838504,-152.95187922,70.37963988,56.40560090,2.35148362,-1.46196140
40.34117356,-1.11207144,-0.71361359,2.41331074

>  <Name>
1pbr

>  <RI>
0

>  <Rbt.Current_Directory>
/home/itssahil/PROJECTS/Mol_Feturizer/New_Systems/rnas/1pbr

>  <Rbt.Executable>
rbdock ($Id: //depot/dev/client3/rdock/2013.1/src/exe/rbdock.cxx#4 $)

>  <Rbt.Library>
libRbt.so (2013.1, Build901 2013/11/27)

>  <Rbt.Parameter_File>
/export/apps/rDock/src/rDock_2013.1_src/data/scripts/dock_solv.prm

>  <Rbt.Receptor>
prm/pocket_docking_4.prm

>  <SCORE>
-21.0594

>  <SCORE.INTER>
-26.1252

>  <SCORE.INTER.CONST>
1

>  <SCORE.INTER.POLAR>
-3.40607

>  <SCORE.INTER.ROT>
9

>  <SCORE.INTER.SOLV>
28.1208

>  <SCORE.INTER.VDW>
-25.0368

>  <SCORE.INTER.norm>
-0.622029

>  <SCORE.INTRA>
4.73118

>  <SCORE.INTRA.DIHEDRAL>
-1.09054

>  <SCORE.INTRA.DIHEDRAL.0>
29.7866

>  <SCORE.INTRA.POLAR>
0.984091

>  <SCORE.INTRA.POLAR.0>
-0.984091

>  <SCORE.INTRA.REPUL>
-0.184458

>  <SCORE.INTRA.REPUL.0>
0.274115

>  <SCORE.INTRA.SOLV>
-1.89775

>  <SCORE.INTRA.SOLV.lig_0>
-152.978

>  <SCORE.INTRA.VDW>
3.80171

>  <SCORE.INTRA.VDW.0>
-6.10719

>  <SCORE.INTRA.norm>
0.112647

>  <SCORE.RESTR>
0.334612

>  <SCORE.RESTR.CAVITY>
0.334612

>  <SCORE.RESTR.norm>
0.00796696

>  <SCORE.SYSTEM>
0

>  <SCORE.SYSTEM.CONST>
0

>  <SCORE.SYSTEM.DIHEDRAL>
0

>  <SCORE.SYSTEM.SOLV>
0

>  <SCORE.SYSTEM.norm>
0

>  <SCORE.heavy>
42

>  <SCORE.norm>
-0.501415

>  <RMSD>
8.820

$$$$
1pbr
 OpenBabel11021811403D
libRbt.so/2013.1/901 2013/11/27
 42 45  0  0  0  0  0  0  0  0999 V2000
    3.8050   -0.8188   36.2364 C   0  0  2  0  0  0  0  0  0  0  0  0
    3.4490    0.4166   36.9074 O   0  0  0  0  0  0  0  0  0  0  0  0
    3.6917   -2.0424   37.2205 C   0  0  2  0  0  0  0  0  0  0  0  0
    2.5026   -2.0088   38.1111 N   0  3  0  0  0  0  0  0  0  0  0  0
    4.9199   -2.1426   38.1447 C   0  0  1  0  0  0  0  0  0  0  0  0
    4.9313   -3.3887   38.8378 O   0  0  0  0  0  0  0  0  0  0  0  0
    6.2242   -1.9895   37.3478 C   0  0  2  0  0  0  0  0  0  0  0  0
    7.3483   -2.1284   38.2110 O   0  0  0  0  0  0  0  0  0  0  0  0
    6.2368   -0.6549   36.5698 C   0  0  2  0  0  0  0  0  0  0  0  0
    5.1286   -0.6982   35.6459 O   0  0  0  0  0  0  0  0  0  0  0  0
    7.5112   -0.4110   35.7634 C   0  0  0  0  0  0  0  0  0  0  0  0
    8.6714   -0.6292   36.5551 O   0  0  0  0  0  0  0  0  0  0  0  0
    0.1197    3.0817   36.7627 C   0  0  1  0  0  0  0  0  0  0  0  0
   -1.2096    3.7151   36.6871 N   0  3  0  0  0  0  0  0  0  0  0  0
    0.3232    2.2928   38.0916 C   0  0  2  0  0  0  0  0  0  0  0  0
    0.1768    3.1608   39.2130 O   0  0  0  0  0  0  0  0  0  0  0  0
    1.7372    1.6446   38.1533 C   0  0  1  0  0  0  0  0  0  0  0  0
    1.8055    0.7865   39.3306 O   0  0  0  0  0  0  0  0  0  0  0  0
    2.0531    0.8001   36.8757 C   0  0  1  0  0  0  0  0  0  0  0  0
    1.7927    1.5848   35.5501 C   0  0  1  0  0  0  0  0  0  0  0  0
    2.0043    0.7301   34.3609 N   0  3  0  0  0  0  0  0  0  0  0  0
    0.3531    2.1608   35.5295 C   0  0  0  0  0  0  0  0  0  0  0  0
    1.4496    1.3201   40.6460 C   0  0  1  0  0  0  0  0  0  0  0  0
    1.3734    0.1526   41.6477 C   0  0  2  0  0  0  0  0  0  0  0  0
    0.5094    0.4674   42.7361 O   0  0  0  0  0  0  0  0  0  0  0  0
    2.8490    0.1023   42.0718 C   0  0  1  0  0  0  0  0  0  0  0  0
    3.1906    1.5741   42.2353 C   0  0  2  0  0  0  0  0  0  0  0  0
    2.5018    2.1653   41.1440 O   0  0  0  0  0  0  0  0  0  0  0  0
    4.6861    1.9093   42.1666 C   0  0  0  0  0  0  0  0  0  0  0  0
    5.1974    1.5948   40.8798 O   0  0  0  0  0  0  0  0  0  0  0  0
    1.8428    0.6471   47.2216 C   0  0  1  0  0  0  0  0  0  0  0  0
    1.2225   -0.5903   47.5665 O   0  0  0  0  0  0  0  0  0  0  0  0
    3.3681    0.4220   47.0258 C   0  0  2  0  0  0  0  0  0  0  0  0
    4.0209    1.6891   47.0547 O   0  0  0  0  0  0  0  0  0  0  0  0
    3.7722   -0.3222   45.7110 C   0  0  1  0  0  0  0  0  0  0  0  0
    3.6916   -1.7870   45.9035 N   0  3  0  0  0  0  0  0  0  0  0  0
    2.9479    0.1693   44.4921 C   0  0  1  0  0  0  0  0  0  0  0  0
    3.1274   -0.6299   43.2970 O   0  0  0  0  0  0  0  0  0  0  0  0
    1.2254    1.2124   45.9178 C   0  0  1  0  0  0  0  0  0  0  0  0
    1.5278    0.2787   44.8452 O   0  0  0  0  0  0  0  0  0  0  0  0
   -0.2894    1.4755   46.0088 C   0  0  0  0  0  0  0  0  0  0  0  0
   -1.0592    0.2628   46.3486 N   0  3  0  0  0  0  0  0  0  0  0  0
  1  2  1  1  0  0  0
  1  3  1  0  0  0  0
  1 10  1  0  0  0  0
  3  4  1  1  0  0  0
  3  5  1  0  0  0  0
  5  6  1  6  0  0  0
  5  7  1  0  0  0  0
  7  8  1  1  0  0  0
  7  9  1  0  0  0  0
  9 10  1  0  0  0  0
  9 11  1  6  0  0  0
 11 12  1  0  0  0  0
 13 14  1  1  0  0  0
 13 15  1  0  0  0  0
 13 22  1  0  0  0  0
 15 16  1  1  0  0  0
 15 17  1  0  0  0  0
 17 18  1  1  0  0  0
 17 19  1  0  0  0  0
 19  2  1  1  0  0  0
 19 20  1  0  0  0  0
 20 21  1  6  0  0  0
 20 22  1  0  0  0  0
 23 18  1  6  0  0  0
 23 24  1  0  0  0  0
 23 28  1  0  0  0  0
 24 25  1  1  0  0  0
 24 26  1  0  0  0  0
 26 27  1  0  0  0  0
 26 38  1  1  0  0  0
 27 28  1  0  0  0  0
 27 29  1  6  0  0  0
 29 30  1  0  0  0  0
 31 32  1  6  0  0  0
 31 33  1  0  0  0  0
 31 39  1  0  0  0  0
 33 34  1  6  0  0  0
 33 35  1  0  0  0  0
 35 36  1  1  0  0  0
 35 37  1  0  0  0  0
 37 38  1  6  0  0  0
 37 40  1  0  0  0  0
 39 40  1  0  0  0  0
 39 41  1  1  0  0  0
 41 42  1  0  0  0  0
M  CHG  5   4   1  14   1  21   1  36   1  42   1
M  END
>  <CHROM.1>
-89.28147097,151.54679004,-55.48361140,-72.71912241,56.08578528,-49.20522186
152.90312181,170.83406737,-54.24216025,-52.75793679,170.21269972,56.09472645
-176.86815328,-84.47674979,63.64679855,-66.59065686,56.43317123,-178.21116709
163.39346488,-155.32487819,-58.40836802,-72.44775325,2.88031644,0.34577847
40.52856723,-1.32247448,-0.53177206,1.65677584

>  <Name>
1pbr

>  <RI>
0

>  <Rbt.Current_Directory>
/home/itssahil/PROJECTS/Mol_Feturizer/New_Systems/rnas/1pbr

>  <Rbt.Executable>
rbdock ($Id: //depot/dev/client3/rdock/2013.1/src/exe/rbdock.cxx#4 $)

>  <Rbt.Library>
libRbt.so (2013.1, Build901 2013/11/27)

>  <Rbt.Parameter_File>
/export/apps/rDock/src/rDock_2013.1_src/data/scripts/dock_solv.prm

>  <Rbt.Receptor>
prm/blind_docking_60.prm

>  <SCORE>
-38.8086

>  <SCORE.INTER>
-36.041

>  <SCORE.INTER.CONST>
1

>  <SCORE.INTER.POLAR>
-3.79811

>  <SCORE.INTER.ROT>
9

>  <SCORE.INTER.SOLV>
33.2201

>  <SCORE.INTER.VDW>
-32.0404

>  <SCORE.INTER.norm>
-0.85812

>  <SCORE.INTRA>
-3.15645

>  <SCORE.INTRA.DIHEDRAL>
-9.95817

>  <SCORE.INTRA.DIHEDRAL.0>
29.7866

>  <SCORE.INTRA.POLAR>
-1.0969

>  <SCORE.INTRA.POLAR.0>
-0.984091

>  <SCORE.INTRA.REPUL>
-0.274115

>  <SCORE.INTRA.REPUL.0>
0.274115

>  <SCORE.INTRA.SOLV>
4.44262

>  <SCORE.INTRA.SOLV.lig_0>
-152.978

>  <SCORE.INTRA.VDW>
4.70137

>  <SCORE.INTRA.VDW.0>
-6.10719

>  <SCORE.INTRA.norm>
-0.0751536

>  <SCORE.RESTR>
0.388903

>  <SCORE.RESTR.CAVITY>
0.388903

>  <SCORE.RESTR.norm>
0.00925959

>  <SCORE.SYSTEM>
0

>  <SCORE.SYSTEM.CONST>
0

>  <SCORE.SYSTEM.DIHEDRAL>
0

>  <SCORE.SYSTEM.SOLV>
0

>  <SCORE.SYSTEM.norm>
0

>  <SCORE.heavy>
42

>  <SCORE.norm>
-0.924014

>  <RMSD>
8.832

$$$$
1pbr
 OpenBabel11021811403D
libRbt.so/2013.1/901 2013/11/27
 42 45  0  0  0  0  0  0  0  0999 V2000
    4.9374    0.5195   37.5668 C   0  0  2  0  0  0  0  0  0  0  0  0
    4.0778    1.4180   36.8206 O   0  0  0  0  0  0  0  0  0  0  0  0
    6.3357    0.3674   36.8599 C   0  0  2  0  0  0  0  0  0  0  0  0
    6.8937    1.6340   36.3187 N   0  3  0  0  0  0  0  0  0  0  0  0
    6.2686   -0.6149   35.6753 C   0  0  1  0  0  0  0  0  0  0  0  0
    7.5778   -0.9442   35.2161 O   0  0  0  0  0  0  0  0  0  0  0  0
    5.5261   -1.9015   36.0667 C   0  0  2  0  0  0  0  0  0  0  0  0
    5.5122   -2.8143   34.9737 O   0  0  0  0  0  0  0  0  0  0  0  0
    4.1075   -1.5783   36.5860 C   0  0  2  0  0  0  0  0  0  0  0  0
    4.2689   -0.7574   37.7621 O   0  0  0  0  0  0  0  0  0  0  0  0
    3.2887   -2.8066   36.9794 C   0  0  0  0  0  0  0  0  0  0  0  0
    4.0140   -3.6462   37.8680 O   0  0  0  0  0  0  0  0  0  0  0  0
   -0.0432    2.4963   37.0705 C   0  0  1  0  0  0  0  0  0  0  0  0
   -1.5156    2.5333   37.1383 N   0  3  0  0  0  0  0  0  0  0  0  0
    0.5911    1.8679   38.3482 C   0  0  2  0  0  0  0  0  0  0  0  0
    0.2150    2.6090   39.5066 O   0  0  0  0  0  0  0  0  0  0  0  0
    2.1452    1.8517   38.2583 C   0  0  1  0  0  0  0  0  0  0  0  0
    2.6700    1.1040   39.3952 O   0  0  0  0  0  0  0  0  0  0  0  0
    2.6505    1.2000   36.9298 C   0  0  1  0  0  0  0  0  0  0  0  0
    1.9665    1.8014   35.6605 C   0  0  1  0  0  0  0  0  0  0  0  0
    2.3899    1.0985   34.4292 N   0  3  0  0  0  0  0  0  0  0  0  0
    0.4226    1.7415   35.7912 C   0  0  0  0  0  0  0  0  0  0  0  0
    2.6060    1.6777   40.7401 C   0  0  1  0  0  0  0  0  0  0  0  0
    2.0858    0.6014   41.7112 C   0  0  2  0  0  0  0  0  0  0  0  0
    1.4621    1.1946   42.8466 O   0  0  0  0  0  0  0  0  0  0  0  0
    3.4215   -0.0697   42.0653 C   0  0  1  0  0  0  0  0  0  0  0  0
    4.3444    1.1229   42.2539 C   0  0  2  0  0  0  0  0  0  0  0  0
    3.9278    1.9928   41.2125 O   0  0  0  0  0  0  0  0  0  0  0  0
    5.8422    0.8168   42.1258 C   0  0  0  0  0  0  0  0  0  0  0  0
    6.1381    0.3731   40.8098 O   0  0  0  0  0  0  0  0  0  0  0  0
    2.7498    0.0508   47.4187 C   0  0  1  0  0  0  0  0  0  0  0  0
    2.8790   -1.2913   47.8844 O   0  0  0  0  0  0  0  0  0  0  0  0
    4.0991    0.5144   46.8021 C   0  0  2  0  0  0  0  0  0  0  0  0
    4.0807    1.9354   46.6873 O   0  0  0  0  0  0  0  0  0  0  0  0
    4.4430   -0.0987   45.4051 C   0  0  1  0  0  0  0  0  0  0  0  0
    5.0958   -1.4163   45.5683 N   0  3  0  0  0  0  0  0  0  0  0  0
    3.2011   -0.1547   44.4770 C   0  0  1  0  0  0  0  0  0  0  0  0
    3.4104   -0.9052   43.2555 O   0  0  0  0  0  0  0  0  0  0  0  0
    1.6280    0.1443   46.3541 C   0  0  1  0  0  0  0  0  0  0  0  0
    2.0351   -0.6581   45.2121 O   0  0  0  0  0  0  0  0  0  0  0  0
    0.2432   -0.2915   46.8683 C   0  0  0  0  0  0  0  0  0  0  0  0
   -0.8456    0.5772   46.3798 N   0  3  0  0  0  0  0  0  0  0  0  0
  1  2  1  6  0  0  0
  1  3  1  0  0  0  0
  1 10  1  0  0  0  0
  3  4  1  6  0  0  0
  3  5  1  0  0  0  0
  5  6  1  1  0  0  0
  5  7  1  0  0  0  0
  7  8  1  6  0  0  0
  7  9  1  0  0  0  0
  9 10  1  0  0  0  0
  9 11  1  1  0  0  0
 11 12  1  0  0  0  0
 13 14  1  1  0  0  0
 13 15  1  0  0  0  0
 13 22  1  0  0  0  0
 15 16  1  1  0  0  0
 15 17  1  0  0  0  0
 17 18  1  1  0  0  0
 17 19  1  0  0  0  0
 19  2  1  6  0  0  0
 19 20  1  0  0  0  0
 20 21  1  6  0  0  0
 20 22  1  0  0  0  0
 23 18  1  6  0  0  0
 23 24  1  0  0  0  0
 23 28  1  0  0  0  0
 24 25  1  1  0  0  0
 24 26  1  0  0  0  0
 26 27  1  0  0  0  0
 26 38  1  1  0  0  0
 27 28  1  0  0  0  0
 27 29  1  6  0  0  0
 29 30  1  0  0  0  0
 31 32  1  6  0  0  0
 31 33  1  0  0  0  0
 31 39  1  0  0  0  0
 33 34  1  6  0  0  0
 33 35  1  0  0  0  0
 35 36  1  1  0  0  0
 35 37  1  0  0  0  0
 37 38  1  6  0  0  0
 37 40  1  0  0  0  0
 39 40  1  0  0  0  0
 39 41  1  1  0  0  0
 41 42  1  0  0  0  0
M  CHG  5   4   1  14   1  21   1  36   1  42   1
M  END
>  <CHROM.1>
151.72312918,81.01111207,178.25263165,62.47030054,62.80307445,51.35629561
-171.49411203,-160.61102527,69.83176368,-71.50576282,133.82437678,-53.34739395
-50.21068599,-66.68848742,63.44956202,-173.80921160,70.44321245,-17.21939782
-52.94983155,-111.11443731,139.42938500,-63.04855289,3.27344258,0.29894843
40.42033399,-1.41064959,-0.46756081,1.64003141

>  <Name>
1pbr

>  <RI>
0

>  <Rbt.Current_Directory>
/home/itssahil/PROJECTS/Mol_Feturizer/New_Systems/rnas/1pbr

>  <Rbt.Executable>
rbdock ($Id: //depot/dev/client3/rdock/2013.1/src/exe/rbdock.cxx#4 $)

>  <Rbt.Library>
libRbt.so (2013.1, Build901 2013/11/27)

>  <Rbt.Parameter_File>
/export/apps/rDock/src/rDock_2013.1_src/data/scripts/dock_solv.prm

>  <Rbt.Receptor>
prm/blind_docking_60.prm

>  <SCORE>
-27.1176

>  <SCORE.INTER>
-33.3569

>  <SCORE.INTER.CONST>
1

>  <SCORE.INTER.POLAR>
-4.36236

>  <SCORE.INTER.ROT>
9

>  <SCORE.INTER.SOLV>
40.6923

>  <SCORE.INTER.VDW>
-30.8609

>  <SCORE.INTER.norm>
-0.794213

>  <SCORE.INTRA>
4.67711

>  <SCORE.INTRA.DIHEDRAL>
3.02851

>  <SCORE.INTRA.DIHEDRAL.0>
29.7866

>  <SCORE.INTRA.POLAR>
0.984091

>  <SCORE.INTRA.POLAR.0>
-0.984091

>  <SCORE.INTRA.REPUL>
-0.274115

>  <SCORE.INTRA.REPUL.0>
0.274115

>  <SCORE.INTRA.SOLV>
-2.19436

>  <SCORE.INTRA.SOLV.lig_0>
-152.978

>  <SCORE.INTRA.VDW>
2.2847

>  <SCORE.INTRA.VDW.0>
-6.10719

>  <SCORE.INTRA.norm>
0.11136

>  <SCORE.RESTR>
1.56219

>  <SCORE.RESTR.CAVITY>
1.56219

>  <SCORE.RESTR.norm>
0.037195

>  <SCORE.SYSTEM>
0

>  <SCORE.SYSTEM.CONST>
0

>  <SCORE.SYSTEM.DIHEDRAL>
0

>  <SCORE.SYSTEM.SOLV>
0

>  <SCORE.SYSTEM.norm>
0

>  <SCORE.heavy>
42

>  <SCORE.norm>
-0.645658

>  <RMSD>
8.838

$$$$
1pbr
 OpenBabel11021811403D
libRbt.so/2013.1/901 2013/11/27
 42 45  0  0  0  0  0  0  0  0999 V2000
    1.0203    3.3435   35.8215 C   0  0  2  0  0  0  0  0  0  0  0  0
    1.7498    3.3210   37.0746 O   0  0  0  0  0  0  0  0  0  0  0  0
    0.8120    4.8219   35.3221 C   0  0  2  0  0  0  0  0  0  0  0  0
    1.9952    5.7038   35.4968 N   0  3  0  0  0  0  0  0  0  0  0  0
   -0.3518    5.5109   36.0592 C   0  0  1  0  0  0  0  0  0  0  0  0
   -0.6981    6.7388   35.4222 O   0  0  0  0  0  0  0  0  0  0  0  0
   -1.5866    4.5989   36.1153 C   0  0  2  0  0  0  0  0  0  0  0  0
   -2.6649    5.2685   36.7611 O   0  0  0  0  0  0  0  0  0  0  0  0
   -1.2411    3.2505   36.7854 C   0  0  2  0  0  0  0  0  0  0  0  0
   -0.2338    2.6211   35.9653 O   0  0  0  0  0  0  0  0  0  0  0  0
   -2.4212    2.2873   36.9018 C   0  0  0  0  0  0  0  0  0  0  0  0
   -3.6079    2.9703   37.2837 O   0  0  0  0  0  0  0  0  0  0  0  0
    4.3111    0.1246   35.8784 C   0  0  1  0  0  0  0  0  0  0  0  0
    5.3053   -0.9602   35.7860 N   0  3  0  0  0  0  0  0  0  0  0  0
    3.1099   -0.2521   36.7975 C   0  0  2  0  0  0  0  0  0  0  0  0
    2.4544   -1.4190   36.3065 O   0  0  0  0  0  0  0  0  0  0  0  0
    2.0687    0.9031   36.8688 C   0  0  1  0  0  0  0  0  0  0  0  0
    1.0628    0.5628   37.8686 O   0  0  0  0  0  0  0  0  0  0  0  0
    2.7311    2.2695   37.2421 C   0  0  1  0  0  0  0  0  0  0  0  0
    3.9670    2.6086   36.3487 C   0  0  1  0  0  0  0  0  0  0  0  0
    4.6312    3.8554   36.7889 N   0  3  0  0  0  0  0  0  0  0  0  0
    4.9874    1.4411   36.3610 C   0  0  0  0  0  0  0  0  0  0  0  0
    0.6046    1.5767   38.8193 C   0  0  1  0  0  0  0  0  0  0  0  0
   -0.2078    0.8818   39.9280 C   0  0  2  0  0  0  0  0  0  0  0  0
   -1.1351    1.7839   40.5252 O   0  0  0  0  0  0  0  0  0  0  0  0
    0.9433    0.5172   40.8778 C   0  0  1  0  0  0  0  0  0  0  0  0
    1.7889    1.7799   40.8632 C   0  0  2  0  0  0  0  0  0  0  0  0
    1.7263    2.1677   39.4992 O   0  0  0  0  0  0  0  0  0  0  0  0
    3.2483    1.5939   41.2981 C   0  0  0  0  0  0  0  0  0  0  0  0
    3.7819    2.8282   41.7545 O   0  0  0  0  0  0  0  0  0  0  0  0
    3.2591   -0.9735   45.4063 C   0  0  1  0  0  0  0  0  0  0  0  0
    2.6574   -2.2457   45.6391 O   0  0  0  0  0  0  0  0  0  0  0  0
    3.8461   -0.9366   43.9676 C   0  0  2  0  0  0  0  0  0  0  0  0
    4.7506    0.1615   43.8748 O   0  0  0  0  0  0  0  0  0  0  0  0
    2.7930   -0.8195   42.8173 C   0  0  1  0  0  0  0  0  0  0  0  0
    2.2764   -2.1576   42.4546 N   0  3  0  0  0  0  0  0  0  0  0  0
    1.6641    0.1853   43.1674 C   0  0  1  0  0  0  0  0  0  0  0  0
    0.5541    0.1741   42.2363 O   0  0  0  0  0  0  0  0  0  0  0  0
    2.2109    0.1552   45.5731 C   0  0  1  0  0  0  0  0  0  0  0  0
    1.2003   -0.0252   44.5436 O   0  0  0  0  0  0  0  0  0  0  0  0
    1.5691    0.2076   46.9722 C   0  0  0  0  0  0  0  0  0  0  0  0
    2.5094   -0.1704   48.0453 N   0  3  0  0  0  0  0  0  0  0  0  0
  1  2  1  1  0  0  0
  1  3  1  0  0  0  0
  1 10  1  0  0  0  0
  3  4  1  1  0  0  0
  3  5  1  0  0  0  0
  5  6  1  6  0  0  0
  5  7  1  0  0  0  0
  7  8  1  1  0  0  0
  7  9  1  0  0  0  0
  9 10  1  0  0  0  0
  9 11  1  6  0  0  0
 11 12  1  0  0  0  0
 13 14  1  1  0  0  0
 13 15  1  0  0  0  0
 13 22  1  0  0  0  0
 15 16  1  6  0  0  0
 15 17  1  0  0  0  0
 17 18  1  1  0  0  0
 17 19  1  0  0  0  0
 19  2  1  6  0  0  0
 19 20  1  0  0  0  0
 20 21  1  1  0  0  0
 20 22  1  0  0  0  0
 23 18  1  6  0  0  0
 23 24  1  0  0  0  0
 23 28  1  0  0  0  0
 24 25  1  1  0  0  0
 24 26  1  0  0  0  0
 26 27  1  0  0  0  0
 26 38  1  1  0  0  0
 27 28  1  0  0  0  0
 27 29  1  6  0  0  0
 29 30  1  0  0  0  0
 31 32  1  6  0  0  0
 31 33  1  0  0  0  0
 31 39  1  0  0  0  0
 33 34  1  1  0  0  0
 33 35  1  0  0  0  0
 35 36  1  1  0  0  0
 35 37  1  0  0  0  0
 37 38  1  6  0  0  0
 37 40  1  0  0  0  0
 39 40  1  0  0  0  0
 39 41  1  1  0  0  0
 41 42  1  0  0  0  0
M  CHG  5   4   1  14   1  21   1  36   1  42   1
M  END
>  <CHROM.1>
-140.96800281,-49.35724884,-65.93067724,-177.85213570,-62.35590982,-41.30952196
-71.44899041,162.78703151,-170.72068657,136.31000275,-167.94771818,170.83543490
92.89991146,-164.65833050,-156.95613708,56.46518084,176.96284490,177.26134834
-51.08182848,-60.52658643,34.46445944,29.26625712,1.59901064,1.58553337,39.54111512
-1.81674689,-0.51571224,1.89666309

>  <Name>
1pbr

>  <RI>
0

>  <Rbt.Current_Directory>
/home/itssahil/PROJECTS/Mol_Feturizer/New_Systems/rnas/1pbr

>  <Rbt.Executable>
rbdock ($Id: //depot/dev/client3/rdock/2013.1/src/exe/rbdock.cxx#4 $)

>  <Rbt.Library>
libRbt.so (2013.1, Build901 2013/11/27)

>  <Rbt.Parameter_File>
/export/apps/rDock/src/rDock_2013.1_src/data/scripts/dock_solv.prm

>  <Rbt.Receptor>
prm/blind_docking_100.prm

>  <SCORE>
-38.7741

>  <SCORE.INTER>
-53.3335

>  <SCORE.INTER.CONST>
1

>  <SCORE.INTER.POLAR>
-7.13414

>  <SCORE.INTER.ROT>
9

>  <SCORE.INTER.SOLV>
36.0038

>  <SCORE.INTER.VDW>
-33.3764

>  <SCORE.INTER.norm>
-1.26984

>  <SCORE.INTRA>
10.8591

>  <SCORE.INTRA.DIHEDRAL>
-2.41177

>  <SCORE.INTRA.DIHEDRAL.0>
29.7866

>  <SCORE.INTRA.POLAR>
0.910663

>  <SCORE.INTRA.POLAR.0>
-0.984091

>  <SCORE.INTRA.REPUL>
-0.274115

>  <SCORE.INTRA.REPUL.0>
0.274115

>  <SCORE.INTRA.SOLV>
3.09513

>  <SCORE.INTRA.SOLV.lig_0>
-152.978

>  <SCORE.INTRA.VDW>
8.79173

>  <SCORE.INTRA.VDW.0>
-6.10719

>  <SCORE.INTRA.norm>
0.25855

>  <SCORE.RESTR>
3.70032

>  <SCORE.RESTR.CAVITY>
3.70032

>  <SCORE.RESTR.norm>
0.0881028

>  <SCORE.SYSTEM>
0

>  <SCORE.SYSTEM.CONST>
0

>  <SCORE.SYSTEM.DIHEDRAL>
0

>  <SCORE.SYSTEM.SOLV>
0

>  <SCORE.SYSTEM.norm>
0

>  <SCORE.heavy>
42

>  <SCORE.norm>
-0.923192

>  <RMSD>
8.840

$$$$
1pbr
 OpenBabel11021811403D
libRbt.so/2013.1/901 2013/11/27
 42 45  0  0  0  0  0  0  0  0999 V2000
    1.5556    3.4572   35.7661 C   0  0  2  0  0  0  0  0  0  0  0  0
    2.3537    3.3148   36.9685 O   0  0  0  0  0  0  0  0  0  0  0  0
    1.5173    4.9588   35.2949 C   0  0  2  0  0  0  0  0  0  0  0  0
    2.8173    5.6709   35.3997 N   0  3  0  0  0  0  0  0  0  0  0  0
    0.5063    5.7844   36.1128 C   0  0  1  0  0  0  0  0  0  0  0  0
    0.2890    7.0587   35.5111 O   0  0  0  0  0  0  0  0  0  0  0  0
   -0.8341    5.0452   36.2414 C   0  0  2  0  0  0  0  0  0  0  0  0
   -1.7689    5.8417   36.9625 O   0  0  0  0  0  0  0  0  0  0  0  0
   -0.6316    3.6509   36.8752 C   0  0  2  0  0  0  0  0  0  0  0  0
    0.2272    2.9070   35.9851 O   0  0  0  0  0  0  0  0  0  0  0  0
   -1.9211    2.8526   37.0598 C   0  0  0  0  0  0  0  0  0  0  0  0
   -2.9663    3.6722   37.5662 O   0  0  0  0  0  0  0  0  0  0  0  0
    2.5753   -0.9465   36.9857 C   0  0  1  0  0  0  0  0  0  0  0  0
    2.9688   -2.3628   37.0999 N   0  3  0  0  0  0  0  0  0  0  0  0
    2.4703   -0.2489   38.3756 C   0  0  2  0  0  0  0  0  0  0  0  0
    1.5126   -0.9145   39.1955 O   0  0  0  0  0  0  0  0  0  0  0  0
    2.0415    1.2406   38.2296 C   0  0  1  0  0  0  0  0  0  0  0  0
    2.1261    1.8802   39.5375 O   0  0  0  0  0  0  0  0  0  0  0  0
    2.9428    2.0149   37.2131 C   0  0  1  0  0  0  0  0  0  0  0  0
    3.0837    1.2774   35.8430 C   0  0  1  0  0  0  0  0  0  0  0  0
    4.0198    1.9820   34.9393 N   0  3  0  0  0  0  0  0  0  0  0  0
    3.5616   -0.1825   36.0545 C   0  0  0  0  0  0  0  0  0  0  0  0
    3.3951    1.8890   40.2665 C   0  0  1  0  0  0  0  0  0  0  0  0
    3.1101    2.1932   41.7492 C   0  0  2  0  0  0  0  0  0  0  0  0
    4.2467    2.7768   42.3798 O   0  0  0  0  0  0  0  0  0  0  0  0
    2.8418    0.7629   42.2414 C   0  0  1  0  0  0  0  0  0  0  0  0
    3.9377   -0.0300   41.5488 C   0  0  2  0  0  0  0  0  0  0  0  0
    3.9813    0.5752   40.2656 O   0  0  0  0  0  0  0  0  0  0  0  0
    3.6728   -1.5356   41.4194 C   0  0  0  0  0  0  0  0  0  0  0  0
    4.5167   -2.0952   40.4240 O   0  0  0  0  0  0  0  0  0  0  0  0
   -0.2454   -0.8458   46.2859 C   0  0  1  0  0  0  0  0  0  0  0  0
    0.6210   -1.5705   47.1571 O   0  0  0  0  0  0  0  0  0  0  0  0
    0.0949    0.6687   46.3634 C   0  0  2  0  0  0  0  0  0  0  0  0
   -0.9874    1.4062   45.8002 O   0  0  0  0  0  0  0  0  0  0  0  0
    1.4195    1.0950   45.6494 C   0  0  1  0  0  0  0  0  0  0  0  0
    2.5757    0.9008   46.5518 N   0  3  0  0  0  0  0  0  0  0  0  0
    1.5963    0.3795   44.2844 C   0  0  1  0  0  0  0  0  0  0  0  0
    2.8998    0.5714   43.6818 O   0  0  0  0  0  0  0  0  0  0  0  0
   -0.0820   -1.3453   44.8284 C   0  0  1  0  0  0  0  0  0  0  0  0
    1.2780   -1.0475   44.4096 O   0  0  0  0  0  0  0  0  0  0  0  0
   -0.4010   -2.8405   44.6427 C   0  0  0  0  0  0  0  0  0  0  0  0
   -1.5953   -3.2667   45.3982 N   0  3  0  0  0  0  0  0  0  0  0  0
  1  2  1  1  0  0  0
  1  3  1  0  0  0  0
  1 10  1  0  0  0  0
  3  4  1  1  0  0  0
  3  5  1  0  0  0  0
  5  6  1  6  0  0  0
  5  7  1  0  0  0  0
  7  8  1  1  0  0  0
  7  9  1  0  0  0  0
  9 10  1  0  0  0  0
  9 11  1  6  0  0  0
 11 12  1  0  0  0  0
 13 14  1  1  0  0  0
 13 15  1  0  0  0  0
 13 22  1  0  0  0  0
 15 16  1  1  0  0  0
 15 17  1  0  0  0  0
 17 18  1  1  0  0  0
 17 19  1  0  0  0  0
 19  2  1  6  0  0  0
 19 20  1  0  0  0  0
 20 21  1  6  0  0  0
 20 22  1  0  0  0  0
 23 18  1  6  0  0  0
 23 24  1  0  0  0  0
 23 28  1  0  0  0  0
 24 25  1  1  0  0  0
 24 26  1  0  0  0  0
 26 27  1  0  0  0  0
 26 38  1  1  0  0  0
 27 28  1  0  0  0  0
 27 29  1  6  0  0  0
 29 30  1  0  0  0  0
 31 32  1  1  0  0  0
 31 33  1  0  0  0  0
 31 39  1  0  0  0  0
 33 34  1  6  0  0  0
 33 35  1  0  0  0  0
 35 36  1  1  0  0  0
 35 37  1  0  0  0  0
 37 38  1  1  0  0  0
 37 40  1  0  0  0  0
 39 40  1  0  0  0  0
 39 41  1  1  0  0  0
 41 42  1  0  0  0  0
M  CHG  5   4   1  14   1  21   1  36   1  42   1
M  END
>  <CHROM.1>
-155.08101147,-98.56021431,-131.22101075,-99.74911327,-55.26418635,-43.21231371
81.04027849,-177.81505350,86.94341274,57.62606099,-161.72299159,-66.11543552
126.87255742,107.07358038,161.85847968,95.66058871,-37.25073041,-58.43549258
81.89760416,-140.29429517,41.68614845,83.82553003,1.55176832,1.34776494,40.12948635
-1.55151766,-0.75852779,2.04868132

>  <Name>
1pbr

>  <RI>
0

>  <Rbt.Current_Directory>
/home/itssahil/PROJECTS/Mol_Feturizer/New_Systems/rnas/1pbr

>  <Rbt.Executable>
rbdock ($Id: //depot/dev/client3/rdock/2013.1/src/exe/rbdock.cxx#4 $)

>  <Rbt.Library>
libRbt.so (2013.1, Build901 2013/11/27)

>  <Rbt.Parameter_File>
/export/apps/rDock/src/rDock_2013.1_src/data/scripts/dock_solv.prm

>  <Rbt.Receptor>
prm/blind_docking_100.prm

>  <SCORE>
2.35168

>  <SCORE.INTER>
-23.4483

>  <SCORE.INTER.CONST>
1

>  <SCORE.INTER.POLAR>
-6.52313

>  <SCORE.INTER.ROT>
9

>  <SCORE.INTER.SOLV>
40.493

>  <SCORE.INTER.VDW>
-16.9861

>  <SCORE.INTER.norm>
-0.558293

>  <SCORE.INTRA>
21.9583

>  <SCORE.INTRA.DIHEDRAL>
24.5441

>  <SCORE.INTRA.DIHEDRAL.0>
29.7866

>  <SCORE.INTRA.POLAR>
0.911858

>  <SCORE.INTRA.POLAR.0>
-0.984091

>  <SCORE.INTRA.REPUL>
-0.274115

>  <SCORE.INTRA.REPUL.0>
0.274115

>  <SCORE.INTRA.SOLV>
2.47794

>  <SCORE.INTRA.SOLV.lig_0>
-152.978

>  <SCORE.INTRA.VDW>
6.71749

>  <SCORE.INTRA.VDW.0>
-6.10719

>  <SCORE.INTRA.norm>
0.522816

>  <SCORE.RESTR>
3.84173

>  <SCORE.RESTR.CAVITY>
3.84173

>  <SCORE.RESTR.norm>
0.0914697

>  <SCORE.SYSTEM>
0

>  <SCORE.SYSTEM.CONST>
0

>  <SCORE.SYSTEM.DIHEDRAL>
0

>  <SCORE.SYSTEM.SOLV>
0

>  <SCORE.SYSTEM.norm>
0

>  <SCORE.heavy>
42

>  <SCORE.norm>
0.0559924

>  <RMSD>
8.849

$$$$
1pbr
 OpenBabel11021811403D
libRbt.so/2013.1/901 2013/11/27
 42 45  0  0  0  0  0  0  0  0999 V2000
    1.8015    3.0047   37.2505 C   0  0  2  0  0  0  0  0  0  0  0  0
    1.5048    1.7320   36.6215 O   0  0  0  0  0  0  0  0  0  0  0  0
    0.5943    3.4837   38.1402 C   0  0  2  0  0  0  0  0  0  0  0  0
   -0.0509    2.4066   38.9350 N   0  3  0  0  0  0  0  0  0  0  0  0
   -0.5213    4.1183   37.2885 C   0  0  1  0  0  0  0  0  0  0  0  0
   -1.4759    4.7793   38.1162 O   0  0  0  0  0  0  0  0  0  0  0  0
    0.0580    5.1193   36.2775 C   0  0  2  0  0  0  0  0  0  0  0  0
   -0.9906    5.7274   35.5300 O   0  0  0  0  0  0  0  0  0  0  0  0
    1.1104    4.4383   35.3747 C   0  0  2  0  0  0  0  0  0  0  0  0
    2.1722    3.9824   36.2396 O   0  0  0  0  0  0  0  0  0  0  0  0
    1.7248    5.3599   34.3225 C   0  0  0  0  0  0  0  0  0  0  0  0
    2.4937    6.3914   34.9270 O   0  0  0  0  0  0  0  0  0  0  0  0
    3.4892   -1.8801   35.5161 C   0  0  1  0  0  0  0  0  0  0  0  0
    4.4517   -2.9316   35.1395 N   0  3  0  0  0  0  0  0  0  0  0  0
    3.6845   -1.3999   36.9861 C   0  0  2  0  0  0  0  0  0  0  0  0
    3.5315   -2.4912   37.8906 O   0  0  0  0  0  0  0  0  0  0  0  0
    2.6495   -0.3000   37.3636 C   0  0  1  0  0  0  0  0  0  0  0  0
    2.9884    0.2263   38.6809 O   0  0  0  0  0  0  0  0  0  0  0  0
    2.6298    0.8697   36.3261 C   0  0  1  0  0  0  0  0  0  0  0  0
    2.4885    0.3711   34.8523 C   0  0  1  0  0  0  0  0  0  0  0  0
    2.5729    1.4905   33.8883 N   0  3  0  0  0  0  0  0  0  0  0  0
    3.5777   -0.6830   34.5249 C   0  0  0  0  0  0  0  0  0  0  0  0
    2.9734   -0.6575   39.8474 C   0  0  1  0  0  0  0  0  0  0  0  0
    3.7485    0.0227   40.9914 C   0  0  2  0  0  0  0  0  0  0  0  0
    4.2680   -0.9420   41.9023 O   0  0  0  0  0  0  0  0  0  0  0  0
    2.6034    0.8435   41.6037 C   0  0  1  0  0  0  0  0  0  0  0  0
    1.4509   -0.1471   41.5918 C   0  0  2  0  0  0  0  0  0  0  0  0
    1.6321   -0.8038   40.3465 O   0  0  0  0  0  0  0  0  0  0  0  0
    0.0516    0.4774   41.6666 C   0  0  0  0  0  0  0  0  0  0  0  0
   -0.7980   -0.1125   40.6937 O   0  0  0  0  0  0  0  0  0  0  0  0
    2.7346   -0.7721   46.7155 C   0  0  1  0  0  0  0  0  0  0  0  0
    2.1270    0.2907   47.4477 O   0  0  0  0  0  0  0  0  0  0  0  0
    1.7561   -1.2633   45.6124 C   0  0  2  0  0  0  0  0  0  0  0  0
    2.1998   -2.5355   45.1464 O   0  0  0  0  0  0  0  0  0  0  0  0
    1.5946   -0.3067   44.3858 C   0  0  1  0  0  0  0  0  0  0  0  0
    0.5785    0.7299   44.6722 N   0  3  0  0  0  0  0  0  0  0  0  0
    2.9535    0.2925   43.9373 C   0  0  1  0  0  0  0  0  0  0  0  0
    2.8371    1.3450   42.9485 O   0  0  0  0  0  0  0  0  0  0  0  0
    4.0563   -0.2901   46.0662 C   0  0  1  0  0  0  0  0  0  0  0  0
    3.7224    0.7457   45.1021 O   0  0  0  0  0  0  0  0  0  0  0  0
    5.1000    0.2158   47.0795 C   0  0  0  0  0  0  0  0  0  0  0  0
    6.4171   -0.4287   46.9112 N   0  3  0  0  0  0  0  0  0  0  0  0
  1  2  1  6  0  0  0
  1  3  1  0  0  0  0
  1 10  1  0  0  0  0
  3  4  1  6  0  0  0
  3  5  1  0  0  0  0
  5  6  1  1  0  0  0
  5  7  1  0  0  0  0
  7  8  1  6  0  0  0
  7  9  1  0  0  0  0
  9 10  1  0  0  0  0
  9 11  1  6  0  0  0
 11 12  1  0  0  0  0
 13 14  1  6  0  0  0
 13 15  1  0  0  0  0
 13 22  1  0  0  0  0
 15 16  1  1  0  0  0
 15 17  1  0  0  0  0
 17 18  1  1  0  0  0
 17 19  1  0  0  0  0
 19  2  1  1  0  0  0
 19 20  1  0  0  0  0
 20 21  1  6  0  0  0
 20 22  1  0  0  0  0
 23 18  1  6  0  0  0
 23 24  1  0  0  0  0
 23 28  1  0  0  0  0
 24 25  1  1  0  0  0
 24 26  1  0  0  0  0
 26 27  1  0  0  0  0
 26 38  1  1  0  0  0
 27 28  1  0  0  0  0
 27 29  1  6  0  0  0
 29 30  1  0  0  0  0
 31 32  1  6  0  0  0
 31 33  1  0  0  0  0
 31 39  1  0  0  0  0
 33 34  1  6  0  0  0
 33 35  1  0  0  0  0
 35 36  1  1  0  0  0
 35 37  1  0  0  0  0
 37 38  1  6  0  0  0
 37 40  1  0  0  0  0
 39 40  1  0  0  0  0
 39 41  1  1  0  0  0
 41 42  1  0  0  0  0
M  CHG  5   4   1  14   1  21   1  36   1  42   1
M  END
>  <CHROM.1>
-151.35456913,105.19239870,-67.47230318,64.69527863,70.40054498,65.77358623
-143.56436261,68.70527214,65.51897652,-61.93361532,163.58748563,42.50698223
61.61767895,-65.28310793,133.38422055,-60.65735554,164.11586936,-64.44627813
-58.78337207,-78.52810410,127.78607295,-73.30211876,2.19744736,0.97453352
39.89407542,1.86457022,1.02177599,-1.49586828

>  <Name>
1pbr

>  <RI>
0

>  <Rbt.Current_Directory>
/home/itssahil/PROJECTS/Mol_Feturizer/New_Systems/rnas/1pbr

>  <Rbt.Executable>
rbdock ($Id: //depot/dev/client3/rdock/2013.1/src/exe/rbdock.cxx#4 $)

>  <Rbt.Library>
libRbt.so (2013.1, Build901 2013/11/27)

>  <Rbt.Parameter_File>
/export/apps/rDock/src/rDock_2013.1_src/data/scripts/dock_solv.prm

>  <Rbt.Receptor>
prm/blind_docking_60.prm

>  <SCORE>
-11.5566

>  <SCORE.INTER>
-22.1994

>  <SCORE.INTER.CONST>
1

>  <SCORE.INTER.POLAR>
-3.83712

>  <SCORE.INTER.ROT>
9

>  <SCORE.INTER.SOLV>
42.4348

>  <SCORE.INTER.VDW>
-25.7541

>  <SCORE.INTER.norm>
-0.528558

>  <SCORE.INTRA>
7.92582

>  <SCORE.INTRA.DIHEDRAL>
1.71906

>  <SCORE.INTRA.DIHEDRAL.0>
29.7866

>  <SCORE.INTRA.POLAR>
0.984091

>  <SCORE.INTRA.POLAR.0>
-0.984091

>  <SCORE.INTRA.REPUL>
-0.274115

>  <SCORE.INTRA.REPUL.0>
0.274115

>  <SCORE.INTRA.SOLV>
4.80039

>  <SCORE.INTRA.SOLV.lig_0>
-152.978

>  <SCORE.INTRA.VDW>
2.69076

>  <SCORE.INTRA.VDW.0>
-6.10719

>  <SCORE.INTRA.norm>
0.18871

>  <SCORE.RESTR>
2.71703

>  <SCORE.RESTR.CAVITY>
2.71703

>  <SCORE.RESTR.norm>
0.0646912

>  <SCORE.SYSTEM>
0

>  <SCORE.SYSTEM.CONST>
0

>  <SCORE.SYSTEM.DIHEDRAL>
0

>  <SCORE.SYSTEM.SOLV>
0

>  <SCORE.SYSTEM.norm>
0

>  <SCORE.heavy>
42

>  <SCORE.norm>
-0.275157

>  <RMSD>
8.849

$$$$
1pbr
 OpenBabel11021811403D
libRbt.so/2013.1/901 2013/11/27
 42 45  0  0  0  0  0  0  0  0999 V2000
    3.9691    1.2940   38.1981 C   0  0  2  0  0  0  0  0  0  0  0  0
    2.9806    2.2457   37.7286 O   0  0  0  0  0  0  0  0  0  0  0  0
    5.3166    1.4470   37.3986 C   0  0  2  0  0  0  0  0  0  0  0  0
    5.7204    2.8526   37.1346 N   0  3  0  0  0  0  0  0  0  0  0  0
    5.2427    0.7545   36.0247 C   0  0  1  0  0  0  0  0  0  0  0  0
    6.5359    0.6710   35.4298 O   0  0  0  0  0  0  0  0  0  0  0  0
    4.6457   -0.6555   36.1488 C   0  0  2  0  0  0  0  0  0  0  0  0
    4.6258   -1.2959   34.8769 O   0  0  0  0  0  0  0  0  0  0  0  0
    3.2490   -0.6025   36.8066 C   0  0  2  0  0  0  0  0  0  0  0  0
    3.4297   -0.0549   38.1298 O   0  0  0  0  0  0  0  0  0  0  0  0
    2.5713   -1.9641   36.9504 C   0  0  0  0  0  0  0  0  0  0  0  0
    1.5799   -1.9411   37.9688 O   0  0  0  0  0  0  0  0  0  0  0  0
   -1.2779    2.1820   37.9911 C   0  0  1  0  0  0  0  0  0  0  0  0
   -2.7192    1.8958   37.8706 N   0  3  0  0  0  0  0  0  0  0  0  0
   -0.5157    1.0612   38.7609 C   0  0  2  0  0  0  0  0  0  0  0  0
   -1.0521    0.9053   40.0726 O   0  0  0  0  0  0  0  0  0  0  0  0
    1.0003    1.3920   38.8861 C   0  0  1  0  0  0  0  0  0  0  0  0
    1.6834    0.2379   39.4593 O   0  0  0  0  0  0  0  0  0  0  0  0
    1.6419    1.7418   37.5037 C   0  0  1  0  0  0  0  0  0  0  0  0
    0.8376    2.8270   36.7188 C   0  0  1  0  0  0  0  0  0  0  0  0
    1.4112    3.0645   35.3756 N   0  3  0  0  0  0  0  0  0  0  0  0
   -0.6511    2.4141   36.5852 C   0  0  0  0  0  0  0  0  0  0  0  0
    2.5452    0.4054   40.6302 C   0  0  1  0  0  0  0  0  0  0  0  0
    1.9190    1.4651   41.5560 C   0  0  2  0  0  0  0  0  0  0  0  0
    2.9122    2.0898   42.3644 O   0  0  0  0  0  0  0  0  0  0  0  0
    0.9920    0.5532   42.3738 C   0  0  1  0  0  0  0  0  0  0  0  0
    1.8777   -0.6516   42.6448 C   0  0  2  0  0  0  0  0  0  0  0  0
    2.5659   -0.8017   41.4125 O   0  0  0  0  0  0  0  0  0  0  0  0
    1.1318   -1.9443   42.9998 C   0  0  0  0  0  0  0  0  0  0  0  0
    1.6158   -2.4643   44.2293 O   0  0  0  0  0  0  0  0  0  0  0  0
    1.1427   -0.4096   47.6104 C   0  0  1  0  0  0  0  0  0  0  0  0
    1.2993    0.8717   48.2174 O   0  0  0  0  0  0  0  0  0  0  0  0
   -0.2976   -0.5374   47.0405 C   0  0  2  0  0  0  0  0  0  0  0  0
   -0.5623   -1.9140   46.7811 O   0  0  0  0  0  0  0  0  0  0  0  0
   -0.5782    0.2828   45.7388 C   0  0  1  0  0  0  0  0  0  0  0  0
   -0.9531    1.6733   46.0778 N   0  3  0  0  0  0  0  0  0  0  0  0
    0.6073    0.2068   44.7411 C   0  0  1  0  0  0  0  0  0  0  0  0
    0.4933    1.1158   43.6186 O   0  0  0  0  0  0  0  0  0  0  0  0
    2.1752   -0.5935   46.4699 C   0  0  1  0  0  0  0  0  0  0  0  0
    1.8812    0.3947   45.4448 O   0  0  0  0  0  0  0  0  0  0  0  0
    3.6404   -0.4881   46.9329 C   0  0  0  0  0  0  0  0  0  0  0  0
    4.0538    0.9025   47.2043 N   0  3  0  0  0  0  0  0  0  0  0  0
  1  2  1  6  0  0  0
  1  3  1  0  0  0  0
  1 10  1  0  0  0  0
  3  4  1  6  0  0  0
  3  5  1  0  0  0  0
  5  6  1  1  0  0  0
  5  7  1  0  0  0  0
  7  8  1  6  0  0  0
  7  9  1  0  0  0  0
  9 10  1  0  0  0  0
  9 11  1  1  0  0  0
 11 12  1  0  0  0  0
 13 14  1  6  0  0  0
 13 15  1  0  0  0  0
 13 22  1  0  0  0  0
 15 16  1  1  0  0  0
 15 17  1  0  0  0  0
 17 18  1  6  0  0  0
 17 19  1  0  0  0  0
 19  2  1  1  0  0  0
 19 20  1  0  0  0  0
 20 21  1  6  0  0  0
 20 22  1  0  0  0  0
 23 18  1  6  0  0  0
 23 24  1  0  0  0  0
 23 28  1  0  0  0  0
 24 25  1  1  0  0  0
 24 26  1  0  0  0  0
 26 27  1  0  0  0  0
 26 38  1  1  0  0  0
 27 28  1  0  0  0  0
 27 29  1  6  0  0  0
 29 30  1  0  0  0  0
 31 32  1  6  0  0  0
 31 33  1  0  0  0  0
 31 39  1  0  0  0  0
 33 34  1  6  0  0  0
 33 35  1  0  0  0  0
 35 36  1  1  0  0  0
 35 37  1  0  0  0  0
 37 38  1  6  0  0  0
 37 40  1  0  0  0  0
 39 40  1  0  0  0  0
 39 41  1  1  0  0  0
 41 42  1  0  0  0  0
M  CHG  5   4   1  14   1  21   1  36   1  42   1
M  END
>  <CHROM.1>
134.62410250,69.35323820,-17.50744820,-165.10660757,70.83265007,157.90960732
-40.30156745,-57.08425758,57.55705861,-127.74928075,36.61381623,-64.86490160
74.61258906,-133.17700226,-125.80654521,-175.20147854,144.73214441,81.05289962
-144.44199458,-143.07999962,-75.11237736,25.35121861,1.88199736,0.49524411
40.87820548,-1.36081210,-0.23690442,1.72704106

>  <Name>
1pbr

>  <RI>
0

>  <Rbt.Current_Directory>
/home/itssahil/PROJECTS/Mol_Feturizer/New_Systems/rnas/1pbr

>  <Rbt.Executable>
rbdock ($Id: //depot/dev/client3/rdock/2013.1/src/exe/rbdock.cxx#4 $)

>  <Rbt.Library>
libRbt.so (2013.1, Build901 2013/11/27)

>  <Rbt.Parameter_File>
/export/apps/rDock/src/rDock_2013.1_src/data/scripts/dock_solv.prm

>  <Rbt.Receptor>
prm/blind_docking_60.prm

>  <SCORE>
-5.30115

>  <SCORE.INTER>
-29.648

>  <SCORE.INTER.CONST>
1

>  <SCORE.INTER.POLAR>
-7.37499

>  <SCORE.INTER.ROT>
9

>  <SCORE.INTER.SOLV>
58.3082

>  <SCORE.INTER.VDW>
-24.2181

>  <SCORE.INTER.norm>
-0.705905

>  <SCORE.INTRA>
21.3196

>  <SCORE.INTRA.DIHEDRAL>
23.4019

>  <SCORE.INTRA.DIHEDRAL.0>
29.7866

>  <SCORE.INTRA.POLAR>
-0.412465

>  <SCORE.INTRA.POLAR.0>
-0.984091

>  <SCORE.INTRA.REPUL>
-0.0975085

>  <SCORE.INTRA.REPUL.0>
0.274115

>  <SCORE.INTRA.SOLV>
1.80226

>  <SCORE.INTRA.SOLV.lig_0>
-152.978

>  <SCORE.INTRA.VDW>
10.6075

>  <SCORE.INTRA.VDW.0>
-6.10719

>  <SCORE.INTRA.norm>
0.50761

>  <SCORE.RESTR>
3.02725

>  <SCORE.RESTR.CAVITY>
3.02725

>  <SCORE.RESTR.norm>
0.0720774

>  <SCORE.SYSTEM>
0

>  <SCORE.SYSTEM.CONST>
0

>  <SCORE.SYSTEM.DIHEDRAL>
0

>  <SCORE.SYSTEM.SOLV>
0

>  <SCORE.SYSTEM.norm>
0

>  <SCORE.heavy>
42

>  <SCORE.norm>
-0.126218

>  <RMSD>
8.849

$$$$
1pbr
 OpenBabel11021811403D
libRbt.so/2013.1/901 2013/11/27
 42 45  0  0  0  0  0  0  0  0999 V2000
    4.9810    0.6028   37.4282 C   0  0  2  0  0  0  0  0  0  0  0  0
    4.2383    1.2773   36.3811 O   0  0  0  0  0  0  0  0  0  0  0  0
    6.4691    0.3470   36.9825 C   0  0  2  0  0  0  0  0  0  0  0  0
    7.0966    1.4785   36.2518 N   0  3  0  0  0  0  0  0  0  0  0  0
    6.5811   -0.8791   36.0569 C   0  0  1  0  0  0  0  0  0  0  0  0
    7.9449   -1.2548   35.8775 O   0  0  0  0  0  0  0  0  0  0  0  0
    5.7932   -2.0707   36.6216 C   0  0  2  0  0  0  0  0  0  0  0  0
    5.9441   -3.2066   35.7758 O   0  0  0  0  0  0  0  0  0  0  0  0
    4.3124   -1.6915   36.8446 C   0  0  2  0  0  0  0  0  0  0  0  0
    4.2953   -0.6209   37.8125 O   0  0  0  0  0  0  0  0  0  0  0  0
    3.4484   -2.8288   37.3869 C   0  0  0  0  0  0  0  0  0  0  0  0
    3.7802   -4.0663   36.7713 O   0  0  0  0  0  0  0  0  0  0  0  0
    0.1849    2.4174   35.6898 C   0  0  1  0  0  0  0  0  0  0  0  0
   -1.2824    2.5010   35.5717 N   0  3  0  0  0  0  0  0  0  0  0  0
    0.6570    2.3895   37.1751 C   0  0  2  0  0  0  0  0  0  0  0  0
    0.2192    3.5617   37.8585 O   0  0  0  0  0  0  0  0  0  0  0  0
    2.2088    2.3141   37.2736 C   0  0  1  0  0  0  0  0  0  0  0  0
    2.5781    2.1197   38.6711 O   0  0  0  0  0  0  0  0  0  0  0  0
    2.7965    1.1478   36.4137 C   0  0  1  0  0  0  0  0  0  0  0  0
    2.2726    1.1556   34.9419 C   0  0  1  0  0  0  0  0  0  0  0  0
    2.7665   -0.0140   34.1820 N   0  3  0  0  0  0  0  0  0  0  0  0
    0.7224    1.1797   34.9135 C   0  0  0  0  0  0  0  0  0  0  0  0
    1.6513    2.5115   39.7337 C   0  0  1  0  0  0  0  0  0  0  0  0
    0.5738    1.4203   39.8756 C   0  0  2  0  0  0  0  0  0  0  0  0
   -0.6269    1.9547   40.4260 O   0  0  0  0  0  0  0  0  0  0  0  0
    1.3008    0.4900   40.8584 C   0  0  1  0  0  0  0  0  0  0  0  0
    1.9039    1.4717   41.8494 C   0  0  2  0  0  0  0  0  0  0  0  0
    2.3263    2.5307   41.0039 O   0  0  0  0  0  0  0  0  0  0  0  0
    3.0883    0.9342   42.6630 C   0  0  0  0  0  0  0  0  0  0  0  0
    4.1677    0.6126   41.7983 O   0  0  0  0  0  0  0  0  0  0  0  0
   -0.1668   -1.0420   45.7815 C   0  0  1  0  0  0  0  0  0  0  0  0
   -1.4681   -1.6109   45.6476 O   0  0  0  0  0  0  0  0  0  0  0  0
    0.8753   -1.9737   45.1021 C   0  0  2  0  0  0  0  0  0  0  0  0
    2.1761   -1.6052   45.5546 O   0  0  0  0  0  0  0  0  0  0  0  0
    0.8648   -1.9626   43.5383 C   0  0  1  0  0  0  0  0  0  0  0  0
   -0.1519   -2.9064   43.0240 N   0  3  0  0  0  0  0  0  0  0  0  0
    0.6938   -0.5285   42.9717 C   0  0  1  0  0  0  0  0  0  0  0  0
    0.4631   -0.4823   41.5421 O   0  0  0  0  0  0  0  0  0  0  0  0
   -0.1232    0.3600   45.1235 C   0  0  1  0  0  0  0  0  0  0  0  0
   -0.3604    0.1870   43.6996 O   0  0  0  0  0  0  0  0  0  0  0  0
   -1.1207    1.3644   45.7304 C   0  0  0  0  0  0  0  0  0  0  0  0
   -1.1849    1.2851   47.2028 N   0  3  0  0  0  0  0  0  0  0  0  0
  1  2  1  6  0  0  0
  1  3  1  0  0  0  0
  1 10  1  0  0  0  0
  3  4  1  6  0  0  0
  3  5  1  0  0  0  0
  5  6  1  1  0  0  0
  5  7  1  0  0  0  0
  7  8  1  6  0  0  0
  7  9  1  0  0  0  0
  9 10  1  0  0  0  0
  9 11  1  1  0  0  0
 11 12  1  0  0  0  0
 13 14  1  1  0  0  0
 13 15  1  0  0  0  0
 13 22  1  0  0  0  0
 15 16  1  1  0  0  0
 15 17  1  0  0  0  0
 17 18  1  1  0  0  0
 17 19  1  0  0  0  0
 19  2  1  6  0  0  0
 19 20  1  0  0  0  0
 20 21  1  1  0  0  0
 20 22  1  0  0  0  0
 23 18  1  6  0  0  0
 23 24  1  0  0  0  0
 23 28  1  0  0  0  0
 24 25  1  1  0  0  0
 24 26  1  0  0  0  0
 26 27  1  0  0  0  0
 26 38  1  1  0  0  0
 27 28  1  0  0  0  0
 27 29  1  6  0  0  0
 29 30  1  0  0  0  0
 31 32  1  6  0  0  0
 31 33  1  0  0  0  0
 31 39  1  0  0  0  0
 33 34  1  1  0  0  0
 33 35  1  0  0  0  0
 35 36  1  1  0  0  0
 35 37  1  0  0  0  0
 37 38  1  6  0  0  0
 37 40  1  0  0  0  0
 39 40  1  0  0  0  0
 39 41  1  1  0  0  0
 41 42  1  0  0  0  0
M  CHG  5   4   1  14   1  21   1  36   1  42   1
M  END
>  <CHROM.1>
157.88002595,89.84275145,-51.68308368,76.16680510,-12.75729716,-40.23876876
-49.15474587,-157.87778166,67.00163129,-22.56538920,79.15162835,64.22297220
170.85683456,-132.10197870,62.83811659,63.04735175,60.45717789,172.22038407
-107.55686815,-132.38491281,41.71200860,7.12241494,2.21059013,0.18693449
39.67447523,-0.95826377,-0.65967444,1.99108576

>  <Name>
1pbr

>  <RI>
0

>  <Rbt.Current_Directory>
/home/itssahil/PROJECTS/Mol_Feturizer/New_Systems/rnas/1pbr

>  <Rbt.Executable>
rbdock ($Id: //depot/dev/client3/rdock/2013.1/src/exe/rbdock.cxx#4 $)

>  <Rbt.Library>
libRbt.so (2013.1, Build901 2013/11/27)

>  <Rbt.Parameter_File>
/export/apps/rDock/src/rDock_2013.1_src/data/scripts/dock_solv.prm

>  <Rbt.Receptor>
prm/blind_docking_100.prm

>  <SCORE>
-16.9433

>  <SCORE.INTER>
-39.7712

>  <SCORE.INTER.CONST>
1

>  <SCORE.INTER.POLAR>
-5.31149

>  <SCORE.INTER.ROT>
9

>  <SCORE.INTER.SOLV>
47.3927

>  <SCORE.INTER.VDW>
-34.2068

>  <SCORE.INTER.norm>
-0.946934

>  <SCORE.INTRA>
20.7606

>  <SCORE.INTRA.DIHEDRAL>
15.4302

>  <SCORE.INTRA.DIHEDRAL.0>
29.7866

>  <SCORE.INTRA.POLAR>
0.942393

>  <SCORE.INTRA.POLAR.0>
-0.984091

>  <SCORE.INTRA.REPUL>
-0.25362

>  <SCORE.INTRA.REPUL.0>
0.274115

>  <SCORE.INTRA.SOLV>
0.263864

>  <SCORE.INTRA.SOLV.lig_0>
-152.978

>  <SCORE.INTRA.VDW>
10.9775

>  <SCORE.INTRA.VDW.0>
-6.10719

>  <SCORE.INTRA.norm>
0.4943

>  <SCORE.RESTR>
2.06738

>  <SCORE.RESTR.CAVITY>
2.06738

>  <SCORE.RESTR.norm>
0.0492232

>  <SCORE.SYSTEM>
0

>  <SCORE.SYSTEM.CONST>
0

>  <SCORE.SYSTEM.DIHEDRAL>
0

>  <SCORE.SYSTEM.SOLV>
0

>  <SCORE.SYSTEM.norm>
0

>  <SCORE.heavy>
42

>  <SCORE.norm>
-0.403411

>  <RMSD>
8.853

$$$$
1pbr
 OpenBabel11021811403D
libRbt.so/2013.1/901 2013/11/27
 42 45  0  0  0  0  0  0  0  0999 V2000
    6.1501   -2.4350   40.0070 C   0  0  2  0  0  0  0  0  0  0  0  0
    6.6191   -3.7852   40.2520 O   0  0  0  0  0  0  0  0  0  0  0  0
    6.1782   -2.1038   38.4682 C   0  0  2  0  0  0  0  0  0  0  0  0
    5.7153   -3.2106   37.5912 N   0  3  0  0  0  0  0  0  0  0  0  0
    7.5974   -1.7411   37.9919 C   0  0  1  0  0  0  0  0  0  0  0  0
    7.5648   -1.1924   36.6761 O   0  0  0  0  0  0  0  0  0  0  0  0
    8.2605   -0.7375   38.9474 C   0  0  2  0  0  0  0  0  0  0  0  0
    9.5533   -0.3809   38.4680 O   0  0  0  0  0  0  0  0  0  0  0  0
    8.2964   -1.2948   40.3877 C   0  0  2  0  0  0  0  0  0  0  0  0
    6.9257   -1.4905   40.7954 O   0  0  0  0  0  0  0  0  0  0  0  0
    8.9604   -0.3663   41.4031 C   0  0  0  0  0  0  0  0  0  0  0  0
    8.8358   -0.8749   42.7246 O   0  0  0  0  0  0  0  0  0  0  0  0
    6.2250   -6.2961   43.6796 C   0  0  1  0  0  0  0  0  0  0  0  0
    6.2882   -6.9302   45.0092 N   0  3  0  0  0  0  0  0  0  0  0  0
    5.4266   -4.9575   43.7012 C   0  0  2  0  0  0  0  0  0  0  0  0
    4.0933   -5.1806   44.1543 O   0  0  0  0  0  0  0  0  0  0  0  0
    5.3631   -4.3143   42.2849 C   0  0  1  0  0  0  0  0  0  0  0  0
    4.7570   -2.9928   42.4000 O   0  0  0  0  0  0  0  0  0  0  0  0
    6.7793   -4.1817   41.6354 C   0  0  1  0  0  0  0  0  0  0  0  0
    7.5899   -5.5168   41.6696 C   0  0  1  0  0  0  0  0  0  0  0  0
    8.9595   -5.3359   41.1397 N   0  3  0  0  0  0  0  0  0  0  0  0
    7.6587   -6.0778   43.1136 C   0  0  0  0  0  0  0  0  0  0  0  0
    3.5061   -2.6985   41.6996 C   0  0  1  0  0  0  0  0  0  0  0  0
    2.3793   -3.5395   42.3281 C   0  0  2  0  0  0  0  0  0  0  0  0
    1.3245   -3.7604   41.3960 O   0  0  0  0  0  0  0  0  0  0  0  0
    1.9667   -2.5838   43.4579 C   0  0  1  0  0  0  0  0  0  0  0  0
    1.9726   -1.2338   42.7600 C   0  0  2  0  0  0  0  0  0  0  0  0
    3.1164   -1.3322   41.9252 O   0  0  0  0  0  0  0  0  0  0  0  0
    2.0933   -0.0186   43.6887 C   0  0  0  0  0  0  0  0  0  0  0  0
    1.9451    1.1809   42.9434 O   0  0  0  0  0  0  0  0  0  0  0  0
   -0.2952   -6.7486   45.6480 C   0  0  1  0  0  0  0  0  0  0  0  0
   -0.4406   -6.3103   46.9976 O   0  0  0  0  0  0  0  0  0  0  0  0
   -1.3779   -6.0670   44.7654 C   0  0  2  0  0  0  0  0  0  0  0  0
   -1.4684   -6.7748   43.5311 O   0  0  0  0  0  0  0  0  0  0  0  0
   -1.1370   -4.5522   44.4601 C   0  0  1  0  0  0  0  0  0  0  0  0
   -1.6638   -3.7155   45.5607 N   0  3  0  0  0  0  0  0  0  0  0  0
    0.3522   -4.2566   44.1411 C   0  0  1  0  0  0  0  0  0  0  0  0
    0.6700   -2.8453   44.0619 O   0  0  0  0  0  0  0  0  0  0  0  0
    1.1153   -6.3908   45.1160 C   0  0  1  0  0  0  0  0  0  0  0  0
    1.2266   -4.9413   45.1002 O   0  0  0  0  0  0  0  0  0  0  0  0
    2.2645   -7.0231   45.9232 C   0  0  0  0  0  0  0  0  0  0  0  0
    2.2771   -8.4966   45.8388 N   0  3  0  0  0  0  0  0  0  0  0  0
  1  2  1  6  0  0  0
  1  3  1  0  0  0  0
  1 10  1  0  0  0  0
  3  4  1  6  0  0  0
  3  5  1  0  0  0  0
  5  6  1  6  0  0  0
  5  7  1  0  0  0  0
  7  8  1  6  0  0  0
  7  9  1  0  0  0  0
  9 10  1  0  0  0  0
  9 11  1  1  0  0  0
 11 12  1  0  0  0  0
 13 14  1  1  0  0  0
 13 15  1  0  0  0  0
 13 22  1  0  0  0  0
 15 16  1  6  0  0  0
 15 17  1  0  0  0  0
 17 18  1  1  0  0  0
 17 19  1  0  0  0  0
 19  2  1  6  0  0  0
 19 20  1  0  0  0  0
 20 21  1  1  0  0  0
 20 22  1  0  0  0  0
 23 18  1  1  0  0  0
 23 24  1  0  0  0  0
 23 28  1  0  0  0  0
 24 25  1  6  0  0  0
 24 26  1  0  0  0  0
 26 27  1  0  0  0  0
 26 38  1  6  0  0  0
 27 28  1  0  0  0  0
 27 29  1  1  0  0  0
 29 30  1  0  0  0  0
 31 32  1  1  0  0  0
 31 33  1  0  0  0  0
 31 39  1  0  0  0  0
 33 34  1  6  0  0  0
 33 35  1  0  0  0  0
 35 36  1  1  0  0  0
 35 37  1  0  0  0  0
 37 38  1  1  0  0  0
 37 40  1  0  0  0  0
 39 40  1  0  0  0  0
 39 41  1  1  0  0  0
 41 42  1  0  0  0  0
M  CHG  5   4   1  14   1  21   1  36   1  42   1
M  END
>  <CHROM.1>
173.78789249,70.04639261,-96.26695939,179.43328249,172.29423588,173.91291533
174.39488611,178.58845831,-61.10836557,-118.66086127,67.16136726,-171.13511940
55.83072329,35.17961866,-173.82019132,60.95532566,-67.29085576,176.61384460
163.51782062,-166.18966906,64.78545986,64.40667681,4.13001336,-3.65336414
42.47628150,0.62998634,0.33902723,-0.55460075

>  <Name>
1pbr

>  <RI>
0

>  <Rbt.Current_Directory>
/home/itssahil/PROJECTS/Mol_Feturizer/New_Systems/rnas/1pbr

>  <Rbt.Executable>
rbdock ($Id: //depot/dev/client3/rdock/2013.1/src/exe/rbdock.cxx#4 $)

>  <Rbt.Library>
libRbt.so (2013.1, Build901 2013/11/27)

>  <Rbt.Parameter_File>
/export/apps/rDock/src/rDock_2013.1_src/data/scripts/dock_solv.prm

>  <Rbt.Receptor>
prm/pocket_docking_7.prm

>  <SCORE>
-24.8041

>  <SCORE.INTER>
-20.2989

>  <SCORE.INTER.CONST>
1

>  <SCORE.INTER.POLAR>
-3.80333

>  <SCORE.INTER.ROT>
9

>  <SCORE.INTER.SOLV>
18.7572

>  <SCORE.INTER.VDW>
-16.7072

>  <SCORE.INTER.norm>
-0.483306

>  <SCORE.INTRA>
-4.50522

>  <SCORE.INTRA.DIHEDRAL>
-12.502

>  <SCORE.INTRA.DIHEDRAL.0>
29.7866

>  <SCORE.INTRA.POLAR>
0.888494

>  <SCORE.INTRA.POLAR.0>
-0.984091

>  <SCORE.INTRA.REPUL>
-0.265579

>  <SCORE.INTRA.REPUL.0>
0.274115

>  <SCORE.INTRA.SOLV>
-3.29696

>  <SCORE.INTRA.SOLV.lig_0>
-152.978

>  <SCORE.INTRA.VDW>
1.70125

>  <SCORE.INTRA.VDW.0>
-6.10719

>  <SCORE.INTRA.norm>
-0.107267

>  <SCORE.RESTR>
0

>  <SCORE.RESTR.CAVITY>
0

>  <SCORE.RESTR.norm>
0

>  <SCORE.SYSTEM>
0

>  <SCORE.SYSTEM.CONST>
0

>  <SCORE.SYSTEM.DIHEDRAL>
0

>  <SCORE.SYSTEM.SOLV>
0

>  <SCORE.SYSTEM.norm>
0

>  <SCORE.heavy>
42

>  <SCORE.norm>
-0.590574

>  <RMSD>
8.854

$$$$
1pbr
 OpenBabel11021811403D
libRbt.so/2013.1/901 2013/11/27
 42 45  0  0  0  0  0  0  0  0999 V2000
    3.4119   -0.4845   37.2238 C   0  0  2  0  0  0  0  0  0  0  0  0
    4.7042   -1.0161   36.8361 O   0  0  0  0  0  0  0  0  0  0  0  0
    2.8370    0.4607   36.1038 C   0  0  2  0  0  0  0  0  0  0  0  0
    3.0398   -0.0331   34.7169 N   0  3  0  0  0  0  0  0  0  0  0  0
    3.4758    1.8612   36.1605 C   0  0  1  0  0  0  0  0  0  0  0  0
    2.7668    2.7749   35.3263 O   0  0  0  0  0  0  0  0  0  0  0  0
    3.5017    2.3980   37.5995 C   0  0  2  0  0  0  0  0  0  0  0  0
    4.0551    3.7100   37.6261 O   0  0  0  0  0  0  0  0  0  0  0  0
    4.2489    1.4215   38.5346 C   0  0  2  0  0  0  0  0  0  0  0  0
    3.5158    0.1783   38.5142 O   0  0  0  0  0  0  0  0  0  0  0  0
    4.3402    1.8891   39.9862 C   0  0  0  0  0  0  0  0  0  0  0  0
    3.0646    1.8748   40.6132 O   0  0  0  0  0  0  0  0  0  0  0  0
    7.6309   -3.2783   38.9632 C   0  0  1  0  0  0  0  0  0  0  0  0
    8.6522   -3.7854   39.8979 N   0  3  0  0  0  0  0  0  0  0  0  0
    6.2302   -3.1457   39.6341 C   0  0  2  0  0  0  0  0  0  0  0  0
    5.7945   -4.4092   40.1303 O   0  0  0  0  0  0  0  0  0  0  0  0
    5.1674   -2.6211   38.6248 C   0  0  1  0  0  0  0  0  0  0  0  0
    3.9284   -2.3575   39.3477 O   0  0  0  0  0  0  0  0  0  0  0  0
    5.6360   -1.3153   37.9033 C   0  0  1  0  0  0  0  0  0  0  0  0
    7.0638   -1.4442   37.2825 C   0  0  1  0  0  0  0  0  0  0  0  0
    7.5195   -0.1650   36.6949 N   0  3  0  0  0  0  0  0  0  0  0  0
    8.0829   -1.9208   38.3497 C   0  0  0  0  0  0  0  0  0  0  0  0
    2.7195   -3.1179   39.0283 C   0  0  1  0  0  0  0  0  0  0  0  0
    2.9026   -4.5654   39.5215 C   0  0  2  0  0  0  0  0  0  0  0  0
    2.0890   -5.4670   38.7762 O   0  0  0  0  0  0  0  0  0  0  0  0
    2.4075   -4.3925   40.9654 C   0  0  1  0  0  0  0  0  0  0  0  0
    1.1780   -3.5176   40.7848 C   0  0  2  0  0  0  0  0  0  0  0  0
    1.5990   -2.6125   39.7757 O   0  0  0  0  0  0  0  0  0  0  0  0
    0.7321   -2.7509   42.0365 C   0  0  0  0  0  0  0  0  0  0  0  0
   -0.1830   -1.7254   41.6797 O   0  0  0  0  0  0  0  0  0  0  0  0
   -1.7673   -7.3795   42.6083 C   0  0  1  0  0  0  0  0  0  0  0  0
   -1.2859   -8.1723   43.6921 O   0  0  0  0  0  0  0  0  0  0  0  0
   -1.5871   -5.8743   42.9510 C   0  0  2  0  0  0  0  0  0  0  0  0
   -2.3914   -5.1066   42.0587 O   0  0  0  0  0  0  0  0  0  0  0  0
   -0.1173   -5.3438   42.8863 C   0  0  1  0  0  0  0  0  0  0  0  0
    0.5809   -5.6059   44.1641 N   0  3  0  0  0  0  0  0  0  0  0  0
    0.6464   -5.9059   41.6585 C   0  0  1  0  0  0  0  0  0  0  0  0
    2.0669   -5.6207   41.6656 O   0  0  0  0  0  0  0  0  0  0  0  0
   -0.9921   -7.7173   41.3099 C   0  0  1  0  0  0  0  0  0  0  0  0
    0.3981   -7.3452   41.5163 O   0  0  0  0  0  0  0  0  0  0  0  0
   -1.1100   -9.1914   40.8795 C   0  0  0  0  0  0  0  0  0  0  0  0
   -2.5015   -9.5925   40.5946 N   0  3  0  0  0  0  0  0  0  0  0  0
  1  2  1  6  0  0  0
  1  3  1  0  0  0  0
  1 10  1  0  0  0  0
  3  4  1  6  0  0  0
  3  5  1  0  0  0  0
  5  6  1  6  0  0  0
  5  7  1  0  0  0  0
  7  8  1  6  0  0  0
  7  9  1  0  0  0  0
  9 10  1  0  0  0  0
  9 11  1  1  0  0  0
 11 12  1  0  0  0  0
 13 14  1  1  0  0  0
 13 15  1  0  0  0  0
 13 22  1  0  0  0  0
 15 16  1  6  0  0  0
 15 17  1  0  0  0  0
 17 18  1  1  0  0  0
 17 19  1  0  0  0  0
 19  2  1  6  0  0  0
 19 20  1  0  0  0  0
 20 21  1  1  0  0  0
 20 22  1  0  0  0  0
 23 18  1  1  0  0  0
 23 24  1  0  0  0  0
 23 28  1  0  0  0  0
 24 25  1  6  0  0  0
 24 26  1  0  0  0  0
 26 27  1  0  0  0  0
 26 38  1  6  0  0  0
 27 28  1  0  0  0  0
 27 29  1  1  0  0  0
 29 30  1  0  0  0  0
 31 32  1  1  0  0  0
 31 33  1  0  0  0  0
 31 39  1  0  0  0  0
 33 34  1  6  0  0  0
 33 35  1  0  0  0  0
 35 36  1  1  0  0  0
 35 37  1  0  0  0  0
 37 38  1  1  0  0  0
 37 40  1  0  0  0  0
 39 40  1  0  0  0  0
 39 41  1  1  0  0  0
 41 42  1  0  0  0  0
M  CHG  5   4   1  14   1  21   1  36   1  42   1
M  END
>  <CHROM.1>
150.10526469,74.28126050,-66.33982074,-164.72941955,61.80475995,68.64204992
-60.47280231,63.07558598,-55.50627605,-116.85144080,70.62978296,178.57003740
-176.66902740,-98.24373403,164.98102550,-174.51157309,-65.43339996,-66.66512205
-39.63577952,-92.05097250,61.16470204,172.41831446,2.69313064,-2.86426000
39.63953673,0.98450973,0.23075448,-0.40308142

>  <Name>
1pbr

>  <RI>
0

>  <Rbt.Current_Directory>
/home/itssahil/PROJECTS/Mol_Feturizer/New_Systems/rnas/1pbr

>  <Rbt.Executable>
rbdock ($Id: //depot/dev/client3/rdock/2013.1/src/exe/rbdock.cxx#4 $)

>  <Rbt.Library>
libRbt.so (2013.1, Build901 2013/11/27)

>  <Rbt.Parameter_File>
/export/apps/rDock/src/rDock_2013.1_src/data/scripts/dock_solv.prm

>  <Rbt.Receptor>
prm/pocket_docking_4.prm

>  <SCORE>
-19.2721

>  <SCORE.INTER>
-23.5675

>  <SCORE.INTER.CONST>
1

>  <SCORE.INTER.POLAR>
-3.67163

>  <SCORE.INTER.ROT>
9

>  <SCORE.INTER.SOLV>
22.8586

>  <SCORE.INTER.VDW>
-20.6925

>  <SCORE.INTER.norm>
-0.561132

>  <SCORE.INTRA>
4.20059

>  <SCORE.INTRA.DIHEDRAL>
-3.76802

>  <SCORE.INTRA.DIHEDRAL.0>
29.7866

>  <SCORE.INTRA.POLAR>
0.976865

>  <SCORE.INTRA.POLAR.0>
-0.984091

>  <SCORE.INTRA.REPUL>
-0.262504

>  <SCORE.INTRA.REPUL.0>
0.274115

>  <SCORE.INTRA.SOLV>
-2.29429

>  <SCORE.INTRA.SOLV.lig_0>
-152.978

>  <SCORE.INTRA.VDW>
5.22292

>  <SCORE.INTRA.VDW.0>
-6.10719

>  <SCORE.INTRA.norm>
0.100014

>  <SCORE.RESTR>
0.0948512

>  <SCORE.RESTR.CAVITY>
0.0948512

>  <SCORE.RESTR.norm>
0.00225836

>  <SCORE.SYSTEM>
0

>  <SCORE.SYSTEM.CONST>
0

>  <SCORE.SYSTEM.DIHEDRAL>
0

>  <SCORE.SYSTEM.SOLV>
0

>  <SCORE.SYSTEM.norm>
0

>  <SCORE.heavy>
42

>  <SCORE.norm>
-0.45886

>  <RMSD>
8.869

$$$$
1pbr
 OpenBabel11021811403D
libRbt.so/2013.1/901 2013/11/27
 42 45  0  0  0  0  0  0  0  0999 V2000
    0.9159    2.4241   36.9494 C   0  0  2  0  0  0  0  0  0  0  0  0
    1.3152    1.2981   36.1273 O   0  0  0  0  0  0  0  0  0  0  0  0
   -0.0926    3.3523   36.1749 C   0  0  2  0  0  0  0  0  0  0  0  0
   -1.1174    2.6234   35.3833 N   0  3  0  0  0  0  0  0  0  0  0  0
    0.6364    4.2808   35.1854 C   0  0  1  0  0  0  0  0  0  0  0  0
   -0.2456    5.2865   34.6915 O   0  0  0  0  0  0  0  0  0  0  0  0
    1.8517    4.9476   35.8474 C   0  0  2  0  0  0  0  0  0  0  0  0
    2.4866    5.8346   34.9318 O   0  0  0  0  0  0  0  0  0  0  0  0
    2.8208    3.8841   36.4096 C   0  0  2  0  0  0  0  0  0  0  0  0
    2.0933    3.1423   37.4114 O   0  0  0  0  0  0  0  0  0  0  0  0
    4.0718    4.4618   37.0694 C   0  0  0  0  0  0  0  0  0  0  0  0
    5.0819    3.4721   37.2135 O   0  0  0  0  0  0  0  0  0  0  0  0
    3.9864   -2.0267   36.2615 C   0  0  1  0  0  0  0  0  0  0  0  0
    5.0768   -2.9818   36.5312 N   0  3  0  0  0  0  0  0  0  0  0  0
    3.0527   -1.8331   37.4946 C   0  0  2  0  0  0  0  0  0  0  0  0
    2.4726   -3.0772   37.8797 O   0  0  0  0  0  0  0  0  0  0  0  0
    1.9032   -0.8310   37.1814 C   0  0  1  0  0  0  0  0  0  0  0  0
    1.1705   -0.5625   38.4134 O   0  0  0  0  0  0  0  0  0  0  0  0
    2.4403    0.5143   36.5924 C   0  0  1  0  0  0  0  0  0  0  0  0
    3.4178    0.3037   35.3921 C   0  0  1  0  0  0  0  0  0  0  0  0
    3.9857    1.5863   34.9210 N   0  3  0  0  0  0  0  0  0  0  0  0
    4.5653   -0.6626   35.7845 C   0  0  0  0  0  0  0  0  0  0  0  0
    1.1530    0.7893   38.9740 C   0  0  1  0  0  0  0  0  0  0  0  0
   -0.1046    0.9438   39.8497 C   0  0  2  0  0  0  0  0  0  0  0  0
   -0.4974    2.3101   39.9450 O   0  0  0  0  0  0  0  0  0  0  0  0
    0.4569    0.4060   41.1747 C   0  0  1  0  0  0  0  0  0  0  0  0
    1.8319    1.0508   41.2305 C   0  0  2  0  0  0  0  0  0  0  0  0
    2.2569    0.9697   39.8787 O   0  0  0  0  0  0  0  0  0  0  0  0
    2.8433    0.3543   42.1501 C   0  0  0  0  0  0  0  0  0  0  0  0
    4.1075    0.9942   42.0573 O   0  0  0  0  0  0  0  0  0  0  0  0
    0.3641   -0.7318   46.3737 C   0  0  1  0  0  0  0  0  0  0  0  0
   -0.9734   -1.1843   46.5767 O   0  0  0  0  0  0  0  0  0  0  0  0
    1.0121   -1.5418   45.2163 C   0  0  2  0  0  0  0  0  0  0  0  0
    2.4247   -1.3559   45.2681 O   0  0  0  0  0  0  0  0  0  0  0  0
    0.5093   -1.1784   43.7808 C   0  0  1  0  0  0  0  0  0  0  0  0
   -0.7280   -1.9256   43.4647 N   0  3  0  0  0  0  0  0  0  0  0  0
    0.3496    0.3535   43.5949 C   0  0  1  0  0  0  0  0  0  0  0  0
   -0.3136    0.7329   42.3639 O   0  0  0  0  0  0  0  0  0  0  0  0
    0.3733    0.7779   46.0253 C   0  0  1  0  0  0  0  0  0  0  0  0
   -0.3217    0.9430   44.7591 O   0  0  0  0  0  0  0  0  0  0  0  0
   -0.2466    1.6725   47.1150 C   0  0  0  0  0  0  0  0  0  0  0  0
   -1.7124    1.7914   46.9892 N   0  3  0  0  0  0  0  0  0  0  0  0
  1  2  1  6  0  0  0
  1  3  1  0  0  0  0
  1 10  1  0  0  0  0
  3  4  1  6  0  0  0
  3  5  1  0  0  0  0
  5  6  1  1  0  0  0
  5  7  1  0  0  0  0
  7  8  1  6  0  0  0
  7  9  1  0  0  0  0
  9 10  1  0  0  0  0
  9 11  1  1  0  0  0
 11 12  1  0  0  0  0
 13 14  1  1  0  0  0
 13 15  1  0  0  0  0
 13 22  1  0  0  0  0
 15 16  1  6  0  0  0
 15 17  1  0  0  0  0
 17 18  1  1  0  0  0
 17 19  1  0  0  0  0
 19  2  1  6  0  0  0
 19 20  1  0  0  0  0
 20 21  1  1  0  0  0
 20 22  1  0  0  0  0
 23 18  1  1  0  0  0
 23 24  1  0  0  0  0
 23 28  1  0  0  0  0
 24 25  1  1  0  0  0
 24 26  1  0  0  0  0
 26 27  1  0  0  0  0
 26 38  1  1  0  0  0
 27 28  1  0  0  0  0
 27 29  1  1  0  0  0
 29 30  1  0  0  0  0
 31 32  1  6  0  0  0
 31 33  1  0  0  0  0
 31 39  1  0  0  0  0
 33 34  1  6  0  0  0
 33 35  1  0  0  0  0
 35 36  1  1  0  0  0
 35 37  1  0  0  0  0
 37 38  1  6  0  0  0
 37 40  1  0  0  0  0
 39 40  1  0  0  0  0
 39 41  1  1  0  0  0
 41 42  1  0  0  0  0
M  CHG  5   4   1  14   1  21   1  36   1  42   1
M  END
>  <CHROM.1>
167.60726657,104.75957641,-149.99009692,60.82038119,63.85350715,-163.12408478
-177.48185528,64.27987445,175.50032156,116.53319402,155.88994486,178.65012026
-59.74413587,-172.39611711,176.43106100,-59.38986970,-74.15459368,-57.55571709
59.11755502,-66.19581605,-85.61334617,73.62919635,1.53318131,1.00407641,39.69026573
1.14633084,0.99299228,-0.94726373

>  <Name>
1pbr

>  <RI>
0

>  <Rbt.Current_Directory>
/home/itssahil/PROJECTS/Mol_Feturizer/New_Systems/rnas/1pbr

>  <Rbt.Executable>
rbdock ($Id: //depot/dev/client3/rdock/2013.1/src/exe/rbdock.cxx#4 $)

>  <Rbt.Library>
libRbt.so (2013.1, Build901 2013/11/27)

>  <Rbt.Parameter_File>
/export/apps/rDock/src/rDock_2013.1_src/data/scripts/dock_solv.prm

>  <Rbt.Receptor>
prm/blind_docking_100.prm

>  <SCORE>
-33.1949

>  <SCORE.INTER>
-36.9303

>  <SCORE.INTER.CONST>
1

>  <SCORE.INTER.POLAR>
-3.74293

>  <SCORE.INTER.ROT>
9

>  <SCORE.INTER.SOLV>
46.5817

>  <SCORE.INTER.VDW>
-37.271

>  <SCORE.INTER.norm>
-0.879293

>  <SCORE.INTRA>
3.39211

>  <SCORE.INTRA.DIHEDRAL>
-5.37187

>  <SCORE.INTRA.DIHEDRAL.0>
29.7866

>  <SCORE.INTRA.POLAR>
-0.368411

>  <SCORE.INTRA.POLAR.0>
-0.984091

>  <SCORE.INTRA.REPUL>
-0.266305

>  <SCORE.INTRA.REPUL.0>
0.274115

>  <SCORE.INTRA.SOLV>
3.18736

>  <SCORE.INTRA.SOLV.lig_0>
-152.978

>  <SCORE.INTRA.VDW>
7.06849

>  <SCORE.INTRA.VDW.0>
-6.10719

>  <SCORE.INTRA.norm>
0.0807645

>  <SCORE.RESTR>
0.343273

>  <SCORE.RESTR.CAVITY>
0.343273

>  <SCORE.RESTR.norm>
0.00817317

>  <SCORE.SYSTEM>
0

>  <SCORE.SYSTEM.CONST>
0

>  <SCORE.SYSTEM.DIHEDRAL>
0

>  <SCORE.SYSTEM.SOLV>
0

>  <SCORE.SYSTEM.norm>
0

>  <SCORE.heavy>
42

>  <SCORE.norm>
-0.790356

>  <RMSD>
8.884

$$$$
1pbr
 OpenBabel11021811403D
libRbt.so/2013.1/901 2013/11/27
 42 45  0  0  0  0  0  0  0  0999 V2000
    6.8469   -2.4161   39.8020 C   0  0  2  0  0  0  0  0  0  0  0  0
    6.8458   -1.4669   38.7056 O   0  0  0  0  0  0  0  0  0  0  0  0
    8.3003   -2.9580   40.0711 C   0  0  2  0  0  0  0  0  0  0  0  0
    9.3668   -1.9261   39.9945 N   0  3  0  0  0  0  0  0  0  0  0  0
    8.6910   -4.0572   39.0652 C   0  0  1  0  0  0  0  0  0  0  0  0
    9.8862   -4.7175   39.4761 O   0  0  0  0  0  0  0  0  0  0  0  0
    7.5643   -5.0900   38.9111 C   0  0  2  0  0  0  0  0  0  0  0  0
    7.9602   -6.1207   38.0116 O   0  0  0  0  0  0  0  0  0  0  0  0
    6.2480   -4.4041   38.4827 C   0  0  2  0  0  0  0  0  0  0  0  0
    5.8942   -3.4821   39.5354 O   0  0  0  0  0  0  0  0  0  0  0  0
    5.0759   -5.3639   38.2854 C   0  0  0  0  0  0  0  0  0  0  0  0
    3.9271   -4.6813   37.8008 O   0  0  0  0  0  0  0  0  0  0  0  0
    4.1793    1.7422   37.8115 C   0  0  1  0  0  0  0  0  0  0  0  0
    3.0351    2.5998   37.4520 N   0  3  0  0  0  0  0  0  0  0  0  0
    3.9735    1.0265   39.1809 C   0  0  2  0  0  0  0  0  0  0  0  0
    3.7885    1.9846   40.2203 O   0  0  0  0  0  0  0  0  0  0  0  0
    5.1990    0.1379   39.5441 C   0  0  1  0  0  0  0  0  0  0  0  0
    4.8782   -0.6319   40.7405 O   0  0  0  0  0  0  0  0  0  0  0  0
    5.5811   -0.8391   38.3845 C   0  0  1  0  0  0  0  0  0  0  0  0
    5.7307   -0.1169   37.0072 C   0  0  1  0  0  0  0  0  0  0  0  0
    5.9938   -1.0787   35.9139 N   0  3  0  0  0  0  0  0  0  0  0  0
    4.4589    0.7084   36.6817 C   0  0  0  0  0  0  0  0  0  0  0  0
    3.6341   -1.3999   40.8042 C   0  0  1  0  0  0  0  0  0  0  0  0
    3.6847   -2.3194   42.0387 C   0  0  2  0  0  0  0  0  0  0  0  0
    2.8453   -3.4575   41.8641 O   0  0  0  0  0  0  0  0  0  0  0  0
    3.1315   -1.3440   43.0886 C   0  0  1  0  0  0  0  0  0  0  0  0
    1.9807   -0.6854   42.3460 C   0  0  2  0  0  0  0  0  0  0  0  0
    2.5177   -0.5243   41.0420 O   0  0  0  0  0  0  0  0  0  0  0  0
    1.5301    0.6690   42.9083 C   0  0  0  0  0  0  0  0  0  0  0  0
    1.3119    0.5675   44.3077 O   0  0  0  0  0  0  0  0  0  0  0  0
    6.5377   -1.9977   46.2484 C   0  0  1  0  0  0  0  0  0  0  0  0
    7.0948   -0.9557   45.4494 O   0  0  0  0  0  0  0  0  0  0  0  0
    5.3530   -1.4318   47.0803 C   0  0  2  0  0  0  0  0  0  0  0  0
    5.0526   -2.3528   48.1263 O   0  0  0  0  0  0  0  0  0  0  0  0
    4.0450   -1.1434   46.2730 C   0  0  1  0  0  0  0  0  0  0  0  0
    4.1082    0.1986   45.6535 N   0  3  0  0  0  0  0  0  0  0  0  0
    3.7408   -2.2653   45.2455 C   0  0  1  0  0  0  0  0  0  0  0  0
    2.6663   -1.9487   44.3266 O   0  0  0  0  0  0  0  0  0  0  0  0
    6.0393   -3.1565   45.3487 C   0  0  1  0  0  0  0  0  0  0  0  0
    4.9608   -2.6405   44.5214 O   0  0  0  0  0  0  0  0  0  0  0  0
    7.1429   -3.7915   44.4823 C   0  0  0  0  0  0  0  0  0  0  0  0
    8.1631   -4.4950   45.2842 N   0  3  0  0  0  0  0  0  0  0  0  0
  1  2  1  6  0  0  0
  1  3  1  0  0  0  0
  1 10  1  0  0  0  0
  3  4  1  6  0  0  0
  3  5  1  0  0  0  0
  5  6  1  1  0  0  0
  5  7  1  0  0  0  0
  7  8  1  6  0  0  0
  7  9  1  0  0  0  0
  9 10  1  0  0  0  0
  9 11  1  1  0  0  0
 11 12  1  0  0  0  0
 13 14  1  6  0  0  0
 13 15  1  0  0  0  0
 13 22  1  0  0  0  0
 15 16  1  1  0  0  0
 15 17  1  0  0  0  0
 17 18  1  1  0  0  0
 17 19  1  0  0  0  0
 19  2  1  1  0  0  0
 19 20  1  0  0  0  0
 20 21  1  6  0  0  0
 20 22  1  0  0  0  0
 23 18  1  1  0  0  0
 23 24  1  0  0  0  0
 23 28  1  0  0  0  0
 24 25  1  6  0  0  0
 24 26  1  0  0  0  0
 26 27  1  0  0  0  0
 26 38  1  1  0  0  0
 27 28  1  0  0  0  0
 27 29  1  1  0  0  0
 29 30  1  0  0  0  0
 31 32  1  6  0  0  0
 31 33  1  0  0  0  0
 31 39  1  0  0  0  0
 33 34  1  1  0  0  0
 33 35  1  0  0  0  0
 35 36  1  6  0  0  0
 35 37  1  0  0  0  0
 37 38  1  6  0  0  0
 37 40  1  0  0  0  0
 39 40  1  0  0  0  0
 39 41  1  6  0  0  0
 41 42  1  0  0  0  0
M  CHG  5   4   1  14   1  21   1  36   1  42   1
M  END
>  <CHROM.1>
-177.31785463,69.48303798,49.67579589,-62.99568198,-58.69645663,-175.80560544
-53.18811776,-60.15917522,62.54528165,50.75762247,168.97383888,56.46926926
59.15255295,80.08216779,-50.33794897,-64.34436242,66.78293758,66.90339991
49.45865506,92.74034280,66.40913364,-59.27379201,5.22566556,-1.80255537,41.37715120
-1.27996743,-0.78451454,1.71500644

>  <Name>
1pbr

>  <RI>
0

>  <Rbt.Current_Directory>
/home/itssahil/PROJECTS/Mol_Feturizer/New_Systems/rnas/1pbr

>  <Rbt.Executable>
rbdock ($Id: //depot/dev/client3/rdock/2013.1/src/exe/rbdock.cxx#4 $)

>  <Rbt.Library>
libRbt.so (2013.1, Build901 2013/11/27)

>  <Rbt.Parameter_File>
/export/apps/rDock/src/rDock_2013.1_src/data/scripts/dock_solv.prm

>  <Rbt.Receptor>
prm/pocket_docking_8.prm

>  <SCORE>
-30.0741

>  <SCORE.INTER>
-18.8453

>  <SCORE.INTER.CONST>
1

>  <SCORE.INTER.POLAR>
-2.58467

>  <SCORE.INTER.ROT>
9

>  <SCORE.INTER.SOLV>
15.9969

>  <SCORE.INTER.VDW>
-18.8803

>  <SCORE.INTER.norm>
-0.448697

>  <SCORE.INTRA>
-11.2288

>  <SCORE.INTRA.DIHEDRAL>
-19.2832

>  <SCORE.INTRA.DIHEDRAL.0>
29.7866

>  <SCORE.INTRA.POLAR>
-0.233881

>  <SCORE.INTRA.POLAR.0>
-0.984091

>  <SCORE.INTRA.REPUL>
-0.208433

>  <SCORE.INTRA.REPUL.0>
0.274115

>  <SCORE.INTRA.SOLV>
-0.386596

>  <SCORE.INTRA.SOLV.lig_0>
-152.978

>  <SCORE.INTRA.VDW>
0.443431

>  <SCORE.INTRA.VDW.0>
-6.10719

>  <SCORE.INTRA.norm>
-0.267354

>  <SCORE.RESTR>
0

>  <SCORE.RESTR.CAVITY>
0

>  <SCORE.RESTR.norm>
0

>  <SCORE.SYSTEM>
0

>  <SCORE.SYSTEM.CONST>
0

>  <SCORE.SYSTEM.DIHEDRAL>
0

>  <SCORE.SYSTEM.SOLV>
0

>  <SCORE.SYSTEM.norm>
0

>  <SCORE.heavy>
42

>  <SCORE.norm>
-0.716051

>  <RMSD>
8.884

$$$$
1pbr
 OpenBabel11021811403D
libRbt.so/2013.1/901 2013/11/27
 42 45  0  0  0  0  0  0  0  0999 V2000
    5.5495    0.6978   37.3478 C   0  0  2  0  0  0  0  0  0  0  0  0
    4.7699    1.6992   36.6460 O   0  0  0  0  0  0  0  0  0  0  0  0
    6.8784    0.3757   36.5678 C   0  0  2  0  0  0  0  0  0  0  0  0
    7.5600    1.5652   35.9943 N   0  3  0  0  0  0  0  0  0  0  0  0
    6.6266   -0.5859   35.3911 C   0  0  1  0  0  0  0  0  0  0  0  0
    7.8584   -1.0736   34.8636 O   0  0  0  0  0  0  0  0  0  0  0  0
    5.7517   -1.7716   35.8249 C   0  0  2  0  0  0  0  0  0  0  0  0
    5.5661   -2.6713   34.7366 O   0  0  0  0  0  0  0  0  0  0  0  0
    4.4140   -1.2766   36.4181 C   0  0  2  0  0  0  0  0  0  0  0  0
    4.7386   -0.4868   37.5818 O   0  0  0  0  0  0  0  0  0  0  0  0
    3.4707   -2.3950   36.8579 C   0  0  0  0  0  0  0  0  0  0  0  0
    2.1294   -1.9329   36.9455 O   0  0  0  0  0  0  0  0  0  0  0  0
    0.7591    3.1186   36.9720 C   0  0  1  0  0  0  0  0  0  0  0  0
   -0.7044    3.2802   37.0504 N   0  3  0  0  0  0  0  0  0  0  0  0
    1.3386    2.3769   38.2144 C   0  0  2  0  0  0  0  0  0  0  0  0
    1.0308    3.0916   39.4090 O   0  0  0  0  0  0  0  0  0  0  0  0
    2.8852    2.2300   38.1145 C   0  0  1  0  0  0  0  0  0  0  0  0
    3.3450    1.3858   39.2113 O   0  0  0  0  0  0  0  0  0  0  0  0
    3.3293    1.6011   36.7534 C   0  0  1  0  0  0  0  0  0  0  0  0
    2.6979    2.3199   35.5183 C   0  0  1  0  0  0  0  0  0  0  0  0
    3.0560    1.6426   34.2524 N   0  3  0  0  0  0  0  0  0  0  0  0
    1.1548    2.3883   35.6554 C   0  0  0  0  0  0  0  0  0  0  0  0
    2.9773   -0.0302   39.2479 C   0  0  1  0  0  0  0  0  0  0  0  0
    3.5825   -0.6643   40.5143 C   0  0  2  0  0  0  0  0  0  0  0  0
    3.7753   -2.0657   40.3432 O   0  0  0  0  0  0  0  0  0  0  0  0
    2.4518   -0.3493   41.5055 C   0  0  1  0  0  0  0  0  0  0  0  0
    1.2084   -0.6681   40.6920 C   0  0  2  0  0  0  0  0  0  0  0  0
    1.5548   -0.1734   39.4075 O   0  0  0  0  0  0  0  0  0  0  0  0
   -0.0840   -0.0064   41.1875 C   0  0  0  0  0  0  0  0  0  0  0  0
   -0.1636    1.3276   40.7074 O   0  0  0  0  0  0  0  0  0  0  0  0
    2.8467    0.1133   46.8696 C   0  0  1  0  0  0  0  0  0  0  0  0
    2.8952   -1.2111   47.3971 O   0  0  0  0  0  0  0  0  0  0  0  0
    4.0813    0.3494   45.9554 C   0  0  2  0  0  0  0  0  0  0  0  0
    4.2257    1.7516   45.7415 O   0  0  0  0  0  0  0  0  0  0  0  0
    4.0340   -0.3689   44.5671 C   0  0  1  0  0  0  0  0  0  0  0  0
    4.5276   -1.7583   44.6897 N   0  3  0  0  0  0  0  0  0  0  0  0
    2.6256   -0.2869   43.9216 C   0  0  1  0  0  0  0  0  0  0  0  0
    2.4676   -1.1137   42.7424 O   0  0  0  0  0  0  0  0  0  0  0  0
    1.5450    0.3198   46.0551 C   0  0  1  0  0  0  0  0  0  0  0  0
    1.5886   -0.5834   44.9166 O   0  0  0  0  0  0  0  0  0  0  0  0
    0.2576    0.1117   46.8746 C   0  0  0  0  0  0  0  0  0  0  0  0
   -0.9212    0.7490   46.2559 N   0  3  0  0  0  0  0  0  0  0  0  0
  1  2  1  6  0  0  0
  1  3  1  0  0  0  0
  1 10  1  0  0  0  0
  3  4  1  6  0  0  0
  3  5  1  0  0  0  0
  5  6  1  1  0  0  0
  5  7  1  0  0  0  0
  7  8  1  6  0  0  0
  7  9  1  0  0  0  0
  9 10  1  0  0  0  0
  9 11  1  1  0  0  0
 11 12  1  0  0  0  0
 13 14  1  1  0  0  0
 13 15  1  0  0  0  0
 13 22  1  0  0  0  0
 15 16  1  1  0  0  0
 15 17  1  0  0  0  0
 17 18  1  1  0  0  0
 17 19  1  0  0  0  0
 19  2  1  6  0  0  0
 19 20  1  0  0  0  0
 20 21  1  6  0  0  0
 20 22  1  0  0  0  0
 23 18  1  1  0  0  0
 23 24  1  0  0  0  0
 23 28  1  0  0  0  0
 24 25  1  6  0  0  0
 24 26  1  0  0  0  0
 26 27  1  0  0  0  0
 26 38  1  1  0  0  0
 27 28  1  0  0  0  0
 27 29  1  1  0  0  0
 29 30  1  0  0  0  0
 31 32  1  6  0  0  0
 31 33  1  0  0  0  0
 31 39  1  0  0  0  0
 33 34  1  6  0  0  0
 33 35  1  0  0  0  0
 35 36  1  1  0  0  0
 35 37  1  0  0  0  0
 37 38  1  6  0  0  0
 37 40  1  0  0  0  0
 39 40  1  0  0  0  0
 39 41  1  1  0  0  0
 41 42  1  0  0  0  0
M  CHG  5   4   1  14   1  21   1  36   1  42   1
M  END
>  <CHROM.1>
147.37005822,80.77439648,-179.28997626,-66.38292810,63.01055939,-159.53612618
-57.60525756,-44.64159458,174.95410320,67.08869001,-179.36466211,-167.84798808
179.98018661,118.19062867,82.12743302,-157.92811568,-171.51778790,-157.43036526
83.57708495,-105.98379482,159.99603285,41.90724978,3.08003477,0.25360708
39.90764549,-1.27109927,-0.52875756,1.76420031

>  <Name>
1pbr

>  <RI>
0

>  <Rbt.Current_Directory>
/home/itssahil/PROJECTS/Mol_Feturizer/New_Systems/rnas/1pbr

>  <Rbt.Executable>
rbdock ($Id: //depot/dev/client3/rdock/2013.1/src/exe/rbdock.cxx#4 $)

>  <Rbt.Library>
libRbt.so (2013.1, Build901 2013/11/27)

>  <Rbt.Parameter_File>
/export/apps/rDock/src/rDock_2013.1_src/data/scripts/dock_solv.prm

>  <Rbt.Receptor>
prm/blind_docking_100.prm

>  <SCORE>
-15.3534

>  <SCORE.INTER>
-23.9988

>  <SCORE.INTER.CONST>
1

>  <SCORE.INTER.POLAR>
-3.8744

>  <SCORE.INTER.ROT>
9

>  <SCORE.INTER.SOLV>
38.0406

>  <SCORE.INTER.VDW>
-25.3647

>  <SCORE.INTER.norm>
-0.571399

>  <SCORE.INTRA>
4.34681

>  <SCORE.INTRA.DIHEDRAL>
2.4119

>  <SCORE.INTRA.DIHEDRAL.0>
29.7866

>  <SCORE.INTRA.POLAR>
0.181463

>  <SCORE.INTRA.POLAR.0>
-0.984091

>  <SCORE.INTRA.REPUL>
-0.274115

>  <SCORE.INTRA.REPUL.0>
0.274115

>  <SCORE.INTRA.SOLV>
-0.467188

>  <SCORE.INTRA.SOLV.lig_0>
-152.978

>  <SCORE.INTRA.VDW>
4.12805

>  <SCORE.INTRA.VDW.0>
-6.10719

>  <SCORE.INTRA.norm>
0.103495

>  <SCORE.RESTR>
4.29854

>  <SCORE.RESTR.CAVITY>
4.29854

>  <SCORE.RESTR.norm>
0.102346

>  <SCORE.SYSTEM>
0

>  <SCORE.SYSTEM.CONST>
0

>  <SCORE.SYSTEM.DIHEDRAL>
0

>  <SCORE.SYSTEM.SOLV>
0

>  <SCORE.SYSTEM.norm>
0

>  <SCORE.heavy>
42

>  <SCORE.norm>
-0.365558

>  <RMSD>
8.890

$$$$
1pbr
 OpenBabel11021811403D
libRbt.so/2013.1/901 2013/11/27
 42 45  0  0  0  0  0  0  0  0999 V2000
    0.8045    2.9537   38.4206 C   0  0  2  0  0  0  0  0  0  0  0  0
    1.3906    1.7908   37.7823 O   0  0  0  0  0  0  0  0  0  0  0  0
   -0.7051    2.6917   38.7823 C   0  0  2  0  0  0  0  0  0  0  0  0
   -0.9817    1.3382   39.3298 N   0  3  0  0  0  0  0  0  0  0  0  0
   -1.6194    2.8547   37.5534 C   0  0  1  0  0  0  0  0  0  0  0  0
   -2.9910    2.8773   37.9425 O   0  0  0  0  0  0  0  0  0  0  0  0
   -1.2856    4.1417   36.7840 C   0  0  2  0  0  0  0  0  0  0  0  0
   -2.1687    4.2976   35.6776 O   0  0  0  0  0  0  0  0  0  0  0  0
    0.2004    4.1573   36.3619 C   0  0  2  0  0  0  0  0  0  0  0  0
    0.9809    4.1242   37.5756 O   0  0  0  0  0  0  0  0  0  0  0  0
    0.6147    5.3967   35.5707 C   0  0  0  0  0  0  0  0  0  0  0  0
    2.0280    5.4761   35.4407 O   0  0  0  0  0  0  0  0  0  0  0  0
    5.2887    0.1956   37.0982 C   0  0  1  0  0  0  0  0  0  0  0  0
    6.7147   -0.1768   37.1397 N   0  3  0  0  0  0  0  0  0  0  0  0
    4.4839   -0.4165   38.2845 C   0  0  2  0  0  0  0  0  0  0  0  0
    4.5754   -1.8391   38.2664 O   0  0  0  0  0  0  0  0  0  0  0  0
    2.9802   -0.0199   38.2118 C   0  0  1  0  0  0  0  0  0  0  0  0
    2.3187   -0.4755   39.4291 O   0  0  0  0  0  0  0  0  0  0  0  0
    2.7861    1.5244   38.0616 C   0  0  1  0  0  0  0  0  0  0  0  0
    3.6403    2.1334   36.9040 C   0  0  1  0  0  0  0  0  0  0  0  0
    3.5128    3.6067   36.8502 N   0  3  0  0  0  0  0  0  0  0  0  0
    5.1329    1.7441   37.0627 C   0  0  0  0  0  0  0  0  0  0  0  0
    2.6885    0.1018   40.7221 C   0  0  1  0  0  0  0  0  0  0  0  0
    1.9718   -0.6840   41.8361 C   0  0  2  0  0  0  0  0  0  0  0  0
    1.8026    0.1185   43.0012 O   0  0  0  0  0  0  0  0  0  0  0  0
    3.0041   -1.8023   42.0447 C   0  0  1  0  0  0  0  0  0  0  0  0
    4.3192   -1.0415   42.0086 C   0  0  2  0  0  0  0  0  0  0  0  0
    4.0908   -0.0958   40.9751 O   0  0  0  0  0  0  0  0  0  0  0  0
    5.5568   -1.8906   41.6905 C   0  0  0  0  0  0  0  0  0  0  0  0
    5.7243   -2.8970   42.6781 O   0  0  0  0  0  0  0  0  0  0  0  0
   -0.3808   -5.0081   44.7112 C   0  0  1  0  0  0  0  0  0  0  0  0
   -0.2060   -4.6728   46.0866 O   0  0  0  0  0  0  0  0  0  0  0  0
   -0.7669   -3.7308   43.9143 C   0  0  2  0  0  0  0  0  0  0  0  0
   -1.2958   -4.1270   42.6510 O   0  0  0  0  0  0  0  0  0  0  0  0
    0.3961   -2.7129   43.6758 C   0  0  1  0  0  0  0  0  0  0  0  0
    0.5373   -1.8112   44.8403 N   0  3  0  0  0  0  0  0  0  0  0  0
    1.7224   -3.4272   43.3053 C   0  0  1  0  0  0  0  0  0  0  0  0
    2.8777   -2.5530   43.2837 O   0  0  0  0  0  0  0  0  0  0  0  0
    0.9254   -5.6099   44.1348 C   0  0  1  0  0  0  0  0  0  0  0  0
    1.9479   -4.5777   44.1878 O   0  0  0  0  0  0  0  0  0  0  0  0
    1.3942   -6.8875   44.8560 C   0  0  0  0  0  0  0  0  0  0  0  0
    2.6048   -7.4736   44.2483 N   0  3  0  0  0  0  0  0  0  0  0  0
  1  2  1  6  0  0  0
  1  3  1  0  0  0  0
  1 10  1  0  0  0  0
  3  4  1  6  0  0  0
  3  5  1  0  0  0  0
  5  6  1  1  0  0  0
  5  7  1  0  0  0  0
  7  8  1  6  0  0  0
  7  9  1  0  0  0  0
  9 10  1  0  0  0  0
  9 11  1  1  0  0  0
 11 12  1  0  0  0  0
 13 14  1  1  0  0  0
 13 15  1  0  0  0  0
 13 22  1  0  0  0  0
 15 16  1  6  0  0  0
 15 17  1  0  0  0  0
 17 18  1  1  0  0  0
 17 19  1  0  0  0  0
 19  2  1  6  0  0  0
 19 20  1  0  0  0  0
 20 21  1  1  0  0  0
 20 22  1  0  0  0  0
 23 18  1  6  0  0  0
 23 24  1  0  0  0  0
 23 28  1  0  0  0  0
 24 25  1  1  0  0  0
 24 26  1  0  0  0  0
 26 27  1  0  0  0  0
 26 38  1  1  0  0  0
 27 28  1  0  0  0  0
 27 29  1  6  0  0  0
 29 30  1  0  0  0  0
 31 32  1  1  0  0  0
 31 33  1  0  0  0  0
 31 39  1  0  0  0  0
 33 34  1  6  0  0  0
 33 35  1  0  0  0  0
 35 36  1  1  0  0  0
 35 37  1  0  0  0  0
 37 38  1  1  0  0  0
 37 40  1  0  0  0  0
 39 40  1  0  0  0  0
 39 41  1  1  0  0  0
 41 42  1  0  0  0  0
M  CHG  5   4   1  14   1  21   1  36   1  42   1
M  END
>  <CHROM.1>
-145.68536051,140.82894681,64.00054917,-58.75346897,-178.75975858,168.61565946
-89.93805817,49.69304102,-177.30714150,65.18142073,-172.80670286,-151.10692419
66.35005202,71.35050871,-60.73499718,-176.26573402,176.03137442,-176.15028194
-47.44208255,-81.77028827,177.36792510,172.32634605,1.82392767,-0.30475783
40.24059825,1.61647168,0.23684043,-0.75676994

>  <Name>
1pbr

>  <RI>
0

>  <Rbt.Current_Directory>
/home/itssahil/PROJECTS/Mol_Feturizer/New_Systems/rnas/1pbr

>  <Rbt.Executable>
rbdock ($Id: //depot/dev/client3/rdock/2013.1/src/exe/rbdock.cxx#4 $)

>  <Rbt.Library>
libRbt.so (2013.1, Build901 2013/11/27)

>  <Rbt.Parameter_File>
/export/apps/rDock/src/rDock_2013.1_src/data/scripts/dock_solv.prm

>  <Rbt.Receptor>
prm/pocket_docking_8.prm

>  <SCORE>
-44.2118

>  <SCORE.INTER>
-38.6407

>  <SCORE.INTER.CONST>
1

>  <SCORE.INTER.POLAR>
-6.39139

>  <SCORE.INTER.ROT>
9

>  <SCORE.INTER.SOLV>
21.1327

>  <SCORE.INTER.VDW>
-21.1001

>  <SCORE.INTER.norm>
-0.920017

>  <SCORE.INTRA>
-5.5711

>  <SCORE.INTRA.DIHEDRAL>
-9.25624

>  <SCORE.INTRA.DIHEDRAL.0>
29.7866

>  <SCORE.INTRA.POLAR>
-1.11742

>  <SCORE.INTRA.POLAR.0>
-0.984091

>  <SCORE.INTRA.REPUL>
-0.274115

>  <SCORE.INTRA.REPUL.0>
0.274115

>  <SCORE.INTRA.SOLV>
5.55541

>  <SCORE.INTRA.SOLV.lig_0>
-152.978

>  <SCORE.INTRA.VDW>
1.44912

>  <SCORE.INTRA.VDW.0>
-6.10719

>  <SCORE.INTRA.norm>
-0.132645

>  <SCORE.RESTR>
0

>  <SCORE.RESTR.CAVITY>
0

>  <SCORE.RESTR.norm>
0

>  <SCORE.SYSTEM>
0

>  <SCORE.SYSTEM.CONST>
0

>  <SCORE.SYSTEM.DIHEDRAL>
0

>  <SCORE.SYSTEM.SOLV>
0

>  <SCORE.SYSTEM.norm>
0

>  <SCORE.heavy>
42

>  <SCORE.norm>
-1.05266

>  <RMSD>
8.894

$$$$
1pbr
 OpenBabel11021811403D
libRbt.so/2013.1/901 2013/11/27
 42 45  0  0  0  0  0  0  0  0999 V2000
    1.5172   -0.6082   37.2028 C   0  0  2  0  0  0  0  0  0  0  0  0
    1.5863    0.4662   38.1745 O   0  0  0  0  0  0  0  0  0  0  0  0
    2.4983   -1.7767   37.5903 C   0  0  2  0  0  0  0  0  0  0  0  0
    2.5280   -2.1011   39.0402 N   0  3  0  0  0  0  0  0  0  0  0  0
    3.9506   -1.4540   37.1910 C   0  0  1  0  0  0  0  0  0  0  0  0
    4.7753   -2.6118   37.3026 O   0  0  0  0  0  0  0  0  0  0  0  0
    4.0209   -0.9135   35.7548 C   0  0  2  0  0  0  0  0  0  0  0  0
    5.3740   -0.6623   35.3885 O   0  0  0  0  0  0  0  0  0  0  0  0
    3.1232    0.3335   35.5948 C   0  0  2  0  0  0  0  0  0  0  0  0
    1.7698   -0.0866   35.8688 O   0  0  0  0  0  0  0  0  0  0  0  0
    3.1496    0.9503   34.1973 C   0  0  0  0  0  0  0  0  0  0  0  0
    3.8600    2.1815   34.1911 O   0  0  0  0  0  0  0  0  0  0  0  0
   -2.2709    2.0599   37.2860 C   0  0  1  0  0  0  0  0  0  0  0  0
   -3.4875    2.8814   37.1479 N   0  3  0  0  0  0  0  0  0  0  0  0
   -1.0747    2.6341   36.4680 C   0  0  2  0  0  0  0  0  0  0  0  0
   -1.4089    2.7094   35.0841 O   0  0  0  0  0  0  0  0  0  0  0  0
    0.1930    1.7433   36.6195 C   0  0  1  0  0  0  0  0  0  0  0  0
    1.3155    2.4170   35.9766 O   0  0  0  0  0  0  0  0  0  0  0  0
    0.5419    1.4676   38.1187 C   0  0  1  0  0  0  0  0  0  0  0  0
   -0.6799    0.9444   38.9396 C   0  0  1  0  0  0  0  0  0  0  0  0
   -0.3461    0.7878   40.3726 N   0  3  0  0  0  0  0  0  0  0  0  0
   -1.8909    1.9010   38.7873 C   0  0  0  0  0  0  0  0  0  0  0  0
    1.9249    3.5879   36.6087 C   0  0  1  0  0  0  0  0  0  0  0  0
    2.3913    4.5568   35.5061 C   0  0  2  0  0  0  0  0  0  0  0  0
    3.4577    5.3818   35.9670 O   0  0  0  0  0  0  0  0  0  0  0  0
    1.0877    5.3457   35.3112 C   0  0  1  0  0  0  0  0  0  0  0  0
    0.6239    5.5654   36.7417 C   0  0  2  0  0  0  0  0  0  0  0  0
    0.9386    4.3240   37.3536 O   0  0  0  0  0  0  0  0  0  0  0  0
   -0.8697    5.8763   36.9038 C   0  0  0  0  0  0  0  0  0  0  0  0
   -1.2877    5.5821   38.2286 O   0  0  0  0  0  0  0  0  0  0  0  0
   -1.7576    8.9315   32.5000 C   0  0  1  0  0  0  0  0  0  0  0  0
   -0.8599    9.4261   31.5078 O   0  0  0  0  0  0  0  0  0  0  0  0
   -1.8610    7.3856   32.3769 C   0  0  2  0  0  0  0  0  0  0  0  0
   -3.0117    6.9493   33.0966 O   0  0  0  0  0  0  0  0  0  0  0  0
   -0.6162    6.5882   32.8872 C   0  0  1  0  0  0  0  0  0  0  0  0
    0.4069    6.4951   31.8226 N   0  3  0  0  0  0  0  0  0  0  0  0
   -0.0555    7.1760   34.2090 C   0  0  1  0  0  0  0  0  0  0  0  0
    1.2176    6.6139   34.6117 O   0  0  0  0  0  0  0  0  0  0  0  0
   -1.2558    9.3116   33.9157 C   0  0  1  0  0  0  0  0  0  0  0  0
    0.0157    8.6395   34.1286 O   0  0  0  0  0  0  0  0  0  0  0  0
   -1.1219   10.8290   34.1427 C   0  0  0  0  0  0  0  0  0  0  0  0
   -0.0706   11.1684   35.1216 N   0  3  0  0  0  0  0  0  0  0  0  0
  1  2  1  1  0  0  0
  1  3  1  0  0  0  0
  1 10  1  0  0  0  0
  3  4  1  1  0  0  0
  3  5  1  0  0  0  0
  5  6  1  6  0  0  0
  5  7  1  0  0  0  0
  7  8  1  1  0  0  0
  7  9  1  0  0  0  0
  9 10  1  0  0  0  0
  9 11  1  6  0  0  0
 11 12  1  0  0  0  0
 13 14  1  1  0  0  0
 13 15  1  0  0  0  0
 13 22  1  0  0  0  0
 15 16  1  6  0  0  0
 15 17  1  0  0  0  0
 17 18  1  1  0  0  0
 17 19  1  0  0  0  0
 19  2  1  6  0  0  0
 19 20  1  0  0  0  0
 20 21  1  1  0  0  0
 20 22  1  0  0  0  0
 23 18  1  6  0  0  0
 23 24  1  0  0  0  0
 23 28  1  0  0  0  0
 24 25  1  1  0  0  0
 24 26  1  0  0  0  0
 26 27  1  0  0  0  0
 26 38  1  1  0  0  0
 27 28  1  0  0  0  0
 27 29  1  6  0  0  0
 29 30  1  0  0  0  0
 31 32  1  6  0  0  0
 31 33  1  0  0  0  0
 31 39  1  0  0  0  0
 33 34  1  1  0  0  0
 33 35  1  0  0  0  0
 35 36  1  6  0  0  0
 35 37  1  0  0  0  0
 37 38  1  6  0  0  0
 37 40  1  0  0  0  0
 39 40  1  0  0  0  0
 39 41  1  6  0  0  0
 41 42  1  0  0  0  0
M  CHG  5   4   1  14   1  21   1  36   1  42   1
M  END
>  <CHROM.1>
-166.79630013,-37.89059430,89.69978492,-74.87933699,72.26976744,-107.84679115
-171.75503555,165.63336171,-175.11436934,73.27379656,-145.86672458,-166.30470280
-60.30358494,167.76712558,158.71439222,179.51338142,-178.59479998,-55.06652353
179.55246189,-82.24957862,-150.86461488,-170.83250099,0.69170499,3.66219700
35.84002467,1.17355391,-0.55743374,2.54450562

>  <Name>
1pbr

>  <RI>
0

>  <Rbt.Current_Directory>
/home/itssahil/PROJECTS/Mol_Feturizer/New_Systems/rnas/1pbr

>  <Rbt.Executable>
rbdock ($Id: //depot/dev/client3/rdock/2013.1/src/exe/rbdock.cxx#4 $)

>  <Rbt.Library>
libRbt.so (2013.1, Build901 2013/11/27)

>  <Rbt.Parameter_File>
/export/apps/rDock/src/rDock_2013.1_src/data/scripts/dock_solv.prm

>  <Rbt.Receptor>
prm/blind_docking_40.prm

>  <SCORE>
-8.78216

>  <SCORE.INTER>
-19.1228

>  <SCORE.INTER.CONST>
1

>  <SCORE.INTER.POLAR>
-3.99561

>  <SCORE.INTER.ROT>
9

>  <SCORE.INTER.SOLV>
34.0269

>  <SCORE.INTER.VDW>
-20.3721

>  <SCORE.INTER.norm>
-0.455305

>  <SCORE.INTRA>
4.73954

>  <SCORE.INTRA.DIHEDRAL>
-3.89488

>  <SCORE.INTRA.DIHEDRAL.0>
29.7866

>  <SCORE.INTRA.POLAR>
0.887116

>  <SCORE.INTRA.POLAR.0>
-0.984091

>  <SCORE.INTRA.REPUL>
-0.120969

>  <SCORE.INTRA.REPUL.0>
0.274115

>  <SCORE.INTRA.SOLV>
0.360796

>  <SCORE.INTRA.SOLV.lig_0>
-152.978

>  <SCORE.INTRA.VDW>
4.09523

>  <SCORE.INTRA.VDW.0>
-6.10719

>  <SCORE.INTRA.norm>
0.112846

>  <SCORE.RESTR>
5.60109

>  <SCORE.RESTR.CAVITY>
5.60109

>  <SCORE.RESTR.norm>
0.133359

>  <SCORE.SYSTEM>
0

>  <SCORE.SYSTEM.CONST>
0

>  <SCORE.SYSTEM.DIHEDRAL>
0

>  <SCORE.SYSTEM.SOLV>
0

>  <SCORE.SYSTEM.norm>
0

>  <SCORE.heavy>
42

>  <SCORE.norm>
-0.209099

>  <RMSD>
8.895

$$$$
1pbr
 OpenBabel11021811403D
libRbt.so/2013.1/901 2013/11/27
 42 45  0  0  0  0  0  0  0  0999 V2000
    7.3515   -2.7434   43.1486 C   0  0  2  0  0  0  0  0  0  0  0  0
    7.5858   -2.4163   41.7553 O   0  0  0  0  0  0  0  0  0  0  0  0
    8.3860   -2.0054   44.0779 C   0  0  2  0  0  0  0  0  0  0  0  0
    8.6653   -0.5976   43.6929 N   0  3  0  0  0  0  0  0  0  0  0  0
    9.7474   -2.7258   44.0953 C   0  0  1  0  0  0  0  0  0  0  0  0
   10.5803   -2.2087   45.1309 O   0  0  0  0  0  0  0  0  0  0  0  0
    9.5687   -4.2388   44.2914 C   0  0  2  0  0  0  0  0  0  0  0  0
   10.8382   -4.8817   44.3487 O   0  0  0  0  0  0  0  0  0  0  0  0
    8.6556   -4.8288   43.1939 C   0  0  2  0  0  0  0  0  0  0  0  0
    7.3700   -4.1865   43.3286 O   0  0  0  0  0  0  0  0  0  0  0  0
    8.4403   -6.3375   43.3012 C   0  0  0  0  0  0  0  0  0  0  0  0
    7.6492   -6.6655   44.4357 O   0  0  0  0  0  0  0  0  0  0  0  0
    5.0062   -2.1683   38.3654 C   0  0  1  0  0  0  0  0  0  0  0  0
    4.0555   -2.4095   37.2645 N   0  3  0  0  0  0  0  0  0  0  0  0
    4.3172   -2.2206   39.7626 C   0  0  2  0  0  0  0  0  0  0  0  0
    3.2817   -1.2440   39.8437 O   0  0  0  0  0  0  0  0  0  0  0  0
    5.3379   -1.9506   40.9066 C   0  0  1  0  0  0  0  0  0  0  0  0
    4.6758   -2.1800   42.1857 O   0  0  0  0  0  0  0  0  0  0  0  0
    6.5970   -2.8719   40.8007 C   0  0  1  0  0  0  0  0  0  0  0  0
    7.2454   -2.8520   39.3795 C   0  0  1  0  0  0  0  0  0  0  0  0
    8.3718   -3.8065   39.2816 N   0  3  0  0  0  0  0  0  0  0  0  0
    6.1891   -3.1776   38.2920 C   0  0  0  0  0  0  0  0  0  0  0  0
    4.1931   -3.5181   42.5296 C   0  0  1  0  0  0  0  0  0  0  0  0
    3.4391   -3.4409   43.8704 C   0  0  2  0  0  0  0  0  0  0  0  0
    3.4526   -4.6993   44.5386 O   0  0  0  0  0  0  0  0  0  0  0  0
    2.0434   -3.0778   43.3415 C   0  0  1  0  0  0  0  0  0  0  0  0
    1.9038   -3.9938   42.1370 C   0  0  2  0  0  0  0  0  0  0  0  0
    3.2074   -3.9542   41.5768 O   0  0  0  0  0  0  0  0  0  0  0  0
    0.8637   -3.5540   41.0985 C   0  0  0  0  0  0  0  0  0  0  0  0
   -0.4468   -3.7363   41.6139 O   0  0  0  0  0  0  0  0  0  0  0  0
   -0.4505   -7.0478   45.8676 C   0  0  1  0  0  0  0  0  0  0  0  0
   -0.6976   -6.5512   47.1818 O   0  0  0  0  0  0  0  0  0  0  0  0
   -1.3884   -6.3269   44.8595 C   0  0  2  0  0  0  0  0  0  0  0  0
   -1.4061   -7.0720   43.6441 O   0  0  0  0  0  0  0  0  0  0  0  0
   -1.0105   -4.8444   44.5352 C   0  0  1  0  0  0  0  0  0  0  0  0
   -1.5829   -3.9337   45.5511 N   0  3  0  0  0  0  0  0  0  0  0  0
    0.5204   -4.6631   44.3609 C   0  0  1  0  0  0  0  0  0  0  0  0
    0.9448   -3.2806   44.2724 O   0  0  0  0  0  0  0  0  0  0  0  0
    1.0280   -6.8070   45.4716 C   0  0  1  0  0  0  0  0  0  0  0  0
    1.2438   -5.3700   45.4241 O   0  0  0  0  0  0  0  0  0  0  0  0
    2.0429   -7.4859   46.4102 C   0  0  0  0  0  0  0  0  0  0  0  0
    3.4110   -7.4995   45.8564 N   0  3  0  0  0  0  0  0  0  0  0  0
  1  2  1  6  0  0  0
  1  3  1  0  0  0  0
  1 10  1  0  0  0  0
  3  4  1  6  0  0  0
  3  5  1  0  0  0  0
  5  6  1  1  0  0  0
  5  7  1  0  0  0  0
  7  8  1  6  0  0  0
  7  9  1  0  0  0  0
  9 10  1  0  0  0  0
  9 11  1  1  0  0  0
 11 12  1  0  0  0  0
 13 14  1  6  0  0  0
 13 15  1  0  0  0  0
 13 22  1  0  0  0  0
 15 16  1  6  0  0  0
 15 17  1  0  0  0  0
 17 18  1  1  0  0  0
 17 19  1  0  0  0  0
 19  2  1  1  0  0  0
 19 20  1  0  0  0  0
 20 21  1  1  0  0  0
 20 22  1  0  0  0  0
 23 18  1  6  0  0  0
 23 24  1  0  0  0  0
 23 28  1  0  0  0  0
 24 25  1  6  0  0  0
 24 26  1  0  0  0  0
 26 27  1  0  0  0  0
 26 38  1  1  0  0  0
 27 28  1  0  0  0  0
 27 29  1  6  0  0  0
 29 30  1  0  0  0  0
 31 32  1  1  0  0  0
 31 33  1  0  0  0  0
 31 39  1  0  0  0  0
 33 34  1  6  0  0  0
 33 35  1  0  0  0  0
 35 36  1  1  0  0  0
 35 37  1  0  0  0  0
 37 38  1  1  0  0  0
 37 40  1  0  0  0  0
 39 40  1  0  0  0  0
 39 41  1  1  0  0  0
 41 42  1  0  0  0  0
M  CHG  5   4   1  14   1  21   1  36   1  42   1
M  END
>  <CHROM.1>
-171.57881573,75.82653138,-57.87336113,-75.18463706,61.84467357,69.42217981
53.88240861,-176.79035281,66.16436687,63.84973124,-175.29271912,56.21987421
-172.57758886,-79.51385018,-71.35121303,61.36738704,-72.51556074,65.47273186
-74.77850309,-143.32912344,167.22672282,53.94248045,4.31093734,-4.04432794
43.00027284,-0.37822869,0.10804874,2.07895905

>  <Name>
1pbr

>  <RI>
0

>  <Rbt.Current_Directory>
/home/itssahil/PROJECTS/Mol_Feturizer/New_Systems/rnas/1pbr

>  <Rbt.Executable>
rbdock ($Id: //depot/dev/client3/rdock/2013.1/src/exe/rbdock.cxx#4 $)

>  <Rbt.Library>
libRbt.so (2013.1, Build901 2013/11/27)

>  <Rbt.Parameter_File>
/export/apps/rDock/src/rDock_2013.1_src/data/scripts/dock_solv.prm

>  <Rbt.Receptor>
prm/pocket_docking_8.prm

>  <SCORE>
-26.0626

>  <SCORE.INTER>
-15.598

>  <SCORE.INTER.CONST>
1

>  <SCORE.INTER.POLAR>
-3.48331

>  <SCORE.INTER.ROT>
9

>  <SCORE.INTER.SOLV>
15.999

>  <SCORE.INTER.VDW>
-13.7206

>  <SCORE.INTER.norm>
-0.371381

>  <SCORE.INTRA>
-10.4646

>  <SCORE.INTRA.DIHEDRAL>
-15.884

>  <SCORE.INTRA.DIHEDRAL.0>
29.7866

>  <SCORE.INTRA.POLAR>
-0.871039

>  <SCORE.INTRA.POLAR.0>
-0.984091

>  <SCORE.INTRA.REPUL>
-0.267132

>  <SCORE.INTRA.REPUL.0>
0.274115

>  <SCORE.INTRA.SOLV>
-0.424201

>  <SCORE.INTRA.SOLV.lig_0>
-152.978

>  <SCORE.INTRA.VDW>
1.98669

>  <SCORE.INTRA.VDW.0>
-6.10719

>  <SCORE.INTRA.norm>
-0.249157

>  <SCORE.RESTR>
0

>  <SCORE.RESTR.CAVITY>
0

>  <SCORE.RESTR.norm>
0

>  <SCORE.SYSTEM>
0

>  <SCORE.SYSTEM.CONST>
0

>  <SCORE.SYSTEM.DIHEDRAL>
0

>  <SCORE.SYSTEM.SOLV>
0

>  <SCORE.SYSTEM.norm>
0

>  <SCORE.heavy>
42

>  <SCORE.norm>
-0.620538

>  <RMSD>
8.920

$$$$
1pbr
 OpenBabel11021811403D
libRbt.so/2013.1/901 2013/11/27
 42 45  0  0  0  0  0  0  0  0999 V2000
    0.2128    3.0898   38.0123 C   0  0  2  0  0  0  0  0  0  0  0  0
    0.9017    1.9085   37.5296 O   0  0  0  0  0  0  0  0  0  0  0  0
   -1.3427    2.8513   38.0562 C   0  0  2  0  0  0  0  0  0  0  0  0
   -1.7468    1.5118   38.5568 N   0  3  0  0  0  0  0  0  0  0  0  0
   -1.9790    3.0002   36.6613 C   0  0  1  0  0  0  0  0  0  0  0  0
   -3.4010    3.0452   36.7560 O   0  0  0  0  0  0  0  0  0  0  0  0
   -1.4737    4.2684   35.9569 C   0  0  2  0  0  0  0  0  0  0  0  0
   -2.1051    4.4122   34.6884 O   0  0  0  0  0  0  0  0  0  0  0  0
    0.0676    4.2596   35.8532 C   0  0  2  0  0  0  0  0  0  0  0  0
    0.5782    4.2418   37.2031 O   0  0  0  0  0  0  0  0  0  0  0  0
    0.6555    5.4789   35.1448 C   0  0  0  0  0  0  0  0  0  0  0  0
    0.2540    5.5262   33.7821 O   0  0  0  0  0  0  0  0  0  0  0  0
    4.7940    0.1682   37.6999 C   0  0  1  0  0  0  0  0  0  0  0  0
    6.1798   -0.2203   38.0203 N   0  3  0  0  0  0  0  0  0  0  0  0
    3.7879   -0.2657   38.8086 C   0  0  2  0  0  0  0  0  0  0  0  0
    3.8258   -1.6793   38.9894 O   0  0  0  0  0  0  0  0  0  0  0  0
    2.3314    0.1439   38.4418 C   0  0  1  0  0  0  0  0  0  0  0  0
    1.4678   -0.1332   39.5840 O   0  0  0  0  0  0  0  0  0  0  0  0
    2.2238    1.6574   38.0640 C   0  0  1  0  0  0  0  0  0  0  0  0
    3.2740    2.0912   36.9918 C   0  0  1  0  0  0  0  0  0  0  0  0
    3.2139    3.5460   36.7283 N   0  3  0  0  0  0  0  0  0  0  0  0
    4.7061    1.7006   37.4399 C   0  0  0  0  0  0  0  0  0  0  0  0
    1.5098    0.7363   40.7604 C   0  0  1  0  0  0  0  0  0  0  0  0
    1.1017   -0.0865   41.9967 C   0  0  2  0  0  0  0  0  0  0  0  0
    0.5673    0.7527   43.0167 O   0  0  0  0  0  0  0  0  0  0  0  0
    2.4782   -0.6552   42.3729 C   0  0  1  0  0  0  0  0  0  0  0  0
    3.3870    0.5501   42.1967 C   0  0  2  0  0  0  0  0  0  0  0  0
    2.8606    1.1544   41.0252 O   0  0  0  0  0  0  0  0  0  0  0  0
    4.8742    0.2248   42.0068 C   0  0  0  0  0  0  0  0  0  0  0  0
    5.6397    1.4208   42.0169 O   0  0  0  0  0  0  0  0  0  0  0  0
    1.9706    0.7984   47.5058 C   0  0  1  0  0  0  0  0  0  0  0  0
    1.5890   -0.3799   48.2134 O   0  0  0  0  0  0  0  0  0  0  0  0
    3.4417    0.6571   47.0247 C   0  0  2  0  0  0  0  0  0  0  0  0
    3.9260    1.9478   46.6612 O   0  0  0  0  0  0  0  0  0  0  0  0
    3.6629   -0.3198   45.8237 C   0  0  1  0  0  0  0  0  0  0  0  0
    3.8035   -1.7099   46.3104 N   0  3  0  0  0  0  0  0  0  0  0  0
    2.5573   -0.1701   44.7458 C   0  0  1  0  0  0  0  0  0  0  0  0
    2.5910   -1.1923   43.7196 O   0  0  0  0  0  0  0  0  0  0  0  0
    1.0399    1.0178   46.2866 C   0  0  1  0  0  0  0  0  0  0  0  0
    1.2341   -0.0991   45.3763 O   0  0  0  0  0  0  0  0  0  0  0  0
   -0.4467    1.1742   46.6577 C   0  0  0  0  0  0  0  0  0  0  0  0
   -1.3514    0.8391   45.5407 N   0  3  0  0  0  0  0  0  0  0  0  0
  1  2  1  6  0  0  0
  1  3  1  0  0  0  0
  1 10  1  0  0  0  0
  3  4  1  6  0  0  0
  3  5  1  0  0  0  0
  5  6  1  1  0  0  0
  5  7  1  0  0  0  0
  7  8  1  6  0  0  0
  7  9  1  0  0  0  0
  9 10  1  0  0  0  0
  9 11  1  1  0  0  0
 11 12  1  0  0  0  0
 13 14  1  1  0  0  0
 13 15  1  0  0  0  0
 13 22  1  0  0  0  0
 15 16  1  6  0  0  0
 15 17  1  0  0  0  0
 17 18  1  1  0  0  0
 17 19  1  0  0  0  0
 19  2  1  6  0  0  0
 19 20  1  0  0  0  0
 20 21  1  1  0  0  0
 20 22  1  0  0  0  0
 23 18  1  6  0  0  0
 23 24  1  0  0  0  0
 23 28  1  0  0  0  0
 24 25  1  1  0  0  0
 24 26  1  0  0  0  0
 26 27  1  0  0  0  0
 26 38  1  1  0  0  0
 27 28  1  0  0  0  0
 27 29  1  6  0  0  0
 29 30  1  0  0  0  0
 31 32  1  6  0  0  0
 31 33  1  0  0  0  0
 31 39  1  0  0  0  0
 33 34  1  6  0  0  0
 33 35  1  0  0  0  0
 35 36  1  1  0  0  0
 35 37  1  0  0  0  0
 37 38  1  6  0  0  0
 37 40  1  0  0  0  0
 39 40  1  0  0  0  0
 39 41  1  1  0  0  0
 41 42  1  0  0  0  0
M  CHG  5   4   1  14   1  21   1  36   1  42   1
M  END
>  <CHROM.1>
-147.73007268,134.85825396,129.72521320,65.87752374,-54.03744643,-64.46134378
-56.70142493,155.94989814,-63.54519761,74.48457409,-152.37091853,-27.82904890
70.68387475,-70.32486681,-172.91098414,-56.77231871,179.23793471,173.08113197
63.72604972,-133.13464044,-156.78800014,-63.20372716,1.72015055,1.36270744
40.67169676,1.79983648,0.36943809,-1.31847460

>  <Name>
1pbr

>  <RI>
0

>  <Rbt.Current_Directory>
/home/itssahil/PROJECTS/Mol_Feturizer/New_Systems/rnas/1pbr

>  <Rbt.Executable>
rbdock ($Id: //depot/dev/client3/rdock/2013.1/src/exe/rbdock.cxx#4 $)

>  <Rbt.Library>
libRbt.so (2013.1, Build901 2013/11/27)

>  <Rbt.Parameter_File>
/export/apps/rDock/src/rDock_2013.1_src/data/scripts/dock_solv.prm

>  <Rbt.Receptor>
prm/blind_docking_60.prm

>  <SCORE>
-42.0109

>  <SCORE.INTER>
-47.4467

>  <SCORE.INTER.CONST>
1

>  <SCORE.INTER.POLAR>
-6.71062

>  <SCORE.INTER.ROT>
9

>  <SCORE.INTER.SOLV>
40.4965

>  <SCORE.INTER.VDW>
-32.3613

>  <SCORE.INTER.norm>
-1.12968

>  <SCORE.INTRA>
4.52003

>  <SCORE.INTRA.DIHEDRAL>
1.9705

>  <SCORE.INTRA.DIHEDRAL.0>
29.7866

>  <SCORE.INTRA.POLAR>
0.0902813

>  <SCORE.INTRA.POLAR.0>
-0.984091

>  <SCORE.INTRA.REPUL>
-0.274115

>  <SCORE.INTRA.REPUL.0>
0.274115

>  <SCORE.INTRA.SOLV>
3.91722

>  <SCORE.INTRA.SOLV.lig_0>
-152.978

>  <SCORE.INTRA.VDW>
2.63979

>  <SCORE.INTRA.VDW.0>
-6.10719

>  <SCORE.INTRA.norm>
0.10762

>  <SCORE.RESTR>
0.915798

>  <SCORE.RESTR.CAVITY>
0.915798

>  <SCORE.RESTR.norm>
0.0218047

>  <SCORE.SYSTEM>
0

>  <SCORE.SYSTEM.CONST>
0

>  <SCORE.SYSTEM.DIHEDRAL>
0

>  <SCORE.SYSTEM.SOLV>
0

>  <SCORE.SYSTEM.norm>
0

>  <SCORE.heavy>
42

>  <SCORE.norm>
-1.00026

>  <RMSD>
8.937

$$$$
1pbr
 OpenBabel11021811403D
libRbt.so/2013.1/901 2013/11/27
 42 45  0  0  0  0  0  0  0  0999 V2000
    4.3171    0.6004   37.1590 C   0  0  2  0  0  0  0  0  0  0  0  0
    3.3909    1.2884   36.2803 O   0  0  0  0  0  0  0  0  0  0  0  0
    5.7417    1.2679   37.1029 C   0  0  2  0  0  0  0  0  0  0  0  0
    5.7254    2.7535   37.0743 N   0  3  0  0  0  0  0  0  0  0  0  0
    6.5287    0.8212   35.8564 C   0  0  1  0  0  0  0  0  0  0  0  0
    7.8955    1.2162   35.9525 O   0  0  0  0  0  0  0  0  0  0  0  0
    6.4491   -0.7014   35.6699 C   0  0  2  0  0  0  0  0  0  0  0  0
    7.2177   -1.1002   34.5391 O   0  0  0  0  0  0  0  0  0  0  0  0
    4.9785   -1.1656   35.5794 C   0  0  2  0  0  0  0  0  0  0  0  0
    4.3512   -0.8162   36.8314 O   0  0  0  0  0  0  0  0  0  0  0  0
    4.8071   -2.6695   35.3717 C   0  0  0  0  0  0  0  0  0  0  0  0
    5.0535   -3.3868   36.5739 O   0  0  0  0  0  0  0  0  0  0  0  0
   -0.5290    2.7654   37.0934 C   0  0  1  0  0  0  0  0  0  0  0  0
   -1.9630    2.9458   37.3847 N   0  3  0  0  0  0  0  0  0  0  0  0
    0.2440    2.1429   38.2953 C   0  0  2  0  0  0  0  0  0  0  0  0
    0.1227    2.9724   39.4484 O   0  0  0  0  0  0  0  0  0  0  0  0
    1.7567    1.9743   37.9682 C   0  0  1  0  0  0  0  0  0  0  0  0
    2.3892    1.2367   39.0558 O   0  0  0  0  0  0  0  0  0  0  0  0
    1.9858    1.2129   36.6217 C   0  0  1  0  0  0  0  0  0  0  0  0
    1.1629    1.8138   35.4375 C   0  0  1  0  0  0  0  0  0  0  0  0
    1.3225    1.0141   34.2027 N   0  3  0  0  0  0  0  0  0  0  0  0
   -0.3399    1.9077   35.8080 C   0  0  0  0  0  0  0  0  0  0  0  0
    2.4188    1.8045   40.4043 C   0  0  1  0  0  0  0  0  0  0  0  0
    1.8106    0.7828   41.3832 C   0  0  2  0  0  0  0  0  0  0  0  0
    1.2808    1.4310   42.5361 O   0  0  0  0  0  0  0  0  0  0  0  0
    3.0755   -0.0286   41.7015 C   0  0  1  0  0  0  0  0  0  0  0  0
    4.1241    1.0580   41.8726 C   0  0  2  0  0  0  0  0  0  0  0  0
    3.7775    1.9744   40.8456 O   0  0  0  0  0  0  0  0  0  0  0  0
    5.5775    0.5956   41.7064 C   0  0  0  0  0  0  0  0  0  0  0  0
    6.4661    1.6212   42.1247 O   0  0  0  0  0  0  0  0  0  0  0  0
    1.7871    0.3685   46.8472 C   0  0  1  0  0  0  0  0  0  0  0  0
    1.0253   -0.8055   47.1233 O   0  0  0  0  0  0  0  0  0  0  0  0
    3.2816   -0.0177   46.6656 C   0  0  2  0  0  0  0  0  0  0  0  0
    4.0710    1.1653   46.7647 O   0  0  0  0  0  0  0  0  0  0  0  0
    3.6278   -0.7426   45.3238 C   0  0  1  0  0  0  0  0  0  0  0  0
    3.3802   -2.1961   45.4455 N   0  3  0  0  0  0  0  0  0  0  0  0
    2.8897   -0.1069   44.1163 C   0  0  1  0  0  0  0  0  0  0  0  0
    3.0043   -0.8665   42.8879 O   0  0  0  0  0  0  0  0  0  0  0  0
    1.2646    1.0580   45.5618 C   0  0  1  0  0  0  0  0  0  0  0  0
    1.4835    0.1455   44.4513 O   0  0  0  0  0  0  0  0  0  0  0  0
   -0.2130    1.4855   45.6407 C   0  0  0  0  0  0  0  0  0  0  0  0
   -0.9462    0.8046   46.7258 N   0  3  0  0  0  0  0  0  0  0  0  0
  1  2  1  6  0  0  0
  1  3  1  0  0  0  0
  1 10  1  0  0  0  0
  3  4  1  6  0  0  0
  3  5  1  0  0  0  0
  5  6  1  1  0  0  0
  5  7  1  0  0  0  0
  7  8  1  6  0  0  0
  7  9  1  0  0  0  0
  9 10  1  0  0  0  0
  9 11  1  1  0  0  0
 11 12  1  0  0  0  0
 13 14  1  1  0  0  0
 13 15  1  0  0  0  0
 13 22  1  0  0  0  0
 15 16  1  1  0  0  0
 15 17  1  0  0  0  0
 17 18  1  1  0  0  0
 17 19  1  0  0  0  0
 19  2  1  6  0  0  0
 19 20  1  0  0  0  0
 20 21  1  6  0  0  0
 20 22  1  0  0  0  0
 23 18  1  6  0  0  0
 23 24  1  0  0  0  0
 23 28  1  0  0  0  0
 24 25  1  1  0  0  0
 24 26  1  0  0  0  0
 26 27  1  0  0  0  0
 26 38  1  1  0  0  0
 27 28  1  0  0  0  0
 27 29  1  6  0  0  0
 29 30  1  0  0  0  0
 31 32  1  6  0  0  0
 31 33  1  0  0  0  0
 31 39  1  0  0  0  0
 33 34  1  6  0  0  0
 33 35  1  0  0  0  0
 35 36  1  1  0  0  0
 35 37  1  0  0  0  0
 37 38  1  6  0  0  0
 37 40  1  0  0  0  0
 39 40  1  0  0  0  0
 39 41  1  1  0  0  0
 41 42  1  0  0  0  0
M  CHG  5   4   1  14   1  21   1  36   1  42   1
M  END
>  <CHROM.1>
-153.78841580,66.14238877,-94.80069965,-165.30967232,-174.63981523,75.57291109
57.98172443,-5.71290128,-60.49838550,-62.76768669,125.64061817,-10.18940386
-50.71384107,-66.02333005,-169.35292844,-58.35240477,50.26719760,-60.35965154
169.24845872,-144.96434942,-17.65533084,88.10326249,3.00269724,0.65138611
40.15026684,-1.31980381,-0.38935082,1.68191892

>  <Name>
1pbr

>  <RI>
0

>  <Rbt.Current_Directory>
/home/itssahil/PROJECTS/Mol_Feturizer/New_Systems/rnas/1pbr

>  <Rbt.Executable>
rbdock ($Id: //depot/dev/client3/rdock/2013.1/src/exe/rbdock.cxx#4 $)

>  <Rbt.Library>
libRbt.so (2013.1, Build901 2013/11/27)

>  <Rbt.Parameter_File>
/export/apps/rDock/src/rDock_2013.1_src/data/scripts/dock_solv.prm

>  <Rbt.Receptor>
prm/blind_docking_100.prm

>  <SCORE>
-21.4617

>  <SCORE.INTER>
-31.8332

>  <SCORE.INTER.CONST>
1

>  <SCORE.INTER.POLAR>
-5.76689

>  <SCORE.INTER.ROT>
9

>  <SCORE.INTER.SOLV>
46.9392

>  <SCORE.INTER.VDW>
-27.2456

>  <SCORE.INTER.norm>
-0.757933

>  <SCORE.INTRA>
8.95442

>  <SCORE.INTRA.DIHEDRAL>
4.3506

>  <SCORE.INTRA.DIHEDRAL.0>
29.7866

>  <SCORE.INTRA.POLAR>
0.0491709

>  <SCORE.INTRA.POLAR.0>
-0.984091

>  <SCORE.INTRA.REPUL>
-0.274115

>  <SCORE.INTRA.REPUL.0>
0.274115

>  <SCORE.INTRA.SOLV>
-0.411123

>  <SCORE.INTRA.SOLV.lig_0>
-152.978

>  <SCORE.INTRA.VDW>
8.18808

>  <SCORE.INTRA.VDW.0>
-6.10719

>  <SCORE.INTRA.norm>
0.213201

>  <SCORE.RESTR>
1.41707

>  <SCORE.RESTR.CAVITY>
1.41707

>  <SCORE.RESTR.norm>
0.0337398

>  <SCORE.SYSTEM>
0

>  <SCORE.SYSTEM.CONST>
0

>  <SCORE.SYSTEM.DIHEDRAL>
0

>  <SCORE.SYSTEM.SOLV>
0

>  <SCORE.SYSTEM.norm>
0

>  <SCORE.heavy>
42

>  <SCORE.norm>
-0.510992

>  <RMSD>
8.941

$$$$
1pbr
 OpenBabel11021811403D
libRbt.so/2013.1/901 2013/11/27
 42 45  0  0  0  0  0  0  0  0999 V2000
    6.2653   -3.2979   44.1592 C   0  0  2  0  0  0  0  0  0  0  0  0
    5.5651   -4.4399   44.7146 O   0  0  0  0  0  0  0  0  0  0  0  0
    5.7174   -1.9545   44.7704 C   0  0  2  0  0  0  0  0  0  0  0  0
    5.4452   -2.0077   46.2303 N   0  3  0  0  0  0  0  0  0  0  0  0
    4.3987   -1.5232   44.1014 C   0  0  1  0  0  0  0  0  0  0  0  0
    4.0564   -0.1892   44.4711 O   0  0  0  0  0  0  0  0  0  0  0  0
    4.4988   -1.6194   42.5716 C   0  0  2  0  0  0  0  0  0  0  0  0
    3.2868   -1.1757   41.9696 O   0  0  0  0  0  0  0  0  0  0  0  0
    4.8859   -3.0506   42.1374 C   0  0  2  0  0  0  0  0  0  0  0  0
    6.1833   -3.3247   42.7073 O   0  0  0  0  0  0  0  0  0  0  0  0
    4.9875   -3.2413   40.6250 C   0  0  0  0  0  0  0  0  0  0  0  0
    5.4931   -4.5297   40.3011 O   0  0  0  0  0  0  0  0  0  0  0  0
    8.3100   -7.2897   43.1170 C   0  0  1  0  0  0  0  0  0  0  0  0
    9.1206   -8.4793   42.7981 N   0  3  0  0  0  0  0  0  0  0  0  0
    6.8103   -7.4776   42.7359 C   0  0  2  0  0  0  0  0  0  0  0  0
    6.6811   -7.7464   41.3418 O   0  0  0  0  0  0  0  0  0  0  0  0
    5.9784   -6.2049   43.0701 C   0  0  1  0  0  0  0  0  0  0  0  0
    4.5669   -6.5003   42.8523 O   0  0  0  0  0  0  0  0  0  0  0  0
    6.1893   -5.7356   44.5467 C   0  0  1  0  0  0  0  0  0  0  0  0
    7.6977   -5.6041   44.9319 C   0  0  1  0  0  0  0  0  0  0  0  0
    7.8665   -5.2559   46.3601 N   0  3  0  0  0  0  0  0  0  0  0  0
    8.4578   -6.9196   44.6219 C   0  0  0  0  0  0  0  0  0  0  0  0
    4.1527   -7.2623   41.6735 C   0  0  1  0  0  0  0  0  0  0  0  0
    3.3201   -8.4726   42.1361 C   0  0  2  0  0  0  0  0  0  0  0  0
    3.3766   -9.5281   41.1807 O   0  0  0  0  0  0  0  0  0  0  0  0
    1.9362   -7.8077   42.1875 C   0  0  1  0  0  0  0  0  0  0  0  0
    1.9250   -6.9816   40.9120 C   0  0  2  0  0  0  0  0  0  0  0  0
    3.2532   -6.4831   40.8653 O   0  0  0  0  0  0  0  0  0  0  0  0
    0.9196   -5.8229   40.8928 C   0  0  0  0  0  0  0  0  0  0  0  0
   -0.4061   -6.3289   40.8419 O   0  0  0  0  0  0  0  0  0  0  0  0
   -2.3563   -7.1354   44.7138 C   0  0  1  0  0  0  0  0  0  0  0  0
   -2.9443   -6.3352   43.6897 O   0  0  0  0  0  0  0  0  0  0  0  0
   -2.4627   -8.6353   44.3207 C   0  0  2  0  0  0  0  0  0  0  0  0
   -2.2249   -9.4266   45.4825 O   0  0  0  0  0  0  0  0  0  0  0  0
   -1.4913   -9.1014   43.1872 C   0  0  1  0  0  0  0  0  0  0  0  0
   -2.0805   -8.8242   41.8586 N   0  3  0  0  0  0  0  0  0  0  0  0
   -0.0741   -8.4928   43.3542 C   0  0  1  0  0  0  0  0  0  0  0  0
    0.8017   -8.7167   42.2220 O   0  0  0  0  0  0  0  0  0  0  0  0
   -0.8685   -6.7497   44.9092 C   0  0  1  0  0  0  0  0  0  0  0  0
   -0.1653   -7.0640   43.6761 O   0  0  0  0  0  0  0  0  0  0  0  0
   -0.6536   -5.2772   45.3062 C   0  0  0  0  0  0  0  0  0  0  0  0
    0.7735   -4.9046   45.3632 N   0  3  0  0  0  0  0  0  0  0  0  0
  1  2  1  1  0  0  0
  1  3  1  0  0  0  0
  1 10  1  0  0  0  0
  3  4  1  1  0  0  0
  3  5  1  0  0  0  0
  5  6  1  6  0  0  0
  5  7  1  0  0  0  0
  7  8  1  6  0  0  0
  7  9  1  0  0  0  0
  9 10  1  0  0  0  0
  9 11  1  6  0  0  0
 11 12  1  0  0  0  0
 13 14  1  1  0  0  0
 13 15  1  0  0  0  0
 13 22  1  0  0  0  0
 15 16  1  6  0  0  0
 15 17  1  0  0  0  0
 17 18  1  1  0  0  0
 17 19  1  0  0  0  0
 19  2  1  6  0  0  0
 19 20  1  0  0  0  0
 20 21  1  1  0  0  0
 20 22  1  0  0  0  0
 23 18  1  1  0  0  0
 23 24  1  0  0  0  0
 23 28  1  0  0  0  0
 24 25  1  6  0  0  0
 24 26  1  0  0  0  0
 26 27  1  0  0  0  0
 26 38  1  6  0  0  0
 27 28  1  0  0  0  0
 27 29  1  1  0  0  0
 29 30  1  0  0  0  0
 31 32  1  6  0  0  0
 31 33  1  0  0  0  0
 31 39  1  0  0  0  0
 33 34  1  1  0  0  0
 33 35  1  0  0  0  0
 35 36  1  6  0  0  0
 35 37  1  0  0  0  0
 37 38  1  6  0  0  0
 37 40  1  0  0  0  0
 39 40  1  0  0  0  0
 39 41  1  6  0  0  0
 41 42  1  0  0  0  0
M  CHG  5   4   1  14   1  21   1  36   1  42   1
M  END
>  <CHROM.1>
-163.15069622,-75.97081756,64.28846132,56.14159285,173.97840986,173.31658162
-44.27472403,-41.14820332,64.09050718,-42.31334244,125.58443761,64.35380326
-178.15722572,124.31973040,-69.11629565,-154.62254520,-176.69981081,177.62109542
-153.84609352,161.25864743,-174.66341377,71.29230660,3.24824016,-5.87134243
43.17939731,0.40363471,0.08214779,0.27301925

>  <Name>
1pbr

>  <RI>
0

>  <Rbt.Current_Directory>
/home/itssahil/PROJECTS/Mol_Feturizer/New_Systems/rnas/1pbr

>  <Rbt.Executable>
rbdock ($Id: //depot/dev/client3/rdock/2013.1/src/exe/rbdock.cxx#4 $)

>  <Rbt.Library>
libRbt.so (2013.1, Build901 2013/11/27)

>  <Rbt.Parameter_File>
/export/apps/rDock/src/rDock_2013.1_src/data/scripts/dock_solv.prm

>  <Rbt.Receptor>
prm/pocket_docking_8.prm

>  <SCORE>
-19.0061

>  <SCORE.INTER>
-19.2002

>  <SCORE.INTER.CONST>
1

>  <SCORE.INTER.POLAR>
-4.19752

>  <SCORE.INTER.ROT>
9

>  <SCORE.INTER.SOLV>
12.7615

>  <SCORE.INTER.VDW>
-12.6622

>  <SCORE.INTER.norm>
-0.457147

>  <SCORE.INTRA>
0.1735

>  <SCORE.INTRA.DIHEDRAL>
-2.05223

>  <SCORE.INTRA.DIHEDRAL.0>
29.7866

>  <SCORE.INTRA.POLAR>
0.11368

>  <SCORE.INTRA.POLAR.0>
-0.984091

>  <SCORE.INTRA.REPUL>
-0.274115

>  <SCORE.INTRA.REPUL.0>
0.274115

>  <SCORE.INTRA.SOLV>
1.3195

>  <SCORE.INTRA.SOLV.lig_0>
-152.978

>  <SCORE.INTRA.VDW>
1.52393

>  <SCORE.INTRA.VDW.0>
-6.10719

>  <SCORE.INTRA.norm>
0.00413096

>  <SCORE.RESTR>
0.0206008

>  <SCORE.RESTR.CAVITY>
0.0206008

>  <SCORE.RESTR.norm>
0.000490495

>  <SCORE.SYSTEM>
0

>  <SCORE.SYSTEM.CONST>
0

>  <SCORE.SYSTEM.DIHEDRAL>
0

>  <SCORE.SYSTEM.SOLV>
0

>  <SCORE.SYSTEM.norm>
0

>  <SCORE.heavy>
42

>  <SCORE.norm>
-0.452526

>  <RMSD>
8.947

$$$$
1pbr
 OpenBabel11021811403D
libRbt.so/2013.1/901 2013/11/27
 42 45  0  0  0  0  0  0  0  0999 V2000
    4.4709    0.3600   37.0116 C   0  0  2  0  0  0  0  0  0  0  0  0
    3.5348    0.9836   36.0962 O   0  0  0  0  0  0  0  0  0  0  0  0
    5.8056    1.1902   37.0984 C   0  0  2  0  0  0  0  0  0  0  0  0
    5.6136    2.6632   37.1378 N   0  3  0  0  0  0  0  0  0  0  0  0
    6.7284    0.9078   35.8978 C   0  0  1  0  0  0  0  0  0  0  0  0
    8.0274    1.4526   36.1187 O   0  0  0  0  0  0  0  0  0  0  0  0
    6.8455   -0.6011   35.6347 C   0  0  2  0  0  0  0  0  0  0  0  0
    7.7358   -0.8447   34.5502 O   0  0  0  0  0  0  0  0  0  0  0  0
    5.4514   -1.2270   35.4080 C   0  0  2  0  0  0  0  0  0  0  0  0
    4.6981   -1.0228   36.6221 O   0  0  0  0  0  0  0  0  0  0  0  0
    5.4769   -2.7267   35.1177 C   0  0  0  0  0  0  0  0  0  0  0  0
    5.6166   -3.4807   36.3146 O   0  0  0  0  0  0  0  0  0  0  0  0
   -0.1129    2.9573   37.0995 C   0  0  1  0  0  0  0  0  0  0  0  0
   -1.4898    3.3220   37.4804 N   0  3  0  0  0  0  0  0  0  0  0  0
    0.6718    2.3032   38.2768 C   0  0  2  0  0  0  0  0  0  0  0  0
    0.7362    3.1943   39.3878 O   0  0  0  0  0  0  0  0  0  0  0  0
    2.1252    1.9390   37.8542 C   0  0  1  0  0  0  0  0  0  0  0  0
    2.7488    1.1824   38.9339 O   0  0  0  0  0  0  0  0  0  0  0  0
    2.1607    1.0936   36.5392 C   0  0  1  0  0  0  0  0  0  0  0  0
    1.3254    1.7329   35.3842 C   0  0  1  0  0  0  0  0  0  0  0  0
    1.2961    0.8631   34.1875 N   0  3  0  0  0  0  0  0  0  0  0  0
   -0.1236    2.0239   35.8536 C   0  0  0  0  0  0  0  0  0  0  0  0
    2.4207   -0.2316   39.1202 C   0  0  1  0  0  0  0  0  0  0  0  0
    3.3012   -0.7974   40.2501 C   0  0  2  0  0  0  0  0  0  0  0  0
    3.4735   -2.2048   40.1090 O   0  0  0  0  0  0  0  0  0  0  0  0
    2.4132   -0.4375   41.4508 C   0  0  1  0  0  0  0  0  0  0  0  0
    1.0257   -0.8030   40.9500 C   0  0  2  0  0  0  0  0  0  0  0  0
    1.0713   -0.3730   39.5981 O   0  0  0  0  0  0  0  0  0  0  0  0
   -0.1353   -0.1228   41.6871 C   0  0  0  0  0  0  0  0  0  0  0  0
   -1.2633   -0.0209   40.8306 O   0  0  0  0  0  0  0  0  0  0  0  0
    2.6595    0.2889   46.7690 C   0  0  1  0  0  0  0  0  0  0  0  0
    2.5457   -1.0045   47.3595 O   0  0  0  0  0  0  0  0  0  0  0  0
    4.0129    0.3925   46.0119 C   0  0  2  0  0  0  0  0  0  0  0  0
    4.2838    1.7682   45.7533 O   0  0  0  0  0  0  0  0  0  0  0  0
    4.0887   -0.3971   44.6641 C   0  0  1  0  0  0  0  0  0  0  0  0
    4.4615   -1.8069   44.9142 N   0  3  0  0  0  0  0  0  0  0  0  0
    2.7822   -0.2588   43.8391 C   0  0  1  0  0  0  0  0  0  0  0  0
    2.7144   -1.1376   42.6892 O   0  0  0  0  0  0  0  0  0  0  0  0
    1.4887    0.5348   45.7844 C   0  0  1  0  0  0  0  0  0  0  0  0
    1.6098   -0.4311   44.7045 O   0  0  0  0  0  0  0  0  0  0  0  0
    0.0970    0.4574   46.4396 C   0  0  0  0  0  0  0  0  0  0  0  0
   -0.9981    0.4315   45.4503 N   0  3  0  0  0  0  0  0  0  0  0  0
  1  2  1  6  0  0  0
  1  3  1  0  0  0  0
  1 10  1  0  0  0  0
  3  4  1  6  0  0  0
  3  5  1  0  0  0  0
  5  6  1  1  0  0  0
  5  7  1  0  0  0  0
  7  8  1  6  0  0  0
  7  9  1  0  0  0  0
  9 10  1  0  0  0  0
  9 11  1  1  0  0  0
 11 12  1  0  0  0  0
 13 14  1  1  0  0  0
 13 15  1  0  0  0  0
 13 22  1  0  0  0  0
 15 16  1  1  0  0  0
 15 17  1  0  0  0  0
 17 18  1  1  0  0  0
 17 19  1  0  0  0  0
 19  2  1  6  0  0  0
 19 20  1  0  0  0  0
 20 21  1  6  0  0  0
 20 22  1  0  0  0  0
 23 18  1  1  0  0  0
 23 24  1  0  0  0  0
 23 28  1  0  0  0  0
 24 25  1  6  0  0  0
 24 26  1  0  0  0  0
 26 27  1  0  0  0  0
 26 38  1  1  0  0  0
 27 28  1  0  0  0  0
 27 29  1  1  0  0  0
 29 30  1  0  0  0  0
 31 32  1  6  0  0  0
 31 33  1  0  0  0  0
 31 39  1  0  0  0  0
 33 34  1  6  0  0  0
 33 35  1  0  0  0  0
 35 36  1  1  0  0  0
 35 37  1  0  0  0  0
 37 38  1  6  0  0  0
 37 40  1  0  0  0  0
 39 40  1  0  0  0  0
 39 41  1  1  0  0  0
 41 42  1  0  0  0  0
M  CHG  5   4   1  14   1  21   1  36   1  42   1
M  END
>  <CHROM.1>
-134.75866551,59.55262510,9.48215645,54.42131479,-64.01026574,80.09620199
47.17737159,91.43208178,65.14428871,77.51528466,175.54616419,-127.83661379
55.82397898,132.98759758,153.50703225,64.63114196,170.81278634,70.74371746
-68.40854680,-127.40296137,-168.81171412,54.64477458,2.88506305,0.27692645
39.83003965,-1.27767268,-0.39267599,1.72250160

>  <Name>
1pbr

>  <RI>
0

>  <Rbt.Current_Directory>
/home/itssahil/PROJECTS/Mol_Feturizer/New_Systems/rnas/1pbr

>  <Rbt.Executable>
rbdock ($Id: //depot/dev/client3/rdock/2013.1/src/exe/rbdock.cxx#4 $)

>  <Rbt.Library>
libRbt.so (2013.1, Build901 2013/11/27)

>  <Rbt.Parameter_File>
/export/apps/rDock/src/rDock_2013.1_src/data/scripts/dock_solv.prm

>  <Rbt.Receptor>
prm/blind_docking_100.prm

>  <SCORE>
-19.2017

>  <SCORE.INTER>
-29.3114

>  <SCORE.INTER.CONST>
1

>  <SCORE.INTER.POLAR>
-5.69044

>  <SCORE.INTER.ROT>
9

>  <SCORE.INTER.SOLV>
47.4635

>  <SCORE.INTER.VDW>
-25.994

>  <SCORE.INTER.norm>
-0.69789

>  <SCORE.INTRA>
5.92646

>  <SCORE.INTRA.DIHEDRAL>
6.896

>  <SCORE.INTRA.DIHEDRAL.0>
29.7866

>  <SCORE.INTRA.POLAR>
0.686121

>  <SCORE.INTRA.POLAR.0>
-0.984091

>  <SCORE.INTRA.REPUL>
-0.250641

>  <SCORE.INTRA.REPUL.0>
0.274115

>  <SCORE.INTRA.SOLV>
-2.9689

>  <SCORE.INTRA.SOLV.lig_0>
-152.978

>  <SCORE.INTRA.VDW>
2.8833

>  <SCORE.INTRA.VDW.0>
-6.10719

>  <SCORE.INTRA.norm>
0.141106

>  <SCORE.RESTR>
4.18328

>  <SCORE.RESTR.CAVITY>
4.18328

>  <SCORE.RESTR.norm>
0.099602

>  <SCORE.SYSTEM>
0

>  <SCORE.SYSTEM.CONST>
0

>  <SCORE.SYSTEM.DIHEDRAL>
0

>  <SCORE.SYSTEM.SOLV>
0

>  <SCORE.SYSTEM.norm>
0

>  <SCORE.heavy>
42

>  <SCORE.norm>
-0.457182

>  <RMSD>
8.959

$$$$
1pbr
 OpenBabel11021811403D
libRbt.so/2013.1/901 2013/11/27
 42 45  0  0  0  0  0  0  0  0999 V2000
    5.0996    0.9464   37.4325 C   0  0  2  0  0  0  0  0  0  0  0  0
    4.6881    1.9752   36.4968 O   0  0  0  0  0  0  0  0  0  0  0  0
    6.3276    0.1377   36.8700 C   0  0  2  0  0  0  0  0  0  0  0  0
    7.3580    0.9707   36.1972 N   0  3  0  0  0  0  0  0  0  0  0  0
    5.8868   -0.9187   35.8392 C   0  0  1  0  0  0  0  0  0  0  0  0
    6.9578   -1.8111   35.5395 O   0  0  0  0  0  0  0  0  0  0  0  0
    4.6818   -1.7213   36.3523 C   0  0  2  0  0  0  0  0  0  0  0  0
    4.3164   -2.7209   35.4060 O   0  0  0  0  0  0  0  0  0  0  0  0
    3.5073   -0.7811   36.7033 C   0  0  2  0  0  0  0  0  0  0  0  0
    3.9691    0.0908   37.7568 O   0  0  0  0  0  0  0  0  0  0  0  0
    2.2559   -1.5005   37.2038 C   0  0  0  0  0  0  0  0  0  0  0  0
    2.0806   -1.3163   38.6023 O   0  0  0  0  0  0  0  0  0  0  0  0
    0.9961    3.9523   35.6793 C   0  0  1  0  0  0  0  0  0  0  0  0
   -0.3962    4.3185   35.3610 N   0  3  0  0  0  0  0  0  0  0  0  0
    1.1208    3.2563   37.0684 C   0  0  2  0  0  0  0  0  0  0  0  0
    0.6368    4.1134   38.0997 O   0  0  0  0  0  0  0  0  0  0  0  0
    2.6003    2.8912   37.3869 C   0  0  1  0  0  0  0  0  0  0  0  0
    2.6314    2.0971   38.6098 O   0  0  0  0  0  0  0  0  0  0  0  0
    3.2698    2.0848   36.2265 C   0  0  1  0  0  0  0  0  0  0  0  0
    3.0902    2.7660   34.8320 C   0  0  1  0  0  0  0  0  0  0  0  0
    3.6461    1.9323   33.7433 N   0  3  0  0  0  0  0  0  0  0  0  0
    1.5925    3.0565   34.5544 C   0  0  0  0  0  0  0  0  0  0  0  0
    1.7623    2.4500   39.7332 C   0  0  1  0  0  0  0  0  0  0  0  0
    0.6811    1.3632   39.8807 C   0  0  2  0  0  0  0  0  0  0  0  0
   -0.4850    1.8836   40.5128 O   0  0  0  0  0  0  0  0  0  0  0  0
    1.4452    0.3841   40.7847 C   0  0  1  0  0  0  0  0  0  0  0  0
    2.1072    1.3157   41.7864 C   0  0  2  0  0  0  0  0  0  0  0  0
    2.4992    2.4071   40.9680 O   0  0  0  0  0  0  0  0  0  0  0  0
    3.3241    0.7323   42.5161 C   0  0  0  0  0  0  0  0  0  0  0  0
    4.2141    1.7740   42.8892 O   0  0  0  0  0  0  0  0  0  0  0  0
   -0.1458   -0.9739   45.7025 C   0  0  1  0  0  0  0  0  0  0  0  0
   -1.4704   -1.4810   45.5505 O   0  0  0  0  0  0  0  0  0  0  0  0
    0.8656   -1.9824   45.0896 C   0  0  2  0  0  0  0  0  0  0  0  0
    2.1704   -1.6629   45.5671 O   0  0  0  0  0  0  0  0  0  0  0  0
    0.8998   -2.0308   43.5268 C   0  0  1  0  0  0  0  0  0  0  0  0
   -0.1493   -2.9412   43.0174 N   0  3  0  0  0  0  0  0  0  0  0  0
    0.8190   -0.6128   42.9028 C   0  0  1  0  0  0  0  0  0  0  0  0
    0.6314   -0.6099   41.4661 O   0  0  0  0  0  0  0  0  0  0  0  0
   -0.0114    0.3979   44.9948 C   0  0  1  0  0  0  0  0  0  0  0  0
   -0.2170    0.1825   43.5717 O   0  0  0  0  0  0  0  0  0  0  0  0
   -0.9724    1.4739   45.5338 C   0  0  0  0  0  0  0  0  0  0  0  0
   -1.1402    1.4062   46.9987 N   0  3  0  0  0  0  0  0  0  0  0  0
  1  2  1  6  0  0  0
  1  3  1  0  0  0  0
  1 10  1  0  0  0  0
  3  4  1  6  0  0  0
  3  5  1  0  0  0  0
  5  6  1  1  0  0  0
  5  7  1  0  0  0  0
  7  8  1  6  0  0  0
  7  9  1  0  0  0  0
  9 10  1  0  0  0  0
  9 11  1  1  0  0  0
 11 12  1  0  0  0  0
 13 14  1  6  0  0  0
 13 15  1  0  0  0  0
 13 22  1  0  0  0  0
 15 16  1  1  0  0  0
 15 17  1  0  0  0  0
 17 18  1  1  0  0  0
 17 19  1  0  0  0  0
 19  2  1  1  0  0  0
 19 20  1  0  0  0  0
 20 21  1  6  0  0  0
 20 22  1  0  0  0  0
 23 18  1  6  0  0  0
 23 24  1  0  0  0  0
 23 28  1  0  0  0  0
 24 25  1  1  0  0  0
 24 26  1  0  0  0  0
 26 27  1  0  0  0  0
 26 38  1  1  0  0  0
 27 28  1  0  0  0  0
 27 29  1  6  0  0  0
 29 30  1  0  0  0  0
 31 32  1  6  0  0  0
 31 33  1  0  0  0  0
 31 39  1  0  0  0  0
 33 34  1  6  0  0  0
 33 35  1  0  0  0  0
 35 36  1  6  0  0  0
 35 37  1  0  0  0  0
 37 38  1  6  0  0  0
 37 40  1  0  0  0  0
 39 40  1  0  0  0  0
 39 41  1  1  0  0  0
 41 42  1  0  0  0  0
M  CHG  5   4   1  14   1  21   1  36   1  42   1
M  END
>  <CHROM.1>
133.65551737,80.73283720,177.19061925,-54.85946876,173.08800799,106.91965790
-64.65896234,-41.51271384,49.94594476,-40.57471254,110.66136851,-166.21323064
164.35135780,-125.29882867,151.91497821,169.97094243,-160.43554550,179.92897676
-6.95783816,-137.99024522,38.51474674,139.50101063,2.20929471,0.63472886
39.66163324,-0.98933447,-0.76689520,2.15626913

>  <Name>
1pbr

>  <RI>
0

>  <Rbt.Current_Directory>
/home/itssahil/PROJECTS/Mol_Feturizer/New_Systems/rnas/1pbr

>  <Rbt.Executable>
rbdock ($Id: //depot/dev/client3/rdock/2013.1/src/exe/rbdock.cxx#4 $)

>  <Rbt.Library>
libRbt.so (2013.1, Build901 2013/11/27)

>  <Rbt.Parameter_File>
/export/apps/rDock/src/rDock_2013.1_src/data/scripts/dock_solv.prm

>  <Rbt.Receptor>
prm/blind_docking_100.prm

>  <SCORE>
13.8927

>  <SCORE.INTER>
-11.2582

>  <SCORE.INTER.CONST>
1

>  <SCORE.INTER.POLAR>
-5.40416

>  <SCORE.INTER.ROT>
9

>  <SCORE.INTER.SOLV>
40.5953

>  <SCORE.INTER.VDW>
-12.6234

>  <SCORE.INTER.norm>
-0.268054

>  <SCORE.INTRA>
22.9498

>  <SCORE.INTRA.DIHEDRAL>
19.9989

>  <SCORE.INTRA.DIHEDRAL.0>
29.7866

>  <SCORE.INTRA.POLAR>
0.984091

>  <SCORE.INTRA.POLAR.0>
-0.984091

>  <SCORE.INTRA.REPUL>
-0.192142

>  <SCORE.INTRA.REPUL.0>
0.274115

>  <SCORE.INTRA.SOLV>
0.857369

>  <SCORE.INTRA.SOLV.lig_0>
-152.978

>  <SCORE.INTRA.VDW>
10.1364

>  <SCORE.INTRA.VDW.0>
-6.10719

>  <SCORE.INTRA.norm>
0.546423

>  <SCORE.RESTR>
2.20121

>  <SCORE.RESTR.CAVITY>
2.20121

>  <SCORE.RESTR.norm>
0.0524097

>  <SCORE.SYSTEM>
0

>  <SCORE.SYSTEM.CONST>
0

>  <SCORE.SYSTEM.DIHEDRAL>
0

>  <SCORE.SYSTEM.SOLV>
0

>  <SCORE.SYSTEM.norm>
0

>  <SCORE.heavy>
42

>  <SCORE.norm>
0.330779

>  <RMSD>
8.969

$$$$
1pbr
 OpenBabel11021811403D
libRbt.so/2013.1/901 2013/11/27
 42 45  0  0  0  0  0  0  0  0999 V2000
    0.3703    2.5367   36.9734 C   0  0  2  0  0  0  0  0  0  0  0  0
    0.6788    1.4062   36.1191 O   0  0  0  0  0  0  0  0  0  0  0  0
   -0.7230    3.4560   36.3116 C   0  0  2  0  0  0  0  0  0  0  0  0
   -1.8277    2.7182   35.6457 N   0  3  0  0  0  0  0  0  0  0  0  0
   -0.1141    4.3798   35.2399 C   0  0  1  0  0  0  0  0  0  0  0  0
   -1.0503    5.3791   34.8421 O   0  0  0  0  0  0  0  0  0  0  0  0
    1.1654    5.0554   35.7560 C   0  0  2  0  0  0  0  0  0  0  0  0
    1.6893    5.9380   34.7687 O   0  0  0  0  0  0  0  0  0  0  0  0
    2.1961    3.9991   36.2123 C   0  0  2  0  0  0  0  0  0  0  0  0
    1.5893    3.2620   37.2948 O   0  0  0  0  0  0  0  0  0  0  0  0
    3.5112    4.5856   36.7227 C   0  0  0  0  0  0  0  0  0  0  0  0
    4.5777    3.6559   36.5849 O   0  0  0  0  0  0  0  0  0  0  0  0
    3.5893   -1.6928   35.7549 C   0  0  1  0  0  0  0  0  0  0  0  0
    4.7856   -2.5526   35.8146 N   0  3  0  0  0  0  0  0  0  0  0  0
    2.8966   -1.5475   37.1436 C   0  0  2  0  0  0  0  0  0  0  0  0
    2.5049   -2.8251   37.6405 O   0  0  0  0  0  0  0  0  0  0  0  0
    1.6303   -0.6466   37.0522 C   0  0  1  0  0  0  0  0  0  0  0  0
    1.1279   -0.4106   38.4009 O   0  0  0  0  0  0  0  0  0  0  0  0
    1.9325    0.7241   36.3630 C   0  0  1  0  0  0  0  0  0  0  0  0
    2.6756    0.5660   34.9979 C   0  0  1  0  0  0  0  0  0  0  0  0
    3.0358    1.8792   34.4189 N   0  3  0  0  0  0  0  0  0  0  0  0
    3.9523   -0.2977   35.1673 C   0  0  0  0  0  0  0  0  0  0  0  0
    1.1910    0.9318   38.9803 C   0  0  1  0  0  0  0  0  0  0  0  0
   -0.0539    1.1479   39.8610 C   0  0  2  0  0  0  0  0  0  0  0  0
   -0.3653    2.5335   39.9763 O   0  0  0  0  0  0  0  0  0  0  0  0
    0.4768    0.5593   41.1770 C   0  0  1  0  0  0  0  0  0  0  0  0
    1.8875    1.1210   41.2387 C   0  0  2  0  0  0  0  0  0  0  0  0
    2.3049    1.0340   39.8848 O   0  0  0  0  0  0  0  0  0  0  0  0
    2.8575    0.3532   42.1461 C   0  0  0  0  0  0  0  0  0  0  0  0
    2.7717    0.8430   43.4761 O   0  0  0  0  0  0  0  0  0  0  0  0
    0.0648   -1.4735   45.9598 C   0  0  1  0  0  0  0  0  0  0  0  0
   -1.1808   -2.1470   45.7871 O   0  0  0  0  0  0  0  0  0  0  0  0
    1.0157   -1.8399   44.7863 C   0  0  2  0  0  0  0  0  0  0  0  0
    2.3459   -1.4789   45.1508 O   0  0  0  0  0  0  0  0  0  0  0  0
    0.6724   -1.1748   43.4131 C   0  0  1  0  0  0  0  0  0  0  0  0
   -0.3445   -1.9739   42.6944 N   0  3  0  0  0  0  0  0  0  0  0  0
    0.2610    0.3119   43.5779 C   0  0  1  0  0  0  0  0  0  0  0  0
   -0.2712    0.9143   42.3725 O   0  0  0  0  0  0  0  0  0  0  0  0
   -0.1543    0.0599   45.9969 C   0  0  1  0  0  0  0  0  0  0  0  0
   -0.6726    0.4633   44.6998 O   0  0  0  0  0  0  0  0  0  0  0  0
   -1.0835    0.5292   47.1319 C   0  0  0  0  0  0  0  0  0  0  0  0
   -1.7769    1.7931   46.8152 N   0  3  0  0  0  0  0  0  0  0  0  0
  1  2  1  6  0  0  0
  1  3  1  0  0  0  0
  1 10  1  0  0  0  0
  3  4  1  6  0  0  0
  3  5  1  0  0  0  0
  5  6  1  1  0  0  0
  5  7  1  0  0  0  0
  7  8  1  6  0  0  0
  7  9  1  0  0  0  0
  9 10  1  0  0  0  0
  9 11  1  1  0  0  0
 11 12  1  0  0  0  0
 13 14  1  1  0  0  0
 13 15  1  0  0  0  0
 13 22  1  0  0  0  0
 15 16  1  6  0  0  0
 15 17  1  0  0  0  0
 17 18  1  1  0  0  0
 17 19  1  0  0  0  0
 19  2  1  6  0  0  0
 19 20  1  0  0  0  0
 20 21  1  1  0  0  0
 20 22  1  0  0  0  0
 23 18  1  1  0  0  0
 23 24  1  0  0  0  0
 23 28  1  0  0  0  0
 24 25  1  1  0  0  0
 24 26  1  0  0  0  0
 26 27  1  0  0  0  0
 26 38  1  1  0  0  0
 27 28  1  0  0  0  0
 27 29  1  1  0  0  0
 29 30  1  0  0  0  0
 31 32  1  6  0  0  0
 31 33  1  0  0  0  0
 31 39  1  0  0  0  0
 33 34  1  1  0  0  0
 33 35  1  0  0  0  0
 35 36  1  1  0  0  0
 35 37  1  0  0  0  0
 37 38  1  6  0  0  0
 37 40  1  0  0  0  0
 39 40  1  0  0  0  0
 39 41  1  1  0  0  0
 41 42  1  0  0  0  0
M  CHG  5   4   1  14   1  21   1  36   1  42   1
M  END
>  <CHROM.1>
160.63256089,106.35224436,165.53245691,67.17372651,60.94913363,-155.01912105
168.87322556,-48.03245821,-178.05095681,112.40426346,144.72466843,177.29445297
-61.99100759,178.96790027,-87.52102547,-52.12274836,-61.73970486,-83.80107126
-118.44354832,-42.60164756,-153.13340961,140.94552397,1.18586421,1.01887193
39.54158757,1.25265992,0.96834851,-0.99492832

>  <Name>
1pbr

>  <RI>
0

>  <Rbt.Current_Directory>
/home/itssahil/PROJECTS/Mol_Feturizer/New_Systems/rnas/1pbr

>  <Rbt.Executable>
rbdock ($Id: //depot/dev/client3/rdock/2013.1/src/exe/rbdock.cxx#4 $)

>  <Rbt.Library>
libRbt.so (2013.1, Build901 2013/11/27)

>  <Rbt.Parameter_File>
/export/apps/rDock/src/rDock_2013.1_src/data/scripts/dock_solv.prm

>  <Rbt.Receptor>
prm/blind_docking_100.prm

>  <SCORE>
-33.6902

>  <SCORE.INTER>
-44.2829

>  <SCORE.INTER.CONST>
1

>  <SCORE.INTER.POLAR>
-5.79748

>  <SCORE.INTER.ROT>
9

>  <SCORE.INTER.SOLV>
47.7535

>  <SCORE.INTER.VDW>
-35.7148

>  <SCORE.INTER.norm>
-1.05436

>  <SCORE.INTRA>
9.24614

>  <SCORE.INTRA.DIHEDRAL>
8.83949

>  <SCORE.INTRA.DIHEDRAL.0>
29.7866

>  <SCORE.INTRA.POLAR>
-1.37107

>  <SCORE.INTRA.POLAR.0>
-0.984091

>  <SCORE.INTRA.REPUL>
-0.274115

>  <SCORE.INTRA.REPUL.0>
0.274115

>  <SCORE.INTRA.SOLV>
4.71117

>  <SCORE.INTRA.SOLV.lig_0>
-152.978

>  <SCORE.INTRA.VDW>
8.50302

>  <SCORE.INTRA.VDW.0>
-6.10719

>  <SCORE.INTRA.norm>
0.220146

>  <SCORE.RESTR>
1.34658

>  <SCORE.RESTR.CAVITY>
1.34658

>  <SCORE.RESTR.norm>
0.0320614

>  <SCORE.SYSTEM>
0

>  <SCORE.SYSTEM.CONST>
0

>  <SCORE.SYSTEM.DIHEDRAL>
0

>  <SCORE.SYSTEM.SOLV>
0

>  <SCORE.SYSTEM.norm>
0

>  <SCORE.heavy>
42

>  <SCORE.norm>
-0.802148

>  <RMSD>
8.977

$$$$
1pbr
 OpenBabel11021811403D
libRbt.so/2013.1/901 2013/11/27
 42 45  0  0  0  0  0  0  0  0999 V2000
    1.4045    2.9144   36.7274 C   0  0  2  0  0  0  0  0  0  0  0  0
    2.5934    3.0576   37.5454 O   0  0  0  0  0  0  0  0  0  0  0  0
    1.6939    3.3422   35.2403 C   0  0  2  0  0  0  0  0  0  0  0  0
    3.0058    2.8860   34.7120 N   0  3  0  0  0  0  0  0  0  0  0  0
    1.6721    4.8736   35.0762 C   0  0  1  0  0  0  0  0  0  0  0  0
    1.6705    5.2348   33.6967 O   0  0  0  0  0  0  0  0  0  0  0  0
    0.4430    5.4851   35.7655 C   0  0  2  0  0  0  0  0  0  0  0  0
    0.4166    6.8949   35.5662 O   0  0  0  0  0  0  0  0  0  0  0  0
    0.4049    5.0980   37.2606 C   0  0  2  0  0  0  0  0  0  0  0  0
    0.3039    3.6593   37.3184 O   0  0  0  0  0  0  0  0  0  0  0  0
   -0.7782    5.6830   38.0301 C   0  0  0  0  0  0  0  0  0  0  0  0
   -1.9822    4.9903   37.7284 O   0  0  0  0  0  0  0  0  0  0  0  0
    4.8428   -0.2735   36.1129 C   0  0  1  0  0  0  0  0  0  0  0  0
    5.7298   -1.4384   35.9391 N   0  3  0  0  0  0  0  0  0  0  0  0
    3.6089   -0.5994   37.0079 C   0  0  2  0  0  0  0  0  0  0  0  0
    2.8468   -1.6608   36.4375 O   0  0  0  0  0  0  0  0  0  0  0  0
    2.6818    0.6413   37.1659 C   0  0  1  0  0  0  0  0  0  0  0  0
    1.6457    0.3273   38.1431 O   0  0  0  0  0  0  0  0  0  0  0  0
    3.4700    1.9084   37.6331 C   0  0  1  0  0  0  0  0  0  0  0  0
    4.7348    2.1919   36.7610 C   0  0  1  0  0  0  0  0  0  0  0  0
    5.5133    3.3353   37.2864 N   0  3  0  0  0  0  0  0  0  0  0  0
    5.6397    0.9350   36.6855 C   0  0  0  0  0  0  0  0  0  0  0  0
    1.0424    1.3974   38.9386 C   0  0  1  0  0  0  0  0  0  0  0  0
   -0.2036    0.8395   39.6515 C   0  0  2  0  0  0  0  0  0  0  0  0
   -1.1329    1.8785   39.9466 O   0  0  0  0  0  0  0  0  0  0  0  0
    0.4701    0.2850   40.9158 C   0  0  1  0  0  0  0  0  0  0  0  0
    1.4485    1.3912   41.2744 C   0  0  2  0  0  0  0  0  0  0  0  0
    1.9293    1.7918   40.0004 O   0  0  0  0  0  0  0  0  0  0  0  0
    2.6153    0.9650   42.1748 C   0  0  0  0  0  0  0  0  0  0  0  0
    3.6643    1.9189   42.0973 O   0  0  0  0  0  0  0  0  0  0  0  0
    0.4254   -1.1041   46.1231 C   0  0  1  0  0  0  0  0  0  0  0  0
   -0.9164   -0.9485   46.5816 O   0  0  0  0  0  0  0  0  0  0  0  0
    0.4803   -2.2429   45.0668 C   0  0  2  0  0  0  0  0  0  0  0  0
    1.8394   -2.6390   44.8973 O   0  0  0  0  0  0  0  0  0  0  0  0
   -0.1184   -1.8872   43.6665 C   0  0  1  0  0  0  0  0  0  0  0  0
   -1.5821   -2.1032   43.6630 N   0  3  0  0  0  0  0  0  0  0  0  0
    0.2786   -0.4572   43.2146 C   0  0  1  0  0  0  0  0  0  0  0  0
   -0.4193    0.0029   42.0312 O   0  0  0  0  0  0  0  0  0  0  0  0
    0.9351    0.2175   45.4952 C   0  0  1  0  0  0  0  0  0  0  0  0
    0.1207    0.4920   44.3225 O   0  0  0  0  0  0  0  0  0  0  0  0
    0.9243    1.4133   46.4658 C   0  0  0  0  0  0  0  0  0  0  0  0
    1.8875    1.2572   47.5733 N   0  3  0  0  0  0  0  0  0  0  0  0
  1  2  1  1  0  0  0
  1  3  1  0  0  0  0
  1 10  1  0  0  0  0
  3  4  1  1  0  0  0
  3  5  1  0  0  0  0
  5  6  1  6  0  0  0
  5  7  1  0  0  0  0
  7  8  1  1  0  0  0
  7  9  1  0  0  0  0
  9 10  1  0  0  0  0
  9 11  1  6  0  0  0
 11 12  1  0  0  0  0
 13 14  1  1  0  0  0
 13 15  1  0  0  0  0
 13 22  1  0  0  0  0
 15 16  1  6  0  0  0
 15 17  1  0  0  0  0
 17 18  1  1  0  0  0
 17 19  1  0  0  0  0
 19  2  1  6  0  0  0
 19 20  1  0  0  0  0
 20 21  1  1  0  0  0
 20 22  1  0  0  0  0
 23 18  1  6  0  0  0
 23 24  1  0  0  0  0
 23 28  1  0  0  0  0
 24 25  1  1  0  0  0
 24 26  1  0  0  0  0
 26 27  1  0  0  0  0
 26 38  1  1  0  0  0
 27 28  1  0  0  0  0
 27 29  1  1  0  0  0
 29 30  1  0  0  0  0
 31 32  1  6  0  0  0
 31 33  1  0  0  0  0
 31 39  1  0  0  0  0
 33 34  1  6  0  0  0
 33 35  1  0  0  0  0
 35 36  1  1  0  0  0
 35 37  1  0  0  0  0
 37 38  1  6  0  0  0
 37 40  1  0  0  0  0
 39 40  1  0  0  0  0
 39 41  1  1  0  0  0
 41 42  1  0  0  0  0
M  CHG  5   4   1  14   1  21   1  36   1  42   1
M  END
>  <CHROM.1>
-90.06790274,-17.40942826,166.08824212,50.36480256,63.07906596,75.61329744
-51.80161530,-56.25051893,-49.22551811,151.84426538,168.06860914,95.51617860
-74.75410247,-177.26276674,161.42038471,-171.42640356,179.86304310,-169.80666133
-178.93115720,-118.33016314,66.53899608,93.71631245,1.55023983,1.48408435
39.72209459,1.32408588,0.76561438,-0.98677988

>  <Name>
1pbr

>  <RI>
0

>  <Rbt.Current_Directory>
/home/itssahil/PROJECTS/Mol_Feturizer/New_Systems/rnas/1pbr

>  <Rbt.Executable>
rbdock ($Id: //depot/dev/client3/rdock/2013.1/src/exe/rbdock.cxx#4 $)

>  <Rbt.Library>
libRbt.so (2013.1, Build901 2013/11/27)

>  <Rbt.Parameter_File>
/export/apps/rDock/src/rDock_2013.1_src/data/scripts/dock_solv.prm

>  <Rbt.Receptor>
prm/blind_docking_60.prm

>  <SCORE>
-22.2592

>  <SCORE.INTER>
-38.4005

>  <SCORE.INTER.CONST>
1

>  <SCORE.INTER.POLAR>
-5.61781

>  <SCORE.INTER.ROT>
9

>  <SCORE.INTER.SOLV>
46.9379

>  <SCORE.INTER.VDW>
-32.1202

>  <SCORE.INTER.norm>
-0.914296

>  <SCORE.INTRA>
14.3891

>  <SCORE.INTRA.DIHEDRAL>
1.8476

>  <SCORE.INTRA.DIHEDRAL.0>
29.7866

>  <SCORE.INTRA.POLAR>
0.978386

>  <SCORE.INTRA.POLAR.0>
-0.984091

>  <SCORE.INTRA.REPUL>
-0.274115

>  <SCORE.INTRA.REPUL.0>
0.274115

>  <SCORE.INTRA.SOLV>
1.48305

>  <SCORE.INTRA.SOLV.lig_0>
-152.978

>  <SCORE.INTRA.VDW>
10.7678

>  <SCORE.INTRA.VDW.0>
-6.10719

>  <SCORE.INTRA.norm>
0.342597

>  <SCORE.RESTR>
1.7522

>  <SCORE.RESTR.CAVITY>
1.7522

>  <SCORE.RESTR.norm>
0.041719

>  <SCORE.SYSTEM>
0

>  <SCORE.SYSTEM.CONST>
0

>  <SCORE.SYSTEM.DIHEDRAL>
0

>  <SCORE.SYSTEM.SOLV>
0

>  <SCORE.SYSTEM.norm>
0

>  <SCORE.heavy>
42

>  <SCORE.norm>
-0.52998

>  <RMSD>
8.993

$$$$
1pbr
 OpenBabel11021811403D
libRbt.so/2013.1/901 2013/11/27
 42 45  0  0  0  0  0  0  0  0999 V2000
    0.4893    3.0352   38.0222 C   0  0  2  0  0  0  0  0  0  0  0  0
    1.0208    1.8387   37.3985 O   0  0  0  0  0  0  0  0  0  0  0  0
   -1.0694    2.9221   38.2113 C   0  0  2  0  0  0  0  0  0  0  0  0
   -1.5398    1.5880   38.6666 N   0  3  0  0  0  0  0  0  0  0  0  0
   -1.8228    3.2209   36.9015 C   0  0  1  0  0  0  0  0  0  0  0  0
   -3.2194    3.3751   37.1448 O   0  0  0  0  0  0  0  0  0  0  0  0
   -1.2784    4.4902   36.2289 C   0  0  2  0  0  0  0  0  0  0  0  0
   -2.0151    4.7746   35.0438 O   0  0  0  0  0  0  0  0  0  0  0  0
    0.2386    4.3629   35.9666 C   0  0  2  0  0  0  0  0  0  0  0  0
    0.8746    4.2078   37.2529 O   0  0  0  0  0  0  0  0  0  0  0  0
    0.8603    5.5771   35.2786 C   0  0  0  0  0  0  0  0  0  0  0  0
    2.2769    5.4713   35.2281 O   0  0  0  0  0  0  0  0  0  0  0  0
    4.7726   -0.1491   36.9738 C   0  0  1  0  0  0  0  0  0  0  0  0
    6.1543   -0.6487   37.0972 N   0  3  0  0  0  0  0  0  0  0  0  0
    3.8699   -0.6108   38.1576 C   0  0  2  0  0  0  0  0  0  0  0  0
    3.8266   -2.0342   38.2247 O   0  0  0  0  0  0  0  0  0  0  0  0
    2.4144   -0.0819   37.9982 C   0  0  1  0  0  0  0  0  0  0  0  0
    1.6679   -0.3993   39.2102 O   0  0  0  0  0  0  0  0  0  0  0  0
    2.3734    1.4617   37.7519 C   0  0  1  0  0  0  0  0  0  0  0  0
    3.3240    1.9175   36.5989 C   0  0  1  0  0  0  0  0  0  0  0  0
    3.3389    3.3902   36.4557 N   0  3  0  0  0  0  0  0  0  0  0  0
    4.7659    1.4022   36.8432 C   0  0  0  0  0  0  0  0  0  0  0  0
    1.4842    0.6202   40.2440 C   0  0  1  0  0  0  0  0  0  0  0  0
    0.8443   -0.0400   41.4797 C   0  0  2  0  0  0  0  0  0  0  0  0
    0.1252    0.9145   42.2554 O   0  0  0  0  0  0  0  0  0  0  0  0
    2.1218   -0.5197   42.1853 C   0  0  1  0  0  0  0  0  0  0  0  0
    3.0496    0.6731   42.0239 C   0  0  2  0  0  0  0  0  0  0  0  0
    2.7596    1.1026   40.7026 O   0  0  0  0  0  0  0  0  0  0  0  0
    4.5450    0.3618   42.1674 C   0  0  0  0  0  0  0  0  0  0  0  0
    4.8387   -0.0125   43.5052 O   0  0  0  0  0  0  0  0  0  0  0  0
   -1.3477   -2.5682   45.7738 C   0  0  1  0  0  0  0  0  0  0  0  0
   -0.8428   -2.2308   47.0645 O   0  0  0  0  0  0  0  0  0  0  0  0
   -1.6318   -1.2657   44.9749 C   0  0  2  0  0  0  0  0  0  0  0  0
   -2.4665   -1.5875   43.8648 O   0  0  0  0  0  0  0  0  0  0  0  0
   -0.3659   -0.5118   44.4505 C   0  0  1  0  0  0  0  0  0  0  0  0
    0.1736    0.3798   45.5006 N   0  3  0  0  0  0  0  0  0  0  0  0
    0.6986   -1.4910   43.8892 C   0  0  1  0  0  0  0  0  0  0  0  0
    1.9724   -0.8693   43.5889 O   0  0  0  0  0  0  0  0  0  0  0  0
   -0.3218   -3.4397   45.0066 C   0  0  1  0  0  0  0  0  0  0  0  0
    0.8695   -2.6342   44.7931 O   0  0  0  0  0  0  0  0  0  0  0  0
    0.0266   -4.7617   45.7160 C   0  0  0  0  0  0  0  0  0  0  0  0
   -1.1483   -5.6354   45.9024 N   0  3  0  0  0  0  0  0  0  0  0  0
  1  2  1  6  0  0  0
  1  3  1  0  0  0  0
  1 10  1  0  0  0  0
  3  4  1  6  0  0  0
  3  5  1  0  0  0  0
  5  6  1  1  0  0  0
  5  7  1  0  0  0  0
  7  8  1  6  0  0  0
  7  9  1  0  0  0  0
  9 10  1  0  0  0  0
  9 11  1  1  0  0  0
 11 12  1  0  0  0  0
 13 14  1  1  0  0  0
 13 15  1  0  0  0  0
 13 22  1  0  0  0  0
 15 16  1  6  0  0  0
 15 17  1  0  0  0  0
 17 18  1  1  0  0  0
 17 19  1  0  0  0  0
 19  2  1  6  0  0  0
 19 20  1  0  0  0  0
 20 21  1  1  0  0  0
 20 22  1  0  0  0  0
 23 18  1  6  0  0  0
 23 24  1  0  0  0  0
 23 28  1  0  0  0  0
 24 25  1  1  0  0  0
 24 26  1  0  0  0  0
 26 27  1  0  0  0  0
 26 38  1  1  0  0  0
 27 28  1  0  0  0  0
 27 29  1  6  0  0  0
 29 30  1  0  0  0  0
 31 32  1  1  0  0  0
 31 33  1  0  0  0  0
 31 39  1  0  0  0  0
 33 34  1  6  0  0  0
 33 35  1  0  0  0  0
 35 36  1  1  0  0  0
 35 37  1  0  0  0  0
 37 38  1  1  0  0  0
 37 40  1  0  0  0  0
 39 40  1  0  0  0  0
 39 41  1  1  0  0  0
 41 42  1  0  0  0  0
M  CHG  5   4   1  14   1  21   1  36   1  42   1
M  END
>  <CHROM.1>
-149.22224805,136.37129413,147.87711044,65.03124360,-63.94933237,172.23738527
-100.35139203,-162.71841337,-52.19236523,98.54673749,-172.02463756,-147.45426586
48.81200298,35.76967026,-67.38433675,54.49799200,-70.60402920,-70.15694712
81.02598228,-97.36444846,60.69623537,-52.58485657,1.10269249,0.60577741,40.29863617
1.45296318,0.32183754,-0.94895577

>  <Name>
1pbr

>  <RI>
0

>  <Rbt.Current_Directory>
/home/itssahil/PROJECTS/Mol_Feturizer/New_Systems/rnas/1pbr

>  <Rbt.Executable>
rbdock ($Id: //depot/dev/client3/rdock/2013.1/src/exe/rbdock.cxx#4 $)

>  <Rbt.Library>
libRbt.so (2013.1, Build901 2013/11/27)

>  <Rbt.Parameter_File>
/export/apps/rDock/src/rDock_2013.1_src/data/scripts/dock_solv.prm

>  <Rbt.Receptor>
prm/blind_docking_100.prm

>  <SCORE>
-12.5139

>  <SCORE.INTER>
-23.0842

>  <SCORE.INTER.CONST>
1

>  <SCORE.INTER.POLAR>
-4.41687

>  <SCORE.INTER.ROT>
9

>  <SCORE.INTER.SOLV>
32.4563

>  <SCORE.INTER.VDW>
-21.0853

>  <SCORE.INTER.norm>
-0.549624

>  <SCORE.INTRA>
7.54274

>  <SCORE.INTRA.DIHEDRAL>
7.37118

>  <SCORE.INTRA.DIHEDRAL.0>
29.7866

>  <SCORE.INTRA.POLAR>
-0.397734

>  <SCORE.INTRA.POLAR.0>
-0.984091

>  <SCORE.INTRA.REPUL>
-0.271876

>  <SCORE.INTRA.REPUL.0>
0.274115

>  <SCORE.INTRA.SOLV>
6.09114

>  <SCORE.INTRA.SOLV.lig_0>
-152.978

>  <SCORE.INTRA.VDW>
3.52326

>  <SCORE.INTRA.VDW.0>
-6.10719

>  <SCORE.INTRA.norm>
0.179589

>  <SCORE.RESTR>
3.02763

>  <SCORE.RESTR.CAVITY>
3.02763

>  <SCORE.RESTR.norm>
0.0720863

>  <SCORE.SYSTEM>
0

>  <SCORE.SYSTEM.CONST>
0

>  <SCORE.SYSTEM.DIHEDRAL>
0

>  <SCORE.SYSTEM.SOLV>
0

>  <SCORE.SYSTEM.norm>
0

>  <SCORE.heavy>
42

>  <SCORE.norm>
-0.297949

>  <RMSD>
8.998

$$$$
1pbr
 OpenBabel11021811403D
libRbt.so/2013.1/901 2013/11/27
 42 45  0  0  0  0  0  0  0  0999 V2000
    4.5506   -0.8293   36.6405 C   0  0  2  0  0  0  0  0  0  0  0  0
    3.8892    0.1009   37.5352 O   0  0  0  0  0  0  0  0  0  0  0  0
    5.1006   -2.0730   37.4337 C   0  0  2  0  0  0  0  0  0  0  0  0
    4.1826   -2.5911   38.4811 N   0  3  0  0  0  0  0  0  0  0  0  0
    6.4281   -1.7501   38.1452 C   0  0  1  0  0  0  0  0  0  0  0  0
    7.0437   -2.9404   38.6324 O   0  0  0  0  0  0  0  0  0  0  0  0
    7.3977   -1.0233   37.2011 C   0  0  2  0  0  0  0  0  0  0  0  0
    8.6339   -0.7723   37.8622 O   0  0  0  0  0  0  0  0  0  0  0  0
    6.7541    0.2644   36.6408 C   0  0  2  0  0  0  0  0  0  0  0  0
    5.5897   -0.1415   35.8906 O   0  0  0  0  0  0  0  0  0  0  0  0
    7.6605    1.0629   35.7055 C   0  0  0  0  0  0  0  0  0  0  0  0
    7.9422    0.3363   34.5167 O   0  0  0  0  0  0  0  0  0  0  0  0
    0.6949    2.7569   36.5609 C   0  0  1  0  0  0  0  0  0  0  0  0
   -0.5826    3.3864   36.1791 N   0  3  0  0  0  0  0  0  0  0  0  0
    0.6126    2.0472   37.9462 C   0  0  2  0  0  0  0  0  0  0  0  0
    0.2521    2.9798   38.9625 O   0  0  0  0  0  0  0  0  0  0  0  0
    1.9757    1.4020   38.3326 C   0  0  1  0  0  0  0  0  0  0  0  0
    1.7912    0.6145   39.5462 O   0  0  0  0  0  0  0  0  0  0  0  0
    2.5343    0.4836   37.1970 C   0  0  1  0  0  0  0  0  0  0  0  0
    2.5601    1.1894   35.8035 C   0  0  1  0  0  0  0  0  0  0  0  0
    2.9985    0.2660   34.7336 N   0  3  0  0  0  0  0  0  0  0  0  0
    1.1627    1.7648   35.4562 C   0  0  0  0  0  0  0  0  0  0  0  0
    1.4618    1.2805   40.8071 C   0  0  1  0  0  0  0  0  0  0  0  0
    1.0045    0.2163   41.8222 C   0  0  2  0  0  0  0  0  0  0  0  0
    0.1513    0.7854   42.8113 O   0  0  0  0  0  0  0  0  0  0  0  0
    2.3754   -0.1772   42.3929 C   0  0  1  0  0  0  0  0  0  0  0  0
    3.0584    1.1705   42.5564 C   0  0  2  0  0  0  0  0  0  0  0  0
    2.6422    1.8618   41.3886 O   0  0  0  0  0  0  0  0  0  0  0  0
    4.5900    1.1223   42.6301 C   0  0  0  0  0  0  0  0  0  0  0  0
    5.1277    0.7635   41.3657 O   0  0  0  0  0  0  0  0  0  0  0  0
    2.1890    0.5029   47.7422 C   0  0  1  0  0  0  0  0  0  0  0  0
    2.1198   -0.7974   48.3246 O   0  0  0  0  0  0  0  0  0  0  0  0
    3.5460    0.6645   47.0019 C   0  0  2  0  0  0  0  0  0  0  0  0
    3.7648    2.0513   46.7538 O   0  0  0  0  0  0  0  0  0  0  0  0
    3.6690   -0.1138   45.6510 C   0  0  1  0  0  0  0  0  0  0  0  0
    4.0947   -1.5090   45.8982 N   0  3  0  0  0  0  0  0  0  0  0  0
    2.3679   -0.0229   44.8111 C   0  0  1  0  0  0  0  0  0  0  0  0
    2.3486   -0.8972   43.6560 O   0  0  0  0  0  0  0  0  0  0  0  0
    1.0209    0.7076   46.7450 C   0  0  1  0  0  0  0  0  0  0  0  0
    1.1931   -0.2466   45.6616 O   0  0  0  0  0  0  0  0  0  0  0  0
   -0.3742    0.5711   47.3830 C   0  0  0  0  0  0  0  0  0  0  0  0
   -1.3670    1.4840   46.7834 N   0  3  0  0  0  0  0  0  0  0  0  0
  1  2  1  1  0  0  0
  1  3  1  0  0  0  0
  1 10  1  0  0  0  0
  3  4  1  1  0  0  0
  3  5  1  0  0  0  0
  5  6  1  6  0  0  0
  5  7  1  0  0  0  0
  7  8  1  1  0  0  0
  7  9  1  0  0  0  0
  9 10  1  0  0  0  0
  9 11  1  6  0  0  0
 11 12  1  0  0  0  0
 13 14  1  6  0  0  0
 13 15  1  0  0  0  0
 13 22  1  0  0  0  0
 15 16  1  1  0  0  0
 15 17  1  0  0  0  0
 17 18  1  1  0  0  0
 17 19  1  0  0  0  0
 19  2  1  1  0  0  0
 19 20  1  0  0  0  0
 20 21  1  6  0  0  0
 20 22  1  0  0  0  0
 23 18  1  6  0  0  0
 23 24  1  0  0  0  0
 23 28  1  0  0  0  0
 24 25  1  1  0  0  0
 24 26  1  0  0  0  0
 26 27  1  0  0  0  0
 26 38  1  1  0  0  0
 27 28  1  0  0  0  0
 27 29  1  6  0  0  0
 29 30  1  0  0  0  0
 31 32  1  6  0  0  0
 31 33  1  0  0  0  0
 31 39  1  0  0  0  0
 33 34  1  6  0  0  0
 33 35  1  0  0  0  0
 35 36  1  1  0  0  0
 35 37  1  0  0  0  0
 37 38  1  6  0  0  0
 37 40  1  0  0  0  0
 39 40  1  0  0  0  0
 39 41  1  1  0  0  0
 41 42  1  0  0  0  0
M  CHG  5   4   1  14   1  21   1  36   1  42   1
M  END
>  <CHROM.1>
-126.23016985,176.03042405,38.03776233,-65.85700442,73.27398089,65.37149134
-67.74658696,-177.33153875,-56.52470814,-66.18027031,166.85847896,-88.77068608
174.04939176,-88.82894963,69.62181309,-66.74074031,-74.20614636,168.57919856
42.43425988,-112.66060348,145.35765698,-76.80606409,3.20358683,0.36296230
40.67064492,-1.22637583,-0.44103353,1.69876572

>  <Name>
1pbr

>  <RI>
0

>  <Rbt.Current_Directory>
/home/itssahil/PROJECTS/Mol_Feturizer/New_Systems/rnas/1pbr

>  <Rbt.Executable>
rbdock ($Id: //depot/dev/client3/rdock/2013.1/src/exe/rbdock.cxx#4 $)

>  <Rbt.Library>
libRbt.so (2013.1, Build901 2013/11/27)

>  <Rbt.Parameter_File>
/export/apps/rDock/src/rDock_2013.1_src/data/scripts/dock_solv.prm

>  <Rbt.Receptor>
prm/blind_docking_60.prm

>  <SCORE>
-32.2308

>  <SCORE.INTER>
-37.0311

>  <SCORE.INTER.CONST>
1

>  <SCORE.INTER.POLAR>
-3.68598

>  <SCORE.INTER.ROT>
9

>  <SCORE.INTER.SOLV>
34.4242

>  <SCORE.INTER.VDW>
-33.4755

>  <SCORE.INTER.norm>
-0.881692

>  <SCORE.INTRA>
4.53778

>  <SCORE.INTRA.DIHEDRAL>
0.625327

>  <SCORE.INTRA.DIHEDRAL.0>
29.7866

>  <SCORE.INTRA.POLAR>
0.10885

>  <SCORE.INTRA.POLAR.0>
-0.984091

>  <SCORE.INTRA.REPUL>
-0.274115

>  <SCORE.INTRA.REPUL.0>
0.274115

>  <SCORE.INTRA.SOLV>
-0.0655639

>  <SCORE.INTRA.SOLV.lig_0>
-152.978

>  <SCORE.INTRA.VDW>
5.25839

>  <SCORE.INTRA.VDW.0>
-6.10719

>  <SCORE.INTRA.norm>
0.108042

>  <SCORE.RESTR>
0.262485

>  <SCORE.RESTR.CAVITY>
0.262485

>  <SCORE.RESTR.norm>
0.00624964

>  <SCORE.SYSTEM>
0

>  <SCORE.SYSTEM.CONST>
0

>  <SCORE.SYSTEM.DIHEDRAL>
0

>  <SCORE.SYSTEM.SOLV>
0

>  <SCORE.SYSTEM.norm>
0

>  <SCORE.heavy>
42

>  <SCORE.norm>
-0.7674

>  <RMSD>
9.005

$$$$
1pbr
 OpenBabel11021811403D
libRbt.so/2013.1/901 2013/11/27
 42 45  0  0  0  0  0  0  0  0999 V2000
    2.4539    3.4702   36.2900 C   0  0  2  0  0  0  0  0  0  0  0  0
    2.7243    2.9092   37.5997 O   0  0  0  0  0  0  0  0  0  0  0  0
    1.3446    4.5838   36.3768 C   0  0  2  0  0  0  0  0  0  0  0  0
    1.4695    5.4880   37.5494 N   0  3  0  0  0  0  0  0  0  0  0  0
   -0.0675    3.9731   36.4518 C   0  0  1  0  0  0  0  0  0  0  0  0
   -1.0633    4.9762   36.2636 O   0  0  0  0  0  0  0  0  0  0  0  0
   -0.2484    2.8699   35.3983 C   0  0  2  0  0  0  0  0  0  0  0  0
   -1.5722    2.3479   35.4536 O   0  0  0  0  0  0  0  0  0  0  0  0
    0.8274    1.7737   35.5635 C   0  0  2  0  0  0  0  0  0  0  0  0
    2.1074    2.4085   35.3583 O   0  0  0  0  0  0  0  0  0  0  0  0
    0.7087    0.6229   34.5656 C   0  0  0  0  0  0  0  0  0  0  0  0
    1.8899   -0.1677   34.5482 O   0  0  0  0  0  0  0  0  0  0  0  0
    4.8112   -0.4873   36.0777 C   0  0  1  0  0  0  0  0  0  0  0  0
    5.6630   -1.6718   35.8651 N   0  3  0  0  0  0  0  0  0  0  0  0
    3.6340   -0.7749   37.0580 C   0  0  2  0  0  0  0  0  0  0  0  0
    2.8161   -1.8300   36.5576 O   0  0  0  0  0  0  0  0  0  0  0  0
    2.7426    0.4860   37.2562 C   0  0  1  0  0  0  0  0  0  0  0  0
    1.7684    0.2077   38.3053 O   0  0  0  0  0  0  0  0  0  0  0  0
    3.5834    1.7447   37.6485 C   0  0  1  0  0  0  0  0  0  0  0  0
    4.7923    1.9896   36.6896 C   0  0  1  0  0  0  0  0  0  0  0  0
    5.6250    3.1258   37.1427 N   0  3  0  0  0  0  0  0  0  0  0  0
    5.6668    0.7142   36.5755 C   0  0  0  0  0  0  0  0  0  0  0  0
    1.1032    1.3125   38.9972 C   0  0  1  0  0  0  0  0  0  0  0  0
   -0.1350    0.7619   39.7291 C   0  0  2  0  0  0  0  0  0  0  0  0
   -1.1129    1.7807   39.9186 O   0  0  0  0  0  0  0  0  0  0  0  0
    0.5314    0.3424   41.0481 C   0  0  1  0  0  0  0  0  0  0  0  0
    1.4547    1.5154   41.3331 C   0  0  2  0  0  0  0  0  0  0  0  0
    1.9481    1.8304   40.0400 O   0  0  0  0  0  0  0  0  0  0  0  0
    2.6168    1.2150   42.2886 C   0  0  0  0  0  0  0  0  0  0  0  0
    3.4888    0.2558   41.7090 O   0  0  0  0  0  0  0  0  0  0  0  0
    0.3942   -0.8149   46.3165 C   0  0  1  0  0  0  0  0  0  0  0  0
   -0.9378   -1.2361   46.6051 O   0  0  0  0  0  0  0  0  0  0  0  0
    1.0192   -1.7694   45.2611 C   0  0  2  0  0  0  0  0  0  0  0  0
    2.4322   -1.5792   45.2581 O   0  0  0  0  0  0  0  0  0  0  0  0
    0.4853   -1.5959   43.8014 C   0  0  1  0  0  0  0  0  0  0  0  0
   -0.7568   -2.3771   43.6119 N   0  3  0  0  0  0  0  0  0  0  0  0
    0.3185   -0.1012   43.4209 C   0  0  1  0  0  0  0  0  0  0  0  0
   -0.3713    0.1148   42.1653 O   0  0  0  0  0  0  0  0  0  0  0  0
    0.3929    0.6365   45.7741 C   0  0  1  0  0  0  0  0  0  0  0  0
   -0.3292    0.6355   44.5122 O   0  0  0  0  0  0  0  0  0  0  0  0
   -0.2057    1.6660   46.7507 C   0  0  0  0  0  0  0  0  0  0  0  0
   -1.5424    1.2767   47.2409 N   0  3  0  0  0  0  0  0  0  0  0  0
  1  2  1  1  0  0  0
  1  3  1  0  0  0  0
  1 10  1  0  0  0  0
  3  4  1  1  0  0  0
  3  5  1  0  0  0  0
  5  6  1  6  0  0  0
  5  7  1  0  0  0  0
  7  8  1  1  0  0  0
  7  9  1  0  0  0  0
  9 10  1  0  0  0  0
  9 11  1  6  0  0  0
 11 12  1  0  0  0  0
 13 14  1  1  0  0  0
 13 15  1  0  0  0  0
 13 22  1  0  0  0  0
 15 16  1  6  0  0  0
 15 17  1  0  0  0  0
 17 18  1  1  0  0  0
 17 19  1  0  0  0  0
 19  2  1  6  0  0  0
 19 20  1  0  0  0  0
 20 21  1  1  0  0  0
 20 22  1  0  0  0  0
 23 18  1  1  0  0  0
 23 24  1  0  0  0  0
 23 28  1  0  0  0  0
 24 25  1  1  0  0  0
 24 26  1  0  0  0  0
 26 27  1  0  0  0  0
 26 38  1  1  0  0  0
 27 28  1  0  0  0  0
 27 29  1  1  0  0  0
 29 30  1  0  0  0  0
 31 32  1  6  0  0  0
 31 33  1  0  0  0  0
 31 39  1  0  0  0  0
 33 34  1  6  0  0  0
 33 35  1  0  0  0  0
 35 36  1  1  0  0  0
 35 37  1  0  0  0  0
 37 38  1  6  0  0  0
 37 40  1  0  0  0  0
 39 40  1  0  0  0  0
 39 41  1  1  0  0  0
 41 42  1  0  0  0  0
M  CHG  5   4   1  14   1  21   1  36   1  42   1
M  END
>  <CHROM.1>
171.47152139,-79.08152198,-57.26985044,-174.19371765,150.64161012,165.63430023
-56.25391478,-54.82763978,-178.72452139,160.18028521,163.56435525,-30.72315779
154.71085171,-172.20102872,64.11626837,-168.90143271,-70.56786882,67.36340448
-54.45297315,-97.67988039,-52.04712995,-43.98726691,1.46480034,1.00493378
39.69310787,1.26709082,0.67314258,-1.14889471

>  <Name>
1pbr

>  <RI>
0

>  <Rbt.Current_Directory>
/home/itssahil/PROJECTS/Mol_Feturizer/New_Systems/rnas/1pbr

>  <Rbt.Executable>
rbdock ($Id: //depot/dev/client3/rdock/2013.1/src/exe/rbdock.cxx#4 $)

>  <Rbt.Library>
libRbt.so (2013.1, Build901 2013/11/27)

>  <Rbt.Parameter_File>
/export/apps/rDock/src/rDock_2013.1_src/data/scripts/dock_solv.prm

>  <Rbt.Receptor>
prm/blind_docking_100.prm

>  <SCORE>
-50.9132

>  <SCORE.INTER>
-54.3108

>  <SCORE.INTER.CONST>
1

>  <SCORE.INTER.POLAR>
-8.22031

>  <SCORE.INTER.ROT>
9

>  <SCORE.INTER.SOLV>
49.2865

>  <SCORE.INTER.VDW>
-34.835

>  <SCORE.INTER.norm>
-1.29311

>  <SCORE.INTRA>
2.86936

>  <SCORE.INTRA.DIHEDRAL>
-7.6114

>  <SCORE.INTRA.DIHEDRAL.0>
29.7866

>  <SCORE.INTRA.POLAR>
0.846489

>  <SCORE.INTRA.POLAR.0>
-0.984091

>  <SCORE.INTRA.REPUL>
-0.0899559

>  <SCORE.INTRA.REPUL.0>
0.274115

>  <SCORE.INTRA.SOLV>
1.57689

>  <SCORE.INTRA.SOLV.lig_0>
-152.978

>  <SCORE.INTRA.VDW>
3.45833

>  <SCORE.INTRA.VDW.0>
-6.10719

>  <SCORE.INTRA.norm>
0.0683181

>  <SCORE.RESTR>
0.528202

>  <SCORE.RESTR.CAVITY>
0.528202

>  <SCORE.RESTR.norm>
0.0125762

>  <SCORE.SYSTEM>
0

>  <SCORE.SYSTEM.CONST>
0

>  <SCORE.SYSTEM.DIHEDRAL>
0

>  <SCORE.SYSTEM.SOLV>
0

>  <SCORE.SYSTEM.norm>
0

>  <SCORE.heavy>
42

>  <SCORE.norm>
-1.21222

>  <RMSD>
9.015

$$$$
1pbr
 OpenBabel11021811403D
libRbt.so/2013.1/901 2013/11/27
 42 45  0  0  0  0  0  0  0  0999 V2000
    2.4083    3.4901   36.3267 C   0  0  2  0  0  0  0  0  0  0  0  0
    2.6618    2.9247   37.6378 O   0  0  0  0  0  0  0  0  0  0  0  0
    1.3099    4.6151   36.4056 C   0  0  2  0  0  0  0  0  0  0  0  0
    1.4344    5.5165   37.5804 N   0  3  0  0  0  0  0  0  0  0  0  0
   -0.1090    4.0191   36.4679 C   0  0  1  0  0  0  0  0  0  0  0  0
   -1.0927    5.0327   36.2726 O   0  0  0  0  0  0  0  0  0  0  0  0
   -0.2925    2.9192   35.4113 C   0  0  2  0  0  0  0  0  0  0  0  0
   -1.6221    2.4109   35.4548 O   0  0  0  0  0  0  0  0  0  0  0  0
    0.7705    1.8116   35.5841 C   0  0  2  0  0  0  0  0  0  0  0  0
    2.0586    2.4333   35.3906 O   0  0  0  0  0  0  0  0  0  0  0  0
    0.6482    0.6634   34.5837 C   0  0  0  0  0  0  0  0  0  0  0  0
    1.8425   -0.1059   34.5341 O   0  0  0  0  0  0  0  0  0  0  0  0
    4.8574   -0.4154   36.1442 C   0  0  1  0  0  0  0  0  0  0  0  0
    5.7432   -1.5767   35.9429 N   0  3  0  0  0  0  0  0  0  0  0  0
    3.6768   -0.7339   37.1109 C   0  0  2  0  0  0  0  0  0  0  0  0
    2.8936   -1.8111   36.6020 O   0  0  0  0  0  0  0  0  0  0  0  0
    2.7495    0.5026   37.2972 C   0  0  1  0  0  0  0  0  0  0  0  0
    1.7708    0.1989   38.3350 O   0  0  0  0  0  0  0  0  0  0  0  0
    3.5514    1.7838   37.6980 C   0  0  1  0  0  0  0  0  0  0  0  0
    4.7644    2.0606   36.7532 C   0  0  1  0  0  0  0  0  0  0  0  0
    5.5608    3.2191   37.2148 N   0  3  0  0  0  0  0  0  0  0  0  0
    5.6743    0.8091   36.6508 C   0  0  0  0  0  0  0  0  0  0  0  0
    1.1045    1.2866   39.0525 C   0  0  1  0  0  0  0  0  0  0  0  0
   -0.1465    0.7226   39.7519 C   0  0  2  0  0  0  0  0  0  0  0  0
   -1.1197    1.7420   39.9608 O   0  0  0  0  0  0  0  0  0  0  0  0
    0.5006    0.2579   41.0653 C   0  0  1  0  0  0  0  0  0  0  0  0
    1.4283    1.4148   41.3977 C   0  0  2  0  0  0  0  0  0  0  0  0
    1.9398    1.7660   40.1211 O   0  0  0  0  0  0  0  0  0  0  0  0
    2.5763    1.0768   42.3576 C   0  0  0  0  0  0  0  0  0  0  0  0
    3.3600    0.0184   41.8266 O   0  0  0  0  0  0  0  0  0  0  0  0
    0.2821   -0.8287   46.3474 C   0  0  1  0  0  0  0  0  0  0  0  0
   -1.0522   -1.2511   46.6229 O   0  0  0  0  0  0  0  0  0  0  0  0
    0.9303   -1.8032   45.3247 C   0  0  2  0  0  0  0  0  0  0  0  0
    2.3420   -1.6049   45.3414 O   0  0  0  0  0  0  0  0  0  0  0  0
    0.4204   -1.6659   43.8527 C   0  0  1  0  0  0  0  0  0  0  0  0
   -0.8140   -2.4583   43.6599 N   0  3  0  0  0  0  0  0  0  0  0  0
    0.2520   -0.1812   43.4354 C   0  0  1  0  0  0  0  0  0  0  0  0
   -0.4175    0.0024   42.1638 O   0  0  0  0  0  0  0  0  0  0  0  0
    0.2822    0.6100   45.7723 C   0  0  1  0  0  0  0  0  0  0  0  0
   -0.4182    0.5763   44.4986 O   0  0  0  0  0  0  0  0  0  0  0  0
   -0.3386    1.6579   46.7150 C   0  0  0  0  0  0  0  0  0  0  0  0
   -1.8137    1.6095   46.7287 N   0  3  0  0  0  0  0  0  0  0  0  0
  1  2  1  1  0  0  0
  1  3  1  0  0  0  0
  1 10  1  0  0  0  0
  3  4  1  1  0  0  0
  3  5  1  0  0  0  0
  5  6  1  6  0  0  0
  5  7  1  0  0  0  0
  7  8  1  1  0  0  0
  7  9  1  0  0  0  0
  9 10  1  0  0  0  0
  9 11  1  6  0  0  0
 11 12  1  0  0  0  0
 13 14  1  1  0  0  0
 13 15  1  0  0  0  0
 13 22  1  0  0  0  0
 15 16  1  6  0  0  0
 15 17  1  0  0  0  0
 17 18  1  1  0  0  0
 17 19  1  0  0  0  0
 19  2  1  6  0  0  0
 19 20  1  0  0  0  0
 20 21  1  1  0  0  0
 20 22  1  0  0  0  0
 23 18  1  1  0  0  0
 23 24  1  0  0  0  0
 23 28  1  0  0  0  0
 24 25  1  1  0  0  0
 24 26  1  0  0  0  0
 26 27  1  0  0  0  0
 26 38  1  1  0  0  0
 27 28  1  0  0  0  0
 27 29  1  1  0  0  0
 29 30  1  0  0  0  0
 31 32  1  6  0  0  0
 31 33  1  0  0  0  0
 31 39  1  0  0  0  0
 33 34  1  6  0  0  0
 33 35  1  0  0  0  0
 35 36  1  1  0  0  0
 35 37  1  0  0  0  0
 37 38  1  6  0  0  0
 37 40  1  0  0  0  0
 39 40  1  0  0  0  0
 39 41  1  1  0  0  0
 41 42  1  0  0  0  0
M  CHG  5   4   1  14   1  21   1  36   1  42   1
M  END
>  <CHROM.1>
173.88121249,-80.01463687,67.24300232,176.08521098,-56.63307490,163.16458935
68.75150365,-50.45915044,66.81064353,157.89865870,162.91515611,77.12798895
162.62209922,-168.86301486,57.34711798,63.10484173,74.67785299,66.86423442
176.52614471,-99.76649213,-76.97216534,162.60713512,1.41976177,1.00477081
39.71818193,1.25628824,0.66808357,-1.13116492

>  <Name>
1pbr

>  <RI>
0

>  <Rbt.Current_Directory>
/home/itssahil/PROJECTS/Mol_Feturizer/New_Systems/rnas/1pbr

>  <Rbt.Executable>
rbdock ($Id: //depot/dev/client3/rdock/2013.1/src/exe/rbdock.cxx#4 $)

>  <Rbt.Library>
libRbt.so (2013.1, Build901 2013/11/27)

>  <Rbt.Parameter_File>
/export/apps/rDock/src/rDock_2013.1_src/data/scripts/dock_solv.prm

>  <Rbt.Receptor>
prm/blind_docking_60.prm

>  <SCORE>
-53.6379

>  <SCORE.INTER>
-49.45

>  <SCORE.INTER.CONST>
1

>  <SCORE.INTER.POLAR>
-7.74111

>  <SCORE.INTER.ROT>
9

>  <SCORE.INTER.SOLV>
50.636

>  <SCORE.INTER.VDW>
-33.6416

>  <SCORE.INTER.norm>
-1.17738

>  <SCORE.INTRA>
-4.63237

>  <SCORE.INTRA.DIHEDRAL>
-10.6702

>  <SCORE.INTRA.DIHEDRAL.0>
29.7866

>  <SCORE.INTRA.POLAR>
-0.714113

>  <SCORE.INTRA.POLAR.0>
-0.984091

>  <SCORE.INTRA.REPUL>
-0.235242

>  <SCORE.INTRA.REPUL.0>
0.274115

>  <SCORE.INTRA.SOLV>
1.00836

>  <SCORE.INTRA.SOLV.lig_0>
-152.978

>  <SCORE.INTRA.VDW>
3.80275

>  <SCORE.INTRA.VDW.0>
-6.10719

>  <SCORE.INTRA.norm>
-0.110295

>  <SCORE.RESTR>
0.444473

>  <SCORE.RESTR.CAVITY>
0.444473

>  <SCORE.RESTR.norm>
0.0105827

>  <SCORE.SYSTEM>
0

>  <SCORE.SYSTEM.CONST>
0

>  <SCORE.SYSTEM.DIHEDRAL>
0

>  <SCORE.SYSTEM.SOLV>
0

>  <SCORE.SYSTEM.norm>
0

>  <SCORE.heavy>
42

>  <SCORE.norm>
-1.27709

>  <RMSD>
9.020

$$$$
1pbr
 OpenBabel11021811403D
libRbt.so/2013.1/901 2013/11/27
 42 45  0  0  0  0  0  0  0  0999 V2000
    0.1481    5.1159   34.8133 C   0  0  2  0  0  0  0  0  0  0  0  0
    1.1458    4.3617   35.5474 O   0  0  0  0  0  0  0  0  0  0  0  0
    0.8281    6.0502   33.7442 C   0  0  2  0  0  0  0  0  0  0  0  0
    1.9601    5.4259   33.0114 N   0  3  0  0  0  0  0  0  0  0  0  0
    1.3859    7.3345   34.3861 C   0  0  1  0  0  0  0  0  0  0  0  0
    1.7563    8.2806   33.3856 O   0  0  0  0  0  0  0  0  0  0  0  0
    0.3571    7.9696   35.3337 C   0  0  2  0  0  0  0  0  0  0  0  0
    0.8734    9.1777   35.8834 O   0  0  0  0  0  0  0  0  0  0  0  0
   -0.0792    6.9634   36.4216 C   0  0  2  0  0  0  0  0  0  0  0  0
   -0.6977    5.8515   35.7401 O   0  0  0  0  0  0  0  0  0  0  0  0
   -1.0894    7.5211   37.4230 C   0  0  0  0  0  0  0  0  0  0  0  0
   -2.3904    7.5953   36.8551 O   0  0  0  0  0  0  0  0  0  0  0  0
   -0.8701    2.3488   38.7243 C   0  0  1  0  0  0  0  0  0  0  0  0
   -1.4852    1.3751   39.6449 N   0  3  0  0  0  0  0  0  0  0  0  0
    0.6854    2.2495   38.7128 C   0  0  2  0  0  0  0  0  0  0  0  0
    1.2082    2.4773   40.0195 O   0  0  0  0  0  0  0  0  0  0  0  0
    1.3114    3.2949   37.7440 C   0  0  1  0  0  0  0  0  0  0  0  0
    2.7444    3.0414   37.6476 O   0  0  0  0  0  0  0  0  0  0  0  0
    0.6749    3.2292   36.3172 C   0  0  1  0  0  0  0  0  0  0  0  0
   -0.8864    3.2746   36.3467 C   0  0  1  0  0  0  0  0  0  0  0  0
   -1.4615    3.1107   34.9933 N   0  3  0  0  0  0  0  0  0  0  0  0
   -1.4475    2.1781   37.2886 C   0  0  0  0  0  0  0  0  0  0  0  0
    3.3851    2.9551   36.3346 C   0  0  1  0  0  0  0  0  0  0  0  0
    4.7850    2.3370   36.5085 C   0  0  2  0  0  0  0  0  0  0  0  0
    5.6562    2.7378   35.4547 O   0  0  0  0  0  0  0  0  0  0  0  0
    4.4056    0.8513   36.4165 C   0  0  1  0  0  0  0  0  0  0  0  0
    3.4146    0.8397   35.2644 C   0  0  2  0  0  0  0  0  0  0  0  0
    2.6755    2.0299   35.4919 O   0  0  0  0  0  0  0  0  0  0  0  0
    2.4745   -0.3720   35.2232 C   0  0  0  0  0  0  0  0  0  0  0  0
    1.7878   -0.4983   36.4597 O   0  0  0  0  0  0  0  0  0  0  0  0
    4.2225   -3.9318   37.6019 C   0  0  1  0  0  0  0  0  0  0  0  0
    3.2678   -4.1497   36.5647 O   0  0  0  0  0  0  0  0  0  0  0  0
    5.6465   -3.8551   36.9837 C   0  0  2  0  0  0  0  0  0  0  0  0
    6.6035   -4.0135   38.0285 O   0  0  0  0  0  0  0  0  0  0  0  0
    5.9677   -2.5389   36.2026 C   0  0  1  0  0  0  0  0  0  0  0  0
    5.4861   -2.6384   34.8072 N   0  3  0  0  0  0  0  0  0  0  0  0
    5.4257   -1.2843   36.9368 C   0  0  1  0  0  0  0  0  0  0  0  0
    5.5052   -0.0647   36.1587 O   0  0  0  0  0  0  0  0  0  0  0  0
    3.9069   -2.6149   38.3546 C   0  0  1  0  0  0  0  0  0  0  0  0
    4.0568   -1.5198   37.4101 O   0  0  0  0  0  0  0  0  0  0  0  0
    2.5133   -2.5904   39.0099 C   0  0  0  0  0  0  0  0  0  0  0  0
    2.2678   -1.3564   39.7816 N   0  3  0  0  0  0  0  0  0  0  0  0
  1  2  1  1  0  0  0
  1  3  1  0  0  0  0
  1 10  1  0  0  0  0
  3  4  1  1  0  0  0
  3  5  1  0  0  0  0
  5  6  1  6  0  0  0
  5  7  1  0  0  0  0
  7  8  1  1  0  0  0
  7  9  1  0  0  0  0
  9 10  1  0  0  0  0
  9 11  1  1  0  0  0
 11 12  1  0  0  0  0
 13 14  1  1  0  0  0
 13 15  1  0  0  0  0
 13 22  1  0  0  0  0
 15 16  1  1  0  0  0
 15 17  1  0  0  0  0
 17 18  1  6  0  0  0
 17 19  1  0  0  0  0
 19  2  1  6  0  0  0
 19 20  1  0  0  0  0
 20 21  1  6  0  0  0
 20 22  1  0  0  0  0
 23 18  1  1  0  0  0
 23 24  1  0  0  0  0
 23 28  1  0  0  0  0
 24 25  1  6  0  0  0
 24 26  1  0  0  0  0
 26 27  1  0  0  0  0
 26 38  1  6  0  0  0
 27 28  1  0  0  0  0
 27 29  1  1  0  0  0
 29 30  1  0  0  0  0
 31 32  1  6  0  0  0
 31 33  1  0  0  0  0
 31 39  1  0  0  0  0
 33 34  1  1  0  0  0
 33 35  1  0  0  0  0
 35 36  1  6  0  0  0
 35 37  1  0  0  0  0
 37 38  1  6  0  0  0
 37 40  1  0  0  0  0
 39 40  1  0  0  0  0
 39 41  1  6  0  0  0
 41 42  1  0  0  0  0
M  CHG  5   4   1  14   1  21   1  36   1  42   1
M  END
>  <CHROM.1>
-164.90767480,-132.91491375,52.87156697,160.56442148,-179.38912804,76.00171563
177.24082072,61.39756308,-44.43245234,130.69171249,-165.75793674,-100.59978094
-178.32223854,138.96911586,54.76613431,-69.35428675,-66.36523570,178.59285661
41.14994727,146.13321865,176.84209302,61.92136339,2.09114154,2.11439210,36.54493196
-2.13062690,-0.58426558,2.64162751

>  <Name>
1pbr

>  <RI>
0

>  <Rbt.Current_Directory>
/home/itssahil/PROJECTS/Mol_Feturizer/New_Systems/rnas/1pbr

>  <Rbt.Executable>
rbdock ($Id: //depot/dev/client3/rdock/2013.1/src/exe/rbdock.cxx#4 $)

>  <Rbt.Library>
libRbt.so (2013.1, Build901 2013/11/27)

>  <Rbt.Parameter_File>
/export/apps/rDock/src/rDock_2013.1_src/data/scripts/dock_solv.prm

>  <Rbt.Receptor>
prm/blind_docking_40.prm

>  <SCORE>
-21.5041

>  <SCORE.INTER>
-42.2901

>  <SCORE.INTER.CONST>
1

>  <SCORE.INTER.POLAR>
-6.64649

>  <SCORE.INTER.ROT>
9

>  <SCORE.INTER.SOLV>
48.7903

>  <SCORE.INTER.VDW>
-31.9019

>  <SCORE.INTER.norm>
-1.00691

>  <SCORE.INTRA>
14.9048

>  <SCORE.INTRA.DIHEDRAL>
4.43125

>  <SCORE.INTRA.DIHEDRAL.0>
29.7866

>  <SCORE.INTRA.POLAR>
-0.27171

>  <SCORE.INTRA.POLAR.0>
-0.984091

>  <SCORE.INTRA.REPUL>
-0.253121

>  <SCORE.INTRA.REPUL.0>
0.274115

>  <SCORE.INTRA.SOLV>
2.96326

>  <SCORE.INTRA.SOLV.lig_0>
-152.978

>  <SCORE.INTRA.VDW>
13.3969

>  <SCORE.INTRA.VDW.0>
-6.10719

>  <SCORE.INTRA.norm>
0.354876

>  <SCORE.RESTR>
5.8813

>  <SCORE.RESTR.CAVITY>
5.8813

>  <SCORE.RESTR.norm>
0.140031

>  <SCORE.SYSTEM>
0

>  <SCORE.SYSTEM.CONST>
0

>  <SCORE.SYSTEM.DIHEDRAL>
0

>  <SCORE.SYSTEM.SOLV>
0

>  <SCORE.SYSTEM.norm>
0

>  <SCORE.heavy>
42

>  <SCORE.norm>
-0.512001

>  <RMSD>
9.025

$$$$
1pbr
 OpenBabel11021811403D
libRbt.so/2013.1/901 2013/11/27
 42 45  0  0  0  0  0  0  0  0999 V2000
    2.0831    3.8407   36.3372 C   0  0  2  0  0  0  0  0  0  0  0  0
    2.4045    3.2714   37.6317 O   0  0  0  0  0  0  0  0  0  0  0  0
    0.9110    4.8844   36.4606 C   0  0  2  0  0  0  0  0  0  0  0  0
    0.9985    5.7714   37.6496 N   0  3  0  0  0  0  0  0  0  0  0  0
   -0.4612    4.1893   36.5413 C   0  0  1  0  0  0  0  0  0  0  0  0
   -1.5173    5.1348   36.3861 O   0  0  0  0  0  0  0  0  0  0  0  0
   -0.5910    3.0981   35.4679 C   0  0  2  0  0  0  0  0  0  0  0  0
   -1.8807    2.4971   35.5296 O   0  0  0  0  0  0  0  0  0  0  0  0
    0.5502    2.0648   35.5972 C   0  0  2  0  0  0  0  0  0  0  0  0
    1.7872    2.7787   35.3886 O   0  0  0  0  0  0  0  0  0  0  0  0
    0.4860    0.9287   34.5778 C   0  0  0  0  0  0  0  0  0  0  0  0
    1.7114    0.2099   34.5298 O   0  0  0  0  0  0  0  0  0  0  0  0
    4.7688    0.1201   35.9924 C   0  0  1  0  0  0  0  0  0  0  0  0
    5.7013   -0.9947   35.7442 N   0  3  0  0  0  0  0  0  0  0  0  0
    3.5648   -0.3051   36.8864 C   0  0  2  0  0  0  0  0  0  0  0  0
    2.8390   -1.3670   36.2715 O   0  0  0  0  0  0  0  0  0  0  0  0
    2.5888    0.8844   37.1233 C   0  0  1  0  0  0  0  0  0  0  0  0
    1.5832    0.4753   38.0972 O   0  0  0  0  0  0  0  0  0  0  0  0
    3.3303    2.1582   37.6457 C   0  0  1  0  0  0  0  0  0  0  0  0
    4.5673    2.5412   36.7718 C   0  0  1  0  0  0  0  0  0  0  0  0
    5.3053    3.6881   37.3460 N   0  3  0  0  0  0  0  0  0  0  0  0
    5.5233    1.3302   36.6168 C   0  0  0  0  0  0  0  0  0  0  0  0
    0.9175    1.4803   38.9271 C   0  0  1  0  0  0  0  0  0  0  0  0
   -0.0662    0.7660   39.8727 C   0  0  2  0  0  0  0  0  0  0  0  0
   -1.1210    1.6384   40.2683 O   0  0  0  0  0  0  0  0  0  0  0  0
    0.8952    0.4536   41.0294 C   0  0  1  0  0  0  0  0  0  0  0  0
    1.6837    1.7467   41.1549 C   0  0  2  0  0  0  0  0  0  0  0  0
    1.8681    2.1191   39.7977 O   0  0  0  0  0  0  0  0  0  0  0  0
    3.0393    1.6195   41.8618 C   0  0  0  0  0  0  0  0  0  0  0  0
    3.9661    0.9478   41.0214 O   0  0  0  0  0  0  0  0  0  0  0  0
    2.2125   -1.1249   45.9521 C   0  0  1  0  0  0  0  0  0  0  0  0
    1.3032   -0.4499   46.8195 O   0  0  0  0  0  0  0  0  0  0  0  0
    1.4505   -2.2251   45.1618 C   0  0  2  0  0  0  0  0  0  0  0  0
    2.4049   -3.1204   44.5961 O   0  0  0  0  0  0  0  0  0  0  0  0
    0.5129   -1.7045   44.0236 C   0  0  1  0  0  0  0  0  0  0  0  0
   -0.8103   -1.3376   44.5746 N   0  3  0  0  0  0  0  0  0  0  0  0
    1.1678   -0.5523   43.2171 C   0  0  1  0  0  0  0  0  0  0  0  0
    0.2670    0.1090   42.2948 O   0  0  0  0  0  0  0  0  0  0  0  0
    2.8568   -0.1212   44.9631 C   0  0  1  0  0  0  0  0  0  0  0  0
    1.7968    0.4143   44.1244 O   0  0  0  0  0  0  0  0  0  0  0  0
    3.6425    1.0121   45.6491 C   0  0  0  0  0  0  0  0  0  0  0  0
    4.5014    0.5269   46.7469 N   0  3  0  0  0  0  0  0  0  0  0  0
  1  2  1  1  0  0  0
  1  3  1  0  0  0  0
  1 10  1  0  0  0  0
  3  4  1  1  0  0  0
  3  5  1  0  0  0  0
  5  6  1  6  0  0  0
  5  7  1  0  0  0  0
  7  8  1  1  0  0  0
  7  9  1  0  0  0  0
  9 10  1  0  0  0  0
  9 11  1  6  0  0  0
 11 12  1  0  0  0  0
 13 14  1  1  0  0  0
 13 15  1  0  0  0  0
 13 22  1  0  0  0  0
 15 16  1  6  0  0  0
 15 17  1  0  0  0  0
 17 18  1  1  0  0  0
 17 19  1  0  0  0  0
 19  2  1  6  0  0  0
 19 20  1  0  0  0  0
 20 21  1  1  0  0  0
 20 22  1  0  0  0  0
 23 18  1  6  0  0  0
 23 24  1  0  0  0  0
 23 28  1  0  0  0  0
 24 25  1  1  0  0  0
 24 26  1  0  0  0  0
 26 27  1  0  0  0  0
 26 38  1  1  0  0  0
 27 28  1  0  0  0  0
 27 29  1  6  0  0  0
 29 30  1  0  0  0  0
 31 32  1  1  0  0  0
 31 33  1  0  0  0  0
 31 39  1  0  0  0  0
 33 34  1  6  0  0  0
 33 35  1  0  0  0  0
 35 36  1  1  0  0  0
 35 37  1  0  0  0  0
 37 38  1  1  0  0  0
 37 40  1  0  0  0  0
 39 40  1  0  0  0  0
 39 41  1  1  0  0  0
 41 42  1  0  0  0  0
M  CHG  5   4   1  14   1  21   1  36   1  42   1
M  END
>  <CHROM.1>
171.38494129,-74.33561499,-51.87640674,-68.74552088,157.64476367,165.66591205
-170.52183250,40.42649108,-177.15068794,153.80324941,-178.95304089,-158.33282091
-71.13342522,162.61438757,72.25934707,-52.32263437,62.50348432,61.09439353
-149.88279995,-140.77808855,44.47006822,-71.80216758,1.87014041,1.17100993
39.61108352,1.60512954,0.46344906,-1.25368285

>  <Name>
1pbr

>  <RI>
0

>  <Rbt.Current_Directory>
/home/itssahil/PROJECTS/Mol_Feturizer/New_Systems/rnas/1pbr

>  <Rbt.Executable>
rbdock ($Id: //depot/dev/client3/rdock/2013.1/src/exe/rbdock.cxx#4 $)

>  <Rbt.Library>
libRbt.so (2013.1, Build901 2013/11/27)

>  <Rbt.Parameter_File>
/export/apps/rDock/src/rDock_2013.1_src/data/scripts/dock_solv.prm

>  <Rbt.Receptor>
prm/blind_docking_100.prm

>  <SCORE>
-41.1732

>  <SCORE.INTER>
-47.2999

>  <SCORE.INTER.CONST>
1

>  <SCORE.INTER.POLAR>
-7.46071

>  <SCORE.INTER.ROT>
9

>  <SCORE.INTER.SOLV>
46.903

>  <SCORE.INTER.VDW>
-31.8986

>  <SCORE.INTER.norm>
-1.12619

>  <SCORE.INTRA>
3.91174

>  <SCORE.INTRA.DIHEDRAL>
-8.14768

>  <SCORE.INTRA.DIHEDRAL.0>
29.7866

>  <SCORE.INTRA.POLAR>
0.945409

>  <SCORE.INTRA.POLAR.0>
-0.984091

>  <SCORE.INTRA.REPUL>
-0.101608

>  <SCORE.INTRA.REPUL.0>
0.274115

>  <SCORE.INTRA.SOLV>
-0.588802

>  <SCORE.INTRA.SOLV.lig_0>
-152.978

>  <SCORE.INTRA.VDW>
5.57363

>  <SCORE.INTRA.VDW.0>
-6.10719

>  <SCORE.INTRA.norm>
0.0931366

>  <SCORE.RESTR>
2.21501

>  <SCORE.RESTR.CAVITY>
2.21501

>  <SCORE.RESTR.norm>
0.0527383

>  <SCORE.SYSTEM>
0

>  <SCORE.SYSTEM.CONST>
0

>  <SCORE.SYSTEM.DIHEDRAL>
0

>  <SCORE.SYSTEM.SOLV>
0

>  <SCORE.SYSTEM.norm>
0

>  <SCORE.heavy>
42

>  <SCORE.norm>
-0.980314

>  <RMSD>
9.027

$$$$
1pbr
 OpenBabel11021811403D
libRbt.so/2013.1/901 2013/11/27
 42 45  0  0  0  0  0  0  0  0999 V2000
   -1.0672    4.7467   35.5162 C   0  0  2  0  0  0  0  0  0  0  0  0
   -1.1577    3.3433   35.1622 O   0  0  0  0  0  0  0  0  0  0  0  0
   -1.4518    5.6583   34.2917 C   0  0  2  0  0  0  0  0  0  0  0  0
   -2.6163    5.1748   33.5054 N   0  3  0  0  0  0  0  0  0  0  0  0
   -0.2846    5.7922   33.2955 C   0  0  1  0  0  0  0  0  0  0  0  0
   -0.5488    6.8184   32.3414 O   0  0  0  0  0  0  0  0  0  0  0  0
    1.0314    6.1002   34.0256 C   0  0  2  0  0  0  0  0  0  0  0  0
    2.0894    6.2635   33.0863 O   0  0  0  0  0  0  0  0  0  0  0  0
    1.3391    5.0146   35.0807 C   0  0  2  0  0  0  0  0  0  0  0  0
    0.2584    5.0417   36.0370 O   0  0  0  0  0  0  0  0  0  0  0  0
    2.6456    5.2323   35.8421 C   0  0  0  0  0  0  0  0  0  0  0  0
    2.7509    4.3458   36.9483 O   0  0  0  0  0  0  0  0  0  0  0  0
   -0.3892    2.0146   39.1437 C   0  0  1  0  0  0  0  0  0  0  0  0
   -0.1980    1.2504   40.3900 N   0  3  0  0  0  0  0  0  0  0  0  0
    0.7005    1.6884   38.0780 C   0  0  2  0  0  0  0  0  0  0  0  0
    1.9990    1.9820   38.5880 O   0  0  0  0  0  0  0  0  0  0  0  0
    0.4848    2.5161   36.7772 C   0  0  1  0  0  0  0  0  0  0  0  0
    1.4239    2.0467   35.7650 O   0  0  0  0  0  0  0  0  0  0  0  0
   -0.9750    2.3851   36.2323 C   0  0  1  0  0  0  0  0  0  0  0  0
   -2.0574    2.6612   37.3246 C   0  0  1  0  0  0  0  0  0  0  0  0
   -3.4244    2.4329   36.8063 N   0  3  0  0  0  0  0  0  0  0  0  0
   -1.8161    1.7707   38.5708 C   0  0  0  0  0  0  0  0  0  0  0  0
    1.4467    0.6327   35.3883 C   0  0  1  0  0  0  0  0  0  0  0  0
    2.7556    0.3455   34.6291 C   0  0  2  0  0  0  0  0  0  0  0  0
    2.6085   -0.7742   33.7603 O   0  0  0  0  0  0  0  0  0  0  0  0
    3.6663    0.0368   35.8271 C   0  0  1  0  0  0  0  0  0  0  0  0
    2.7738   -0.8313   36.6986 C   0  0  2  0  0  0  0  0  0  0  0  0
    1.5116   -0.1965   36.5621 O   0  0  0  0  0  0  0  0  0  0  0  0
    3.1765   -0.9049   38.1771 C   0  0  0  0  0  0  0  0  0  0  0  0
    2.0319   -1.1441   38.9826 O   0  0  0  0  0  0  0  0  0  0  0  0
    8.8108   -0.3168   37.3390 C   0  0  1  0  0  0  0  0  0  0  0  0
    9.2839   -1.5789   36.8723 O   0  0  0  0  0  0  0  0  0  0  0  0
    8.5272    0.6089   36.1231 C   0  0  2  0  0  0  0  0  0  0  0  0
    8.4216    1.9517   36.5904 O   0  0  0  0  0  0  0  0  0  0  0  0
    7.2436    0.2601   35.3006 C   0  0  1  0  0  0  0  0  0  0  0  0
    7.5441   -0.7840   34.2964 N   0  3  0  0  0  0  0  0  0  0  0  0
    6.0524   -0.1166   36.2204 C   0  0  1  0  0  0  0  0  0  0  0  0
    4.9073   -0.6532   35.5133 O   0  0  0  0  0  0  0  0  0  0  0  0
    7.5157   -0.5022   38.1692 C   0  0  1  0  0  0  0  0  0  0  0  0
    6.4935   -1.0304   37.2804 O   0  0  0  0  0  0  0  0  0  0  0  0
    7.6916   -1.4045   39.4048 C   0  0  0  0  0  0  0  0  0  0  0  0
    7.8842   -2.8245   39.0510 N   0  3  0  0  0  0  0  0  0  0  0  0
  1  2  1  6  0  0  0
  1  3  1  0  0  0  0
  1 10  1  0  0  0  0
  3  4  1  6  0  0  0
  3  5  1  0  0  0  0
  5  6  1  6  0  0  0
  5  7  1  0  0  0  0
  7  8  1  6  0  0  0
  7  9  1  0  0  0  0
  9 10  1  0  0  0  0
  9 11  1  1  0  0  0
 11 12  1  0  0  0  0
 13 14  1  1  0  0  0
 13 15  1  0  0  0  0
 13 22  1  0  0  0  0
 15 16  1  1  0  0  0
 15 17  1  0  0  0  0
 17 18  1  6  0  0  0
 17 19  1  0  0  0  0
 19  2  1  6  0  0  0
 19 20  1  0  0  0  0
 20 21  1  6  0  0  0
 20 22  1  0  0  0  0
 23 18  1  1  0  0  0
 23 24  1  0  0  0  0
 23 28  1  0  0  0  0
 24 25  1  6  0  0  0
 24 26  1  0  0  0  0
 26 27  1  0  0  0  0
 26 38  1  6  0  0  0
 27 28  1  0  0  0  0
 27 29  1  1  0  0  0
 29 30  1  0  0  0  0
 31 32  1  6  0  0  0
 31 33  1  0  0  0  0
 31 39  1  0  0  0  0
 33 34  1  1  0  0  0
 33 35  1  0  0  0  0
 35 36  1  6  0  0  0
 35 37  1  0  0  0  0
 37 38  1  6  0  0  0
 37 40  1  0  0  0  0
 39 40  1  0  0  0  0
 39 41  1  1  0  0  0
 41 42  1  0  0  0  0
M  CHG  5   4   1  14   1  21   1  36   1  42   1
M  END
>  <CHROM.1>
-173.38972964,-64.10483461,66.14572508,-69.11874168,71.24464093,169.54482225
63.68850576,-168.12950210,64.82722120,55.87852862,-164.14884532,64.09466982
108.10940717,136.82382855,151.77359425,-65.98471415,69.78238058,-64.90209122
-131.49065360,-127.20414788,-70.71043243,31.76745024,2.61101553,1.76765901
36.30402840,-2.59778647,-0.27399767,2.37734047

>  <Name>
1pbr

>  <RI>
0

>  <Rbt.Current_Directory>
/home/itssahil/PROJECTS/Mol_Feturizer/New_Systems/rnas/1pbr

>  <Rbt.Executable>
rbdock ($Id: //depot/dev/client3/rdock/2013.1/src/exe/rbdock.cxx#4 $)

>  <Rbt.Library>
libRbt.so (2013.1, Build901 2013/11/27)

>  <Rbt.Parameter_File>
/export/apps/rDock/src/rDock_2013.1_src/data/scripts/dock_solv.prm

>  <Rbt.Receptor>
prm/blind_docking_40.prm

>  <SCORE>
-31.6778

>  <SCORE.INTER>
-38.2894

>  <SCORE.INTER.CONST>
1

>  <SCORE.INTER.POLAR>
-4.77149

>  <SCORE.INTER.ROT>
9

>  <SCORE.INTER.SOLV>
43.9061

>  <SCORE.INTER.VDW>
-33.8566

>  <SCORE.INTER.norm>
-0.911652

>  <SCORE.INTRA>
2.16997

>  <SCORE.INTRA.DIHEDRAL>
1.41208

>  <SCORE.INTRA.DIHEDRAL.0>
29.7866

>  <SCORE.INTRA.POLAR>
-0.596703

>  <SCORE.INTRA.POLAR.0>
-0.984091

>  <SCORE.INTRA.REPUL>
-0.205211

>  <SCORE.INTRA.REPUL.0>
0.274115

>  <SCORE.INTRA.SOLV>
3.25018

>  <SCORE.INTRA.SOLV.lig_0>
-152.978

>  <SCORE.INTRA.VDW>
2.89368

>  <SCORE.INTRA.VDW.0>
-6.10719

>  <SCORE.INTRA.norm>
0.0516659

>  <SCORE.RESTR>
4.44162

>  <SCORE.RESTR.CAVITY>
4.44162

>  <SCORE.RESTR.norm>
0.105753

>  <SCORE.SYSTEM>
0

>  <SCORE.SYSTEM.CONST>
0

>  <SCORE.SYSTEM.DIHEDRAL>
0

>  <SCORE.SYSTEM.SOLV>
0

>  <SCORE.SYSTEM.norm>
0

>  <SCORE.heavy>
42

>  <SCORE.norm>
-0.754233

>  <RMSD>
9.036

$$$$
1pbr
 OpenBabel11021811403D
libRbt.so/2013.1/901 2013/11/27
 42 45  0  0  0  0  0  0  0  0999 V2000
    0.6917    3.0387   38.0593 C   0  0  2  0  0  0  0  0  0  0  0  0
    1.0443    1.9689   37.1460 O   0  0  0  0  0  0  0  0  0  0  0  0
   -0.8454    3.0014   38.3976 C   0  0  2  0  0  0  0  0  0  0  0  0
   -1.3947    1.6385   38.6189 N   0  3  0  0  0  0  0  0  0  0  0  0
   -1.6893    3.6288   37.2721 C   0  0  1  0  0  0  0  0  0  0  0  0
   -3.0349    3.8284   37.6997 O   0  0  0  0  0  0  0  0  0  0  0  0
   -1.0936    4.9700   36.8179 C   0  0  2  0  0  0  0  0  0  0  0  0
   -1.9104    5.5554   35.8087 O   0  0  0  0  0  0  0  0  0  0  0  0
    0.3721    4.7920   36.3636 C   0  0  2  0  0  0  0  0  0  0  0  0
    1.1112    4.3181   37.5093 O   0  0  0  0  0  0  0  0  0  0  0  0
    1.0376    6.0772   35.8743 C   0  0  0  0  0  0  0  0  0  0  0  0
    0.3397    7.2265   36.3355 O   0  0  0  0  0  0  0  0  0  0  0  0
    4.4605   -0.3066   35.9798 C   0  0  1  0  0  0  0  0  0  0  0  0
    5.7825   -0.9461   35.8485 N   0  3  0  0  0  0  0  0  0  0  0  0
    3.6828   -0.8103   37.2333 C   0  0  2  0  0  0  0  0  0  0  0  0
    3.4924   -2.2216   37.1669 O   0  0  0  0  0  0  0  0  0  0  0  0
    2.2865   -0.1307   37.3430 C   0  0  1  0  0  0  0  0  0  0  0  0
    1.6824   -0.5098   38.6152 O   0  0  0  0  0  0  0  0  0  0  0  0
    2.3827    1.4276   37.2572 C   0  0  1  0  0  0  0  0  0  0  0  0
    3.2110    1.9175   36.0265 C   0  0  1  0  0  0  0  0  0  0  0  0
    3.3685    3.3888   36.0270 N   0  3  0  0  0  0  0  0  0  0  0  0
    4.6071    1.2431   36.0036 C   0  0  0  0  0  0  0  0  0  0  0  0
    2.1801    0.0711   39.8629 C   0  0  1  0  0  0  0  0  0  0  0  0
    1.1816   -0.2520   40.9901 C   0  0  2  0  0  0  0  0  0  0  0  0
    1.2638    0.7098   42.0382 O   0  0  0  0  0  0  0  0  0  0  0  0
    1.7315   -1.6225   41.4136 C   0  0  1  0  0  0  0  0  0  0  0  0
    3.2327   -1.3859   41.4090 C   0  0  2  0  0  0  0  0  0  0  0  0
    3.4048   -0.5710   40.2597 O   0  0  0  0  0  0  0  0  0  0  0  0
    4.0932   -2.6512   41.2992 C   0  0  0  0  0  0  0  0  0  0  0  0
    4.2431   -3.2511   42.5775 O   0  0  0  0  0  0  0  0  0  0  0  0
    1.0620   -6.1229   44.2871 C   0  0  1  0  0  0  0  0  0  0  0  0
   -0.0204   -5.8549   45.1767 O   0  0  0  0  0  0  0  0  0  0  0  0
    0.5868   -5.9198   42.8213 C   0  0  2  0  0  0  0  0  0  0  0  0
    1.5304   -6.5371   41.9489 O   0  0  0  0  0  0  0  0  0  0  0  0
    0.3923   -4.4320   42.3802 C   0  0  1  0  0  0  0  0  0  0  0  0
   -0.9527   -3.9523   42.7673 N   0  3  0  0  0  0  0  0  0  0  0  0
    1.5303   -3.5192   42.9082 C   0  0  1  0  0  0  0  0  0  0  0  0
    1.2903   -2.1038   42.7130 O   0  0  0  0  0  0  0  0  0  0  0  0
    2.2514   -5.1765   44.5878 C   0  0  1  0  0  0  0  0  0  0  0  0
    1.8131   -3.8170   44.3170 O   0  0  0  0  0  0  0  0  0  0  0  0
    2.8015   -5.3031   46.0208 C   0  0  0  0  0  0  0  0  0  0  0  0
    3.4114   -6.6214   46.2829 N   0  3  0  0  0  0  0  0  0  0  0  0
  1  2  1  6  0  0  0
  1  3  1  0  0  0  0
  1 10  1  0  0  0  0
  3  4  1  6  0  0  0
  3  5  1  0  0  0  0
  5  6  1  1  0  0  0
  5  7  1  0  0  0  0
  7  8  1  6  0  0  0
  7  9  1  0  0  0  0
  9 10  1  0  0  0  0
  9 11  1  1  0  0  0
 11 12  1  0  0  0  0
 13 14  1  1  0  0  0
 13 15  1  0  0  0  0
 13 22  1  0  0  0  0
 15 16  1  6  0  0  0
 15 17  1  0  0  0  0
 17 18  1  1  0  0  0
 17 19  1  0  0  0  0
 19  2  1  6  0  0  0
 19 20  1  0  0  0  0
 20 21  1  1  0  0  0
 20 22  1  0  0  0  0
 23 18  1  6  0  0  0
 23 24  1  0  0  0  0
 23 28  1  0  0  0  0
 24 25  1  1  0  0  0
 24 26  1  0  0  0  0
 26 27  1  0  0  0  0
 26 38  1  1  0  0  0
 27 28  1  0  0  0  0
 27 29  1  6  0  0  0
 29 30  1  0  0  0  0
 31 32  1  1  0  0  0
 31 33  1  0  0  0  0
 31 39  1  0  0  0  0
 33 34  1  6  0  0  0
 33 35  1  0  0  0  0
 35 36  1  1  0  0  0
 35 37  1  0  0  0  0
 37 38  1  1  0  0  0
 37 40  1  0  0  0  0
 39 40  1  0  0  0  0
 39 41  1  1  0  0  0
 41 42  1  0  0  0  0
M  CHG  5   4   1  14   1  21   1  36   1  42   1
M  END
>  <CHROM.1>
-149.23874448,129.81052505,34.72350196,179.74169991,176.98462132,19.08165543
84.87534404,-67.86878772,-60.88726938,73.62922757,167.60371083,-158.97565640
69.11965266,164.26009408,-82.53809736,-60.16058040,-179.22609179,65.78834959
-168.26699394,-86.78060112,65.47646710,172.92734031,1.57145469,-0.36812810
39.77090197,1.69501072,0.52008366,-0.74421128

>  <Name>
1pbr

>  <RI>
0

>  <Rbt.Current_Directory>
/home/itssahil/PROJECTS/Mol_Feturizer/New_Systems/rnas/1pbr

>  <Rbt.Executable>
rbdock ($Id: //depot/dev/client3/rdock/2013.1/src/exe/rbdock.cxx#4 $)

>  <Rbt.Library>
libRbt.so (2013.1, Build901 2013/11/27)

>  <Rbt.Parameter_File>
/export/apps/rDock/src/rDock_2013.1_src/data/scripts/dock_solv.prm

>  <Rbt.Receptor>
prm/pocket_docking_7.prm

>  <SCORE>
-39.8444

>  <SCORE.INTER>
-39.8424

>  <SCORE.INTER.CONST>
1

>  <SCORE.INTER.POLAR>
-7.28574

>  <SCORE.INTER.ROT>
9

>  <SCORE.INTER.SOLV>
23.9594

>  <SCORE.INTER.VDW>
-19.8622

>  <SCORE.INTER.norm>
-0.948627

>  <SCORE.INTRA>
-0.00203382

>  <SCORE.INTRA.DIHEDRAL>
-0.754847

>  <SCORE.INTRA.DIHEDRAL.0>
29.7866

>  <SCORE.INTRA.POLAR>
-0.177243

>  <SCORE.INTRA.POLAR.0>
-0.984091

>  <SCORE.INTRA.REPUL>
-0.274115

>  <SCORE.INTRA.REPUL.0>
0.274115

>  <SCORE.INTRA.SOLV>
1.89113

>  <SCORE.INTRA.SOLV.lig_0>
-152.978

>  <SCORE.INTRA.VDW>
1.40302

>  <SCORE.INTRA.VDW.0>
-6.10719

>  <SCORE.INTRA.norm>
-4.84243e-05

>  <SCORE.RESTR>
0

>  <SCORE.RESTR.CAVITY>
0

>  <SCORE.RESTR.norm>
0

>  <SCORE.SYSTEM>
0

>  <SCORE.SYSTEM.CONST>
0

>  <SCORE.SYSTEM.DIHEDRAL>
0

>  <SCORE.SYSTEM.SOLV>
0

>  <SCORE.SYSTEM.norm>
0

>  <SCORE.heavy>
42

>  <SCORE.norm>
-0.948676

>  <RMSD>
9.063

$$$$
1pbr
 OpenBabel11021811403D
libRbt.so/2013.1/901 2013/11/27
 42 45  0  0  0  0  0  0  0  0999 V2000
    2.1093    3.7506   36.3457 C   0  0  2  0  0  0  0  0  0  0  0  0
    2.4296    3.1860   37.6425 O   0  0  0  0  0  0  0  0  0  0  0  0
    0.9352    4.7927   36.4639 C   0  0  2  0  0  0  0  0  0  0  0  0
    1.0192    5.6837   37.6503 N   0  3  0  0  0  0  0  0  0  0  0  0
   -0.4360    4.0955   36.5446 C   0  0  1  0  0  0  0  0  0  0  0  0
   -1.4934    5.0387   36.3848 O   0  0  0  0  0  0  0  0  0  0  0  0
   -0.5622    3.0007   35.4746 C   0  0  2  0  0  0  0  0  0  0  0  0
   -1.8509    2.3977   35.5361 O   0  0  0  0  0  0  0  0  0  0  0  0
    0.5805    1.9698   35.6089 C   0  0  2  0  0  0  0  0  0  0  0  0
    1.8166    2.6851   35.4000 O   0  0  0  0  0  0  0  0  0  0  0  0
    0.5199    0.8303   34.5930 C   0  0  0  0  0  0  0  0  0  0  0  0
    1.7134    0.0584   34.6130 O   0  0  0  0  0  0  0  0  0  0  0  0
    4.7595   -0.0046   36.0303 C   0  0  1  0  0  0  0  0  0  0  0  0
    5.6912   -1.1214   35.7880 N   0  3  0  0  0  0  0  0  0  0  0  0
    3.5901   -0.4066   36.9793 C   0  0  2  0  0  0  0  0  0  0  0  0
    2.8515   -1.4934   36.4263 O   0  0  0  0  0  0  0  0  0  0  0  0
    2.6140    0.7842   37.2094 C   0  0  1  0  0  0  0  0  0  0  0  0
    1.6456    0.4023   38.2308 O   0  0  0  0  0  0  0  0  0  0  0  0
    3.3635    2.0797   37.6623 C   0  0  1  0  0  0  0  0  0  0  0  0
    4.5669    2.4404   36.7336 C   0  0  1  0  0  0  0  0  0  0  0  0
    5.3156    3.6108   37.2426 N   0  3  0  0  0  0  0  0  0  0  0  0
    5.5260    1.2308   36.5867 C   0  0  0  0  0  0  0  0  0  0  0  0
    0.9899    1.4319   39.0382 C   0  0  1  0  0  0  0  0  0  0  0  0
   -0.2263    0.8044   39.7447 C   0  0  2  0  0  0  0  0  0  0  0  0
   -1.2062    1.7923   40.0513 O   0  0  0  0  0  0  0  0  0  0  0  0
    0.4749    0.2702   41.0028 C   0  0  1  0  0  0  0  0  0  0  0  0
    1.3969    1.4199   41.3739 C   0  0  2  0  0  0  0  0  0  0  0  0
    1.8564    1.8583   40.1045 O   0  0  0  0  0  0  0  0  0  0  0  0
    2.5839    1.0426   42.2695 C   0  0  0  0  0  0  0  0  0  0  0  0
    3.5865    0.3930   41.5019 O   0  0  0  0  0  0  0  0  0  0  0  0
    0.4378   -0.8709   46.2789 C   0  0  1  0  0  0  0  0  0  0  0  0
   -0.8777   -1.3245   46.5927 O   0  0  0  0  0  0  0  0  0  0  0  0
    1.0804   -1.8323   45.2404 C   0  0  2  0  0  0  0  0  0  0  0  0
    2.4868   -1.6001   45.2169 O   0  0  0  0  0  0  0  0  0  0  0  0
    0.5262   -1.7114   43.7829 C   0  0  1  0  0  0  0  0  0  0  0  0
   -0.6937   -2.5339   43.6266 N   0  3  0  0  0  0  0  0  0  0  0  0
    0.3104   -0.2323   43.3676 C   0  0  1  0  0  0  0  0  0  0  0  0
   -0.3987   -0.0684   42.1148 O   0  0  0  0  0  0  0  0  0  0  0  0
    0.3870    0.5658   45.7010 C   0  0  1  0  0  0  0  0  0  0  0  0
   -0.3478    0.5117   44.4476 O   0  0  0  0  0  0  0  0  0  0  0  0
   -0.2322    1.6010   46.6586 C   0  0  0  0  0  0  0  0  0  0  0  0
   -1.5546    1.1876   47.1673 N   0  3  0  0  0  0  0  0  0  0  0  0
  1  2  1  1  0  0  0
  1  3  1  0  0  0  0
  1 10  1  0  0  0  0
  3  4  1  1  0  0  0
  3  5  1  0  0  0  0
  5  6  1  6  0  0  0
  5  7  1  0  0  0  0
  7  8  1  1  0  0  0
  7  9  1  0  0  0  0
  9 10  1  0  0  0  0
  9 11  1  6  0  0  0
 11 12  1  0  0  0  0
 13 14  1  1  0  0  0
 13 15  1  0  0  0  0
 13 22  1  0  0  0  0
 15 16  1  6  0  0  0
 15 17  1  0  0  0  0
 17 18  1  1  0  0  0
 17 19  1  0  0  0  0
 19  2  1  6  0  0  0
 19 20  1  0  0  0  0
 20 21  1  1  0  0  0
 20 22  1  0  0  0  0
 23 18  1  6  0  0  0
 23 24  1  0  0  0  0
 23 28  1  0  0  0  0
 24 25  1  1  0  0  0
 24 26  1  0  0  0  0
 26 27  1  0  0  0  0
 26 38  1  1  0  0  0
 27 28  1  0  0  0  0
 27 29  1  1  0  0  0
 29 30  1  0  0  0  0
 31 32  1  6  0  0  0
 31 33  1  0  0  0  0
 31 39  1  0  0  0  0
 33 34  1  6  0  0  0
 33 35  1  0  0  0  0
 35 36  1  1  0  0  0
 35 37  1  0  0  0  0
 37 38  1  6  0  0  0
 37 40  1  0  0  0  0
 39 40  1  0  0  0  0
 39 41  1  1  0  0  0
 41 42  1  0  0  0  0
M  CHG  5   4   1  14   1  21   1  36   1  42   1
M  END
>  <CHROM.1>
171.75331664,-77.22031516,-50.52476338,-174.34022494,-54.25084555,169.58122662
-54.66977000,154.94917659,-168.67585630,154.50522197,164.90698063,82.95261872
153.00133133,-165.01834820,76.66989287,54.38117406,65.50720711,-172.01810771
-58.45304367,-102.58247147,-52.36208564,172.90205909,1.34270154,1.12499919
39.69432895,1.31189421,0.61751625,-1.14426125

>  <Name>
1pbr

>  <RI>
0

>  <Rbt.Current_Directory>
/home/itssahil/PROJECTS/Mol_Feturizer/New_Systems/rnas/1pbr

>  <Rbt.Executable>
rbdock ($Id: //depot/dev/client3/rdock/2013.1/src/exe/rbdock.cxx#4 $)

>  <Rbt.Library>
libRbt.so (2013.1, Build901 2013/11/27)

>  <Rbt.Parameter_File>
/export/apps/rDock/src/rDock_2013.1_src/data/scripts/dock_solv.prm

>  <Rbt.Receptor>
prm/blind_docking_100.prm

>  <SCORE>
-49.6732

>  <SCORE.INTER>
-51.6594

>  <SCORE.INTER.CONST>
1

>  <SCORE.INTER.POLAR>
-7.69074

>  <SCORE.INTER.ROT>
9

>  <SCORE.INTER.SOLV>
48.682

>  <SCORE.INTER.VDW>
-34.6311

>  <SCORE.INTER.norm>
-1.22999

>  <SCORE.INTRA>
1.31263

>  <SCORE.INTRA.DIHEDRAL>
-7.86071

>  <SCORE.INTRA.DIHEDRAL.0>
29.7866

>  <SCORE.INTRA.POLAR>
0.161044

>  <SCORE.INTRA.POLAR.0>
-0.984091

>  <SCORE.INTRA.REPUL>
-0.253266

>  <SCORE.INTRA.REPUL.0>
0.274115

>  <SCORE.INTRA.SOLV>
1.17029

>  <SCORE.INTRA.SOLV.lig_0>
-152.978

>  <SCORE.INTRA.VDW>
5.37662

>  <SCORE.INTRA.VDW.0>
-6.10719

>  <SCORE.INTRA.norm>
0.0312531

>  <SCORE.RESTR>
0.673584

>  <SCORE.RESTR.CAVITY>
0.673584

>  <SCORE.RESTR.norm>
0.0160377

>  <SCORE.SYSTEM>
0

>  <SCORE.SYSTEM.CONST>
0

>  <SCORE.SYSTEM.DIHEDRAL>
0

>  <SCORE.SYSTEM.SOLV>
0

>  <SCORE.SYSTEM.norm>
0

>  <SCORE.heavy>
42

>  <SCORE.norm>
-1.1827

>  <RMSD>
9.072

$$$$
1pbr
 OpenBabel11021811403D
libRbt.so/2013.1/901 2013/11/27
 42 45  0  0  0  0  0  0  0  0999 V2000
    4.8964   -2.0900   38.0133 C   0  0  2  0  0  0  0  0  0  0  0  0
    3.8938   -2.1743   39.0577 O   0  0  0  0  0  0  0  0  0  0  0  0
    5.1271   -3.4963   37.3446 C   0  0  2  0  0  0  0  0  0  0  0  0
    3.8850   -4.2766   37.1064 N   0  3  0  0  0  0  0  0  0  0  0  0
    6.0396   -4.3906   38.2049 C   0  0  1  0  0  0  0  0  0  0  0  0
    6.4519   -5.5440   37.4748 O   0  0  0  0  0  0  0  0  0  0  0  0
    7.2789   -3.6180   38.6814 C   0  0  2  0  0  0  0  0  0  0  0  0
    8.1313   -4.4721   39.4378 O   0  0  0  0  0  0  0  0  0  0  0  0
    6.8668   -2.3507   39.4627 C   0  0  2  0  0  0  0  0  0  0  0  0
    6.1221   -1.5185   38.5482 O   0  0  0  0  0  0  0  0  0  0  0  0
    8.0419   -1.5309   39.9930 C   0  0  0  0  0  0  0  0  0  0  0  0
    8.7464   -0.8960   38.9342 O   0  0  0  0  0  0  0  0  0  0  0  0
    5.4270    1.0704   41.3662 C   0  0  1  0  0  0  0  0  0  0  0  0
    5.6325    2.2257   42.2589 N   0  3  0  0  0  0  0  0  0  0  0  0
    5.0380   -0.2196   42.1501 C   0  0  2  0  0  0  0  0  0  0  0  0
    6.0553   -0.5562   43.0905 O   0  0  0  0  0  0  0  0  0  0  0  0
    4.8391   -1.4273   41.1881 C   0  0  1  0  0  0  0  0  0  0  0  0
    4.3146   -2.5519   41.9542 O   0  0  0  0  0  0  0  0  0  0  0  0
    3.8568   -1.0918   40.0187 C   0  0  1  0  0  0  0  0  0  0  0  0
    4.2267    0.2322   39.2765 C   0  0  1  0  0  0  0  0  0  0  0  0
    3.2251    0.5749   38.2426 N   0  3  0  0  0  0  0  0  0  0  0  0
    4.3599    1.4043   40.2831 C   0  0  0  0  0  0  0  0  0  0  0  0
    5.1792   -3.2595   42.8996 C   0  0  1  0  0  0  0  0  0  0  0  0
    4.3255   -4.2716   43.6864 C   0  0  2  0  0  0  0  0  0  0  0  0
    4.9107   -4.5594   44.9532 O   0  0  0  0  0  0  0  0  0  0  0  0
    4.4133   -5.4630   42.7207 C   0  0  1  0  0  0  0  0  0  0  0  0
    5.8791   -5.4492   42.3199 C   0  0  2  0  0  0  0  0  0  0  0  0
    6.1428   -4.0604   42.1928 O   0  0  0  0  0  0  0  0  0  0  0  0
    6.2049   -6.1760   41.0087 C   0  0  0  0  0  0  0  0  0  0  0  0
    5.5227   -7.4203   40.9586 O   0  0  0  0  0  0  0  0  0  0  0  0
    0.7893   -8.7575   41.2599 C   0  0  1  0  0  0  0  0  0  0  0  0
    1.6241   -9.5994   40.4667 O   0  0  0  0  0  0  0  0  0  0  0  0
    0.9932   -9.0979   42.7626 C   0  0  2  0  0  0  0  0  0  0  0  0
   -0.0868   -8.5370   43.5053 O   0  0  0  0  0  0  0  0  0  0  0  0
    2.3408   -8.6048   43.3843 C   0  0  1  0  0  0  0  0  0  0  0  0
    3.4159   -9.5885   43.1283 N   0  3  0  0  0  0  0  0  0  0  0  0
    2.7088   -7.1754   42.9067 C   0  0  1  0  0  0  0  0  0  0  0  0
    4.0443   -6.7543   43.2785 O   0  0  0  0  0  0  0  0  0  0  0  0
    1.1349   -7.2682   41.0088 C   0  0  1  0  0  0  0  0  0  0  0  0
    2.4998   -7.0497   41.4597 O   0  0  0  0  0  0  0  0  0  0  0  0
    0.9612   -6.8267   39.5436 C   0  0  0  0  0  0  0  0  0  0  0  0
    0.6683   -5.3859   39.4132 N   0  3  0  0  0  0  0  0  0  0  0  0
  1  2  1  1  0  0  0
  1  3  1  0  0  0  0
  1 10  1  0  0  0  0
  3  4  1  1  0  0  0
  3  5  1  0  0  0  0
  5  6  1  6  0  0  0
  5  7  1  0  0  0  0
  7  8  1  1  0  0  0
  7  9  1  0  0  0  0
  9 10  1  0  0  0  0
  9 11  1  6  0  0  0
 11 12  1  0  0  0  0
 13 14  1  1  0  0  0
 13 15  1  0  0  0  0
 13 22  1  0  0  0  0
 15 16  1  1  0  0  0
 15 17  1  0  0  0  0
 17 18  1  1  0  0  0
 17 19  1  0  0  0  0
 19  2  1  6  0  0  0
 19 20  1  0  0  0  0
 20 21  1  6  0  0  0
 20 22  1  0  0  0  0
 23 18  1  6  0  0  0
 23 24  1  0  0  0  0
 23 28  1  0  0  0  0
 24 25  1  1  0  0  0
 24 26  1  0  0  0  0
 26 27  1  0  0  0  0
 26 38  1  1  0  0  0
 27 28  1  0  0  0  0
 27 29  1  6  0  0  0
 29 30  1  0  0  0  0
 31 32  1  6  0  0  0
 31 33  1  0  0  0  0
 31 39  1  0  0  0  0
 33 34  1  1  0  0  0
 33 35  1  0  0  0  0
 35 36  1  6  0  0  0
 35 37  1  0  0  0  0
 37 38  1  6  0  0  0
 37 40  1  0  0  0  0
 39 40  1  0  0  0  0
 39 41  1  6  0  0  0
 41 42  1  0  0  0  0
M  CHG  5   4   1  14   1  21   1  36   1  42   1
M  END
>  <CHROM.1>
161.98699180,-88.11032090,-64.12800367,-41.27766894,177.32133348,69.96139055
157.34250101,35.57567370,68.76823382,-71.58864007,172.98362546,-162.88395893
178.59102016,101.39471875,-44.29507257,61.89409589,177.00510726,-56.86476888
177.39733227,174.80571849,153.07230047,50.12553843,4.43636664,-4.11325466
40.82238267,-0.11192399,-1.12625373,-1.96244552

>  <Name>
1pbr

>  <RI>
0

>  <Rbt.Current_Directory>
/home/itssahil/PROJECTS/Mol_Feturizer/New_Systems/rnas/1pbr

>  <Rbt.Executable>
rbdock ($Id: //depot/dev/client3/rdock/2013.1/src/exe/rbdock.cxx#4 $)

>  <Rbt.Library>
libRbt.so (2013.1, Build901 2013/11/27)

>  <Rbt.Parameter_File>
/export/apps/rDock/src/rDock_2013.1_src/data/scripts/dock_solv.prm

>  <Rbt.Receptor>
prm/pocket_docking_7.prm

>  <SCORE>
-37.0508

>  <SCORE.INTER>
-35.4782

>  <SCORE.INTER.CONST>
1

>  <SCORE.INTER.POLAR>
-7.48563

>  <SCORE.INTER.ROT>
9

>  <SCORE.INTER.SOLV>
25.3688

>  <SCORE.INTER.VDW>
-16.7563

>  <SCORE.INTER.norm>
-0.844719

>  <SCORE.INTRA>
-1.62711

>  <SCORE.INTRA.DIHEDRAL>
-7.43735

>  <SCORE.INTRA.DIHEDRAL.0>
29.7866

>  <SCORE.INTRA.POLAR>
-0.0344309

>  <SCORE.INTRA.POLAR.0>
-0.984091

>  <SCORE.INTRA.REPUL>
-0.274115

>  <SCORE.INTRA.REPUL.0>
0.274115

>  <SCORE.INTRA.SOLV>
0.294428

>  <SCORE.INTRA.SOLV.lig_0>
-152.978

>  <SCORE.INTRA.VDW>
3.43199

>  <SCORE.INTRA.VDW.0>
-6.10719

>  <SCORE.INTRA.norm>
-0.0387408

>  <SCORE.RESTR>
0.0544883

>  <SCORE.RESTR.CAVITY>
0.0544883

>  <SCORE.RESTR.norm>
0.00129734

>  <SCORE.SYSTEM>
0

>  <SCORE.SYSTEM.CONST>
0

>  <SCORE.SYSTEM.DIHEDRAL>
0

>  <SCORE.SYSTEM.SOLV>
0

>  <SCORE.SYSTEM.norm>
0

>  <SCORE.heavy>
42

>  <SCORE.norm>
-0.882163

>  <RMSD>
9.073

$$$$
1pbr
 OpenBabel11021811403D
libRbt.so/2013.1/901 2013/11/27
 42 45  0  0  0  0  0  0  0  0999 V2000
    5.5574   -3.7976   40.4029 C   0  0  2  0  0  0  0  0  0  0  0  0
    5.0967   -2.6700   39.6158 O   0  0  0  0  0  0  0  0  0  0  0  0
    7.0505   -4.1519   40.0519 C   0  0  2  0  0  0  0  0  0  0  0  0
    7.9375   -2.9733   39.8716 N   0  3  0  0  0  0  0  0  0  0  0  0
    7.1486   -4.9686   38.7496 C   0  0  1  0  0  0  0  0  0  0  0  0
    8.4601   -5.5039   38.5855 O   0  0  0  0  0  0  0  0  0  0  0  0
    6.1246   -6.1135   38.7377 C   0  0  2  0  0  0  0  0  0  0  0  0
    6.2595   -6.8830   37.5470 O   0  0  0  0  0  0  0  0  0  0  0  0
    4.6921   -5.5685   38.9310 C   0  0  2  0  0  0  0  0  0  0  0  0
    4.6588   -4.9270   40.2235 O   0  0  0  0  0  0  0  0  0  0  0  0
    3.6047   -6.6415   38.9111 C   0  0  0  0  0  0  0  0  0  0  0  0
    3.8265   -7.5802   37.8669 O   0  0  0  0  0  0  0  0  0  0  0  0
    2.9305    0.7588   40.9419 C   0  0  1  0  0  0  0  0  0  0  0  0
    1.9225    1.7249   41.4157 N   0  3  0  0  0  0  0  0  0  0  0  0
    3.2869   -0.3024   42.0266 C   0  0  2  0  0  0  0  0  0  0  0  0
    3.7928    0.3338   43.1978 O   0  0  0  0  0  0  0  0  0  0  0  0
    4.3612   -1.3024   41.5076 C   0  0  1  0  0  0  0  0  0  0  0  0
    4.5264   -2.3629   42.4950 O   0  0  0  0  0  0  0  0  0  0  0  0
    3.9638   -1.9306   40.1318 C   0  0  1  0  0  0  0  0  0  0  0  0
    3.5563   -0.8589   39.0706 C   0  0  1  0  0  0  0  0  0  0  0  0
    3.0911   -1.4865   37.8140 N   0  3  0  0  0  0  0  0  0  0  0  0
    2.4494    0.0716   39.6305 C   0  0  0  0  0  0  0  0  0  0  0  0
    3.9451   -2.2160   43.8300 C   0  0  1  0  0  0  0  0  0  0  0  0
    2.4689   -2.6519   43.7759 C   0  0  2  0  0  0  0  0  0  0  0  0
    1.7111   -2.0223   44.8053 O   0  0  0  0  0  0  0  0  0  0  0  0
    2.6525   -4.1564   44.0258 C   0  0  1  0  0  0  0  0  0  0  0  0
    3.6886   -4.1772   45.1375 C   0  0  2  0  0  0  0  0  0  0  0  0
    4.5666   -3.1316   44.7494 O   0  0  0  0  0  0  0  0  0  0  0  0
    4.4610   -5.4943   45.2863 C   0  0  0  0  0  0  0  0  0  0  0  0
    5.2101   -5.4863   46.4926 O   0  0  0  0  0  0  0  0  0  0  0  0
   -0.6498   -8.1460   42.5325 C   0  0  1  0  0  0  0  0  0  0  0  0
   -1.5157   -8.4021   43.6368 O   0  0  0  0  0  0  0  0  0  0  0  0
   -0.9297   -6.7213   41.9779 C   0  0  2  0  0  0  0  0  0  0  0  0
   -0.3484   -6.6176   40.6802 O   0  0  0  0  0  0  0  0  0  0  0  0
   -0.4025   -5.5431   42.8608 C   0  0  1  0  0  0  0  0  0  0  0  0
   -1.3873   -5.2082   43.9130 N   0  3  0  0  0  0  0  0  0  0  0  0
    1.0099   -5.8360   43.4319 C   0  0  1  0  0  0  0  0  0  0  0  0
    1.4554   -4.8793   44.4245 O   0  0  0  0  0  0  0  0  0  0  0  0
    0.8312   -8.2540   42.9748 C   0  0  1  0  0  0  0  0  0  0  0  0
    1.0774   -7.2063   43.9524 O   0  0  0  0  0  0  0  0  0  0  0  0
    1.2138   -9.6351   43.5389 C   0  0  0  0  0  0  0  0  0  0  0  0
    1.2856  -10.6769   42.4959 N   0  3  0  0  0  0  0  0  0  0  0  0
  1  2  1  6  0  0  0
  1  3  1  0  0  0  0
  1 10  1  0  0  0  0
  3  4  1  6  0  0  0
  3  5  1  0  0  0  0
  5  6  1  1  0  0  0
  5  7  1  0  0  0  0
  7  8  1  6  0  0  0
  7  9  1  0  0  0  0
  9 10  1  0  0  0  0
  9 11  1  1  0  0  0
 11 12  1  0  0  0  0
 13 14  1  1  0  0  0
 13 15  1  0  0  0  0
 13 22  1  0  0  0  0
 15 16  1  1  0  0  0
 15 17  1  0  0  0  0
 17 18  1  1  0  0  0
 17 19  1  0  0  0  0
 19  2  1  6  0  0  0
 19 20  1  0  0  0  0
 20 21  1  6  0  0  0
 20 22  1  0  0  0  0
 23 18  1  6  0  0  0
 23 24  1  0  0  0  0
 23 28  1  0  0  0  0
 24 25  1  1  0  0  0
 24 26  1  0  0  0  0
 26 27  1  0  0  0  0
 26 38  1  1  0  0  0
 27 28  1  0  0  0  0
 27 29  1  6  0  0  0
 29 30  1  0  0  0  0
 31 32  1  1  0  0  0
 31 33  1  0  0  0  0
 31 39  1  0  0  0  0
 33 34  1  6  0  0  0
 33 35  1  0  0  0  0
 35 36  1  1  0  0  0
 35 37  1  0  0  0  0
 37 38  1  1  0  0  0
 37 40  1  0  0  0  0
 39 40  1  0  0  0  0
 39 41  1  1  0  0  0
 41 42  1  0  0  0  0
M  CHG  5   4   1  14   1  21   1  36   1  42   1
M  END
>  <CHROM.1>
-158.52597817,62.47573519,-172.12557010,-102.81892043,-74.47800707,-43.32351091
-54.82508082,-58.02699620,75.06248553,-12.17181033,83.94311151,80.48445117
-64.82313810,113.32579168,-169.21066591,66.30012526,69.74214811,164.37795084
168.81178655,-118.02298669,71.88631581,-59.03845687,3.19970131,-4.39353397
41.71687118,-0.57797232,-0.78382480,-2.87002094

>  <Name>
1pbr

>  <RI>
0

>  <Rbt.Current_Directory>
/home/itssahil/PROJECTS/Mol_Feturizer/New_Systems/rnas/1pbr

>  <Rbt.Executable>
rbdock ($Id: //depot/dev/client3/rdock/2013.1/src/exe/rbdock.cxx#4 $)

>  <Rbt.Library>
libRbt.so (2013.1, Build901 2013/11/27)

>  <Rbt.Parameter_File>
/export/apps/rDock/src/rDock_2013.1_src/data/scripts/dock_solv.prm

>  <Rbt.Receptor>
prm/pocket_docking_7.prm

>  <SCORE>
-23.3309

>  <SCORE.INTER>
-31.6857

>  <SCORE.INTER.CONST>
1

>  <SCORE.INTER.POLAR>
-6.44156

>  <SCORE.INTER.ROT>
9

>  <SCORE.INTER.SOLV>
17.0421

>  <SCORE.INTER.VDW>
-14.9327

>  <SCORE.INTER.norm>
-0.754422

>  <SCORE.INTRA>
8.35482

>  <SCORE.INTRA.DIHEDRAL>
9.05945

>  <SCORE.INTRA.DIHEDRAL.0>
29.7866

>  <SCORE.INTRA.POLAR>
0.912951

>  <SCORE.INTRA.POLAR.0>
-0.984091

>  <SCORE.INTRA.REPUL>
-0.274115

>  <SCORE.INTRA.REPUL.0>
0.274115

>  <SCORE.INTRA.SOLV>
-4.30279

>  <SCORE.INTRA.SOLV.lig_0>
-152.978

>  <SCORE.INTRA.VDW>
4.24303

>  <SCORE.INTRA.VDW.0>
-6.10719

>  <SCORE.INTRA.norm>
0.198924

>  <SCORE.RESTR>
0

>  <SCORE.RESTR.CAVITY>
0

>  <SCORE.RESTR.norm>
0

>  <SCORE.SYSTEM>
0

>  <SCORE.SYSTEM.CONST>
0

>  <SCORE.SYSTEM.DIHEDRAL>
0

>  <SCORE.SYSTEM.SOLV>
0

>  <SCORE.SYSTEM.norm>
0

>  <SCORE.heavy>
42

>  <SCORE.norm>
-0.555498

>  <RMSD>
9.097

$$$$
1pbr
 OpenBabel11021811403D
libRbt.so/2013.1/901 2013/11/27
 42 45  0  0  0  0  0  0  0  0999 V2000
   -0.7714    3.1599   36.7972 C   0  0  2  0  0  0  0  0  0  0  0  0
   -1.1524    4.5412   37.0203 O   0  0  0  0  0  0  0  0  0  0  0  0
   -1.9225    2.1831   37.2434 C   0  0  2  0  0  0  0  0  0  0  0  0
   -3.2901    2.6341   36.8767 N   0  3  0  0  0  0  0  0  0  0  0  0
   -1.9314    1.9768   38.7699 C   0  0  1  0  0  0  0  0  0  0  0  0
   -2.7939    0.8999   39.1300 O   0  0  0  0  0  0  0  0  0  0  0  0
   -0.5162    1.6957   39.2970 C   0  0  2  0  0  0  0  0  0  0  0  0
   -0.5504    1.4647   40.7018 O   0  0  0  0  0  0  0  0  0  0  0  0
    0.4494    2.8373   38.9083 C   0  0  2  0  0  0  0  0  0  0  0  0
    0.4892    2.8794   37.4661 O   0  0  0  0  0  0  0  0  0  0  0  0
    1.8792    2.6483   39.4123 C   0  0  0  0  0  0  0  0  0  0  0  0
    1.8954    2.2273   40.7699 O   0  0  0  0  0  0  0  0  0  0  0  0
   -0.1874    7.6256   34.2341 C   0  0  1  0  0  0  0  0  0  0  0  0
    0.4280    8.7184   33.4588 N   0  3  0  0  0  0  0  0  0  0  0  0
    0.5936    6.2847   34.0869 C   0  0  2  0  0  0  0  0  0  0  0  0
    0.6469    5.8875   32.7187 O   0  0  0  0  0  0  0  0  0  0  0  0
   -0.0821    5.1445   34.9036 C   0  0  1  0  0  0  0  0  0  0  0  0
    0.7808    3.9693   34.8651 O   0  0  0  0  0  0  0  0  0  0  0  0
   -0.3336    5.5561   36.3910 C   0  0  1  0  0  0  0  0  0  0  0  0
   -1.0685    6.9282   36.5248 C   0  0  1  0  0  0  0  0  0  0  0  0
   -1.2033    7.3378   37.9403 N   0  3  0  0  0  0  0  0  0  0  0  0
   -0.3186    8.0297   35.7318 C   0  0  0  0  0  0  0  0  0  0  0  0
    2.2342    4.1268   34.9332 C   0  0  1  0  0  0  0  0  0  0  0  0
    2.6845    3.9239   36.3920 C   0  0  2  0  0  0  0  0  0  0  0  0
    3.9112    4.6018   36.6483 O   0  0  0  0  0  0  0  0  0  0  0  0
    2.8545    2.3972   36.3816 C   0  0  1  0  0  0  0  0  0  0  0  0
    3.5476    2.1564   35.0507 C   0  0  2  0  0  0  0  0  0  0  0  0
    2.8859    3.0769   34.1966 O   0  0  0  0  0  0  0  0  0  0  0  0
    3.4226    0.7310   34.4974 C   0  0  0  0  0  0  0  0  0  0  0  0
    2.1197    0.5246   33.9720 O   0  0  0  0  0  0  0  0  0  0  0  0
    4.4540   -2.3764   37.9340 C   0  0  1  0  0  0  0  0  0  0  0  0
    5.8697   -2.2270   38.0245 O   0  0  0  0  0  0  0  0  0  0  0  0
    3.7822   -1.6613   39.1394 C   0  0  2  0  0  0  0  0  0  0  0  0
    2.4374   -2.1220   39.2481 O   0  0  0  0  0  0  0  0  0  0  0  0
    3.7748   -0.0988   39.0722 C   0  0  1  0  0  0  0  0  0  0  0  0
    5.0461    0.4448   39.5986 N   0  3  0  0  0  0  0  0  0  0  0  0
    3.4461    0.4167   37.6464 C   0  0  1  0  0  0  0  0  0  0  0  0
    3.6352    1.8430   37.4762 O   0  0  0  0  0  0  0  0  0  0  0  0
    3.9333   -1.7677   36.6077 C   0  0  1  0  0  0  0  0  0  0  0  0
    4.2027   -0.3394   36.6418 O   0  0  0  0  0  0  0  0  0  0  0  0
    4.5379   -2.4126   35.3466 C   0  0  0  0  0  0  0  0  0  0  0  0
    5.9566   -2.0569   35.1486 N   0  3  0  0  0  0  0  0  0  0  0  0
  1  2  1  1  0  0  0
  1  3  1  0  0  0  0
  1 10  1  0  0  0  0
  3  4  1  1  0  0  0
  3  5  1  0  0  0  0
  5  6  1  6  0  0  0
  5  7  1  0  0  0  0
  7  8  1  1  0  0  0
  7  9  1  0  0  0  0
  9 10  1  0  0  0  0
  9 11  1  1  0  0  0
 11 12  1  0  0  0  0
 13 14  1  6  0  0  0
 13 15  1  0  0  0  0
 13 22  1  0  0  0  0
 15 16  1  6  0  0  0
 15 17  1  0  0  0  0
 17 18  1  1  0  0  0
 17 19  1  0  0  0  0
 19  2  1  6  0  0  0
 19 20  1  0  0  0  0
 20 21  1  1  0  0  0
 20 22  1  0  0  0  0
 23 18  1  1  0  0  0
 23 24  1  0  0  0  0
 23 28  1  0  0  0  0
 24 25  1  6  0  0  0
 24 26  1  0  0  0  0
 26 27  1  0  0  0  0
 26 38  1  1  0  0  0
 27 28  1  0  0  0  0
 27 29  1  6  0  0  0
 29 30  1  0  0  0  0
 31 32  1  1  0  0  0
 31 33  1  0  0  0  0
 31 39  1  0  0  0  0
 33 34  1  6  0  0  0
 33 35  1  0  0  0  0
 35 36  1  6  0  0  0
 35 37  1  0  0  0  0
 37 38  1  1  0  0  0
 37 40  1  0  0  0  0
 39 40  1  0  0  0  0
 39 41  1  6  0  0  0
 41 42  1  0  0  0  0
M  CHG  5   4   1  14   1  21   1  36   1  42   1
M  END
>  <CHROM.1>
-166.57899157,46.28603070,-76.72554746,85.69260426,-176.32486906,-45.01885774
177.66077293,-74.94718793,78.75837075,38.19612216,96.58851564,1.69495520
-171.77367806,163.07080864,75.16216105,155.25318585,72.94367228,179.82284143
84.70720840,-156.82824676,-71.35051752,37.24497197,1.58645564,2.45236893
36.85570926,2.27185375,0.63656123,-0.74388225

>  <Name>
1pbr

>  <RI>
0

>  <Rbt.Current_Directory>
/home/itssahil/PROJECTS/Mol_Feturizer/New_Systems/rnas/1pbr

>  <Rbt.Executable>
rbdock ($Id: //depot/dev/client3/rdock/2013.1/src/exe/rbdock.cxx#4 $)

>  <Rbt.Library>
libRbt.so (2013.1, Build901 2013/11/27)

>  <Rbt.Parameter_File>
/export/apps/rDock/src/rDock_2013.1_src/data/scripts/dock_solv.prm

>  <Rbt.Receptor>
prm/blind_docking_80.prm

>  <SCORE>
9.63725

>  <SCORE.INTER>
2.69727

>  <SCORE.INTER.CONST>
1

>  <SCORE.INTER.POLAR>
-5.28096

>  <SCORE.INTER.ROT>
9

>  <SCORE.INTER.SOLV>
46.227

>  <SCORE.INTER.VDW>
-5.60762

>  <SCORE.INTER.norm>
0.0642207

>  <SCORE.INTRA>
5.43996

>  <SCORE.INTRA.DIHEDRAL>
0.658144

>  <SCORE.INTRA.DIHEDRAL.0>
29.7866

>  <SCORE.INTRA.POLAR>
-0.579545

>  <SCORE.INTRA.POLAR.0>
-0.984091

>  <SCORE.INTRA.REPUL>
-0.139346

>  <SCORE.INTRA.REPUL.0>
0.274115

>  <SCORE.INTRA.SOLV>
1.20712

>  <SCORE.INTRA.SOLV.lig_0>
-152.978

>  <SCORE.INTRA.VDW>
7.17452

>  <SCORE.INTRA.VDW.0>
-6.10719

>  <SCORE.INTRA.norm>
0.129523

>  <SCORE.RESTR>
1.50002

>  <SCORE.RESTR.CAVITY>
1.50002

>  <SCORE.RESTR.norm>
0.0357147

>  <SCORE.SYSTEM>
0

>  <SCORE.SYSTEM.CONST>
0

>  <SCORE.SYSTEM.DIHEDRAL>
0

>  <SCORE.SYSTEM.SOLV>
0

>  <SCORE.SYSTEM.norm>
0

>  <SCORE.heavy>
42

>  <SCORE.norm>
0.229458

>  <RMSD>
9.112

$$$$
1pbr
 OpenBabel11021811403D
libRbt.so/2013.1/901 2013/11/27
 42 45  0  0  0  0  0  0  0  0999 V2000
    1.9114    1.1829   34.9767 C   0  0  2  0  0  0  0  0  0  0  0  0
    1.3797    0.3420   36.0318 O   0  0  0  0  0  0  0  0  0  0  0  0
    3.4013    0.7941   34.6489 C   0  0  2  0  0  0  0  0  0  0  0  0
    3.6652   -0.6681   34.6234 N   0  3  0  0  0  0  0  0  0  0  0  0
    4.3823    1.3914   35.6753 C   0  0  1  0  0  0  0  0  0  0  0  0
    5.7288    1.2580   35.2254 O   0  0  0  0  0  0  0  0  0  0  0  0
    4.0750    2.8740   35.9344 C   0  0  2  0  0  0  0  0  0  0  0  0
    5.0179    3.4197   36.8516 O   0  0  0  0  0  0  0  0  0  0  0  0
    2.6157    3.0559   36.4076 C   0  0  2  0  0  0  0  0  0  0  0  0
    1.7671    2.5839   35.3396 O   0  0  0  0  0  0  0  0  0  0  0  0
    2.2299    4.5030   36.7093 C   0  0  0  0  0  0  0  0  0  0  0  0
    3.0391    5.0468   37.7437 O   0  0  0  0  0  0  0  0  0  0  0  0
    0.7243    0.5011   40.2452 C   0  0  1  0  0  0  0  0  0  0  0  0
    0.7656    0.7649   41.6953 N   0  3  0  0  0  0  0  0  0  0  0  0
    0.3080    1.7611   39.4275 C   0  0  2  0  0  0  0  0  0  0  0  0
   -0.9796    2.2166   39.8362 O   0  0  0  0  0  0  0  0  0  0  0  0
    0.2593    1.4543   37.9020 C   0  0  1  0  0  0  0  0  0  0  0  0
    0.0334    2.7027   37.1826 O   0  0  0  0  0  0  0  0  0  0  0  0
    1.5816    0.7930   37.3928 C   0  0  1  0  0  0  0  0  0  0  0  0
    2.0165   -0.4355   38.2545 C   0  0  1  0  0  0  0  0  0  0  0  0
    3.3197   -0.9778   37.8107 N   0  3  0  0  0  0  0  0  0  0  0  0
    2.0947   -0.0509   39.7546 C   0  0  0  0  0  0  0  0  0  0  0  0
   -1.1785    3.4832   37.4352 C   0  0  1  0  0  0  0  0  0  0  0  0
   -0.7743    4.9395   37.7319 C   0  0  2  0  0  0  0  0  0  0  0  0
   -1.7617    5.5936   38.5240 O   0  0  0  0  0  0  0  0  0  0  0  0
   -0.7334    5.4762   36.2931 C   0  0  1  0  0  0  0  0  0  0  0  0
   -1.9817    4.8618   35.6815 C   0  0  2  0  0  0  0  0  0  0  0  0
   -1.9818    3.5587   36.2441 O   0  0  0  0  0  0  0  0  0  0  0  0
   -1.9868    4.7811   34.1494 C   0  0  0  0  0  0  0  0  0  0  0  0
   -2.9975    5.6267   33.6203 O   0  0  0  0  0  0  0  0  0  0  0  0
   -0.3744    9.2229   32.5196 C   0  0  1  0  0  0  0  0  0  0  0  0
    0.6452   10.0883   33.0158 O   0  0  0  0  0  0  0  0  0  0  0  0
    0.1608    7.7642   32.4826 C   0  0  2  0  0  0  0  0  0  0  0  0
   -0.7012    6.9857   31.6559 O   0  0  0  0  0  0  0  0  0  0  0  0
    0.2912    7.0629   33.8744 C   0  0  1  0  0  0  0  0  0  0  0  0
    1.5855    7.4058   34.5038 N   0  3  0  0  0  0  0  0  0  0  0  0
   -0.9221    7.3687   34.7915 C   0  0  1  0  0  0  0  0  0  0  0  0
   -0.7543    6.9241   36.1602 O   0  0  0  0  0  0  0  0  0  0  0  0
   -1.6296    9.2973   33.4249 C   0  0  1  0  0  0  0  0  0  0  0  0
   -1.2571    8.7964   34.7380 O   0  0  0  0  0  0  0  0  0  0  0  0
   -2.2421   10.7067   33.5260 C   0  0  0  0  0  0  0  0  0  0  0  0
   -1.2209   11.7638   33.6614 N   0  3  0  0  0  0  0  0  0  0  0  0
  1  2  1  1  0  0  0
  1  3  1  0  0  0  0
  1 10  1  0  0  0  0
  3  4  1  1  0  0  0
  3  5  1  0  0  0  0
  5  6  1  6  0  0  0
  5  7  1  0  0  0  0
  7  8  1  1  0  0  0
  7  9  1  0  0  0  0
  9 10  1  0  0  0  0
  9 11  1  6  0  0  0
 11 12  1  0  0  0  0
 13 14  1  1  0  0  0
 13 15  1  0  0  0  0
 13 22  1  0  0  0  0
 15 16  1  1  0  0  0
 15 17  1  0  0  0  0
 17 18  1  6  0  0  0
 17 19  1  0  0  0  0
 19  2  1  6  0  0  0
 19 20  1  0  0  0  0
 20 21  1  6  0  0  0
 20 22  1  0  0  0  0
 23 18  1  6  0  0  0
 23 24  1  0  0  0  0
 23 28  1  0  0  0  0
 24 25  1  1  0  0  0
 24 26  1  0  0  0  0
 26 27  1  0  0  0  0
 26 38  1  1  0  0  0
 27 28  1  0  0  0  0
 27 29  1  6  0  0  0
 29 30  1  0  0  0  0
 31 32  1  1  0  0  0
 31 33  1  0  0  0  0
 31 39  1  0  0  0  0
 33 34  1  6  0  0  0
 33 35  1  0  0  0  0
 35 36  1  1  0  0  0
 35 37  1  0  0  0  0
 37 38  1  1  0  0  0
 37 40  1  0  0  0  0
 39 40  1  0  0  0  0
 39 41  1  1  0  0  0
 41 42  1  0  0  0  0
M  CHG  5   4   1  14   1  21   1  36   1  42   1
M  END
>  <CHROM.1>
88.62671077,100.71565867,-19.59993514,-168.20938012,82.10714233,-60.49261290
51.02219122,94.22529101,54.92862517,-60.19688060,128.75083027,78.03679792
-132.97384818,-171.03115908,-114.14894061,-56.12361319,67.69587530,66.76754538
55.11512586,-68.04993548,-41.80732563,-113.06099140,0.72736990,4.22662276
36.04036407,-1.13590587,0.59860990,-0.72340391

>  <Name>
1pbr

>  <RI>
0

>  <Rbt.Current_Directory>
/home/itssahil/PROJECTS/Mol_Feturizer/New_Systems/rnas/1pbr

>  <Rbt.Executable>
rbdock ($Id: //depot/dev/client3/rdock/2013.1/src/exe/rbdock.cxx#4 $)

>  <Rbt.Library>
libRbt.so (2013.1, Build901 2013/11/27)

>  <Rbt.Parameter_File>
/export/apps/rDock/src/rDock_2013.1_src/data/scripts/dock_solv.prm

>  <Rbt.Receptor>
prm/blind_docking_80.prm

>  <SCORE>
-11.9299

>  <SCORE.INTER>
-29.8799

>  <SCORE.INTER.CONST>
1

>  <SCORE.INTER.POLAR>
-4.89262

>  <SCORE.INTER.ROT>
9

>  <SCORE.INTER.SOLV>
30.8797

>  <SCORE.INTER.VDW>
-23.5044

>  <SCORE.INTER.norm>
-0.711426

>  <SCORE.INTRA>
14.692

>  <SCORE.INTRA.DIHEDRAL>
12.0526

>  <SCORE.INTRA.DIHEDRAL.0>
29.7866

>  <SCORE.INTRA.POLAR>
-1.10946

>  <SCORE.INTRA.POLAR.0>
-0.984091

>  <SCORE.INTRA.REPUL>
-0.106556

>  <SCORE.INTRA.REPUL.0>
0.274115

>  <SCORE.INTRA.SOLV>
9.66483

>  <SCORE.INTRA.SOLV.lig_0>
-152.978

>  <SCORE.INTRA.VDW>
8.13821

>  <SCORE.INTRA.VDW.0>
-6.10719

>  <SCORE.INTRA.norm>
0.349809

>  <SCORE.RESTR>
3.25804

>  <SCORE.RESTR.CAVITY>
3.25804

>  <SCORE.RESTR.norm>
0.0775723

>  <SCORE.SYSTEM>
0

>  <SCORE.SYSTEM.CONST>
0

>  <SCORE.SYSTEM.DIHEDRAL>
0

>  <SCORE.SYSTEM.SOLV>
0

>  <SCORE.SYSTEM.norm>
0

>  <SCORE.heavy>
42

>  <SCORE.norm>
-0.284045

>  <RMSD>
9.118

$$$$
1pbr
 OpenBabel11021811403D
libRbt.so/2013.1/901 2013/11/27
 42 45  0  0  0  0  0  0  0  0999 V2000
    0.8590    3.1480   37.8970 C   0  0  2  0  0  0  0  0  0  0  0  0
    1.2872    2.0268   37.0829 O   0  0  0  0  0  0  0  0  0  0  0  0
   -0.6606    3.0097   38.2844 C   0  0  2  0  0  0  0  0  0  0  0  0
   -1.0791    1.6329   38.6554 N   0  3  0  0  0  0  0  0  0  0  0  0
   -1.5823    3.4439   37.1291 C   0  0  1  0  0  0  0  0  0  0  0  0
   -2.9308    3.5662   37.5762 O   0  0  0  0  0  0  0  0  0  0  0  0
   -1.1207    4.7797   36.5272 C   0  0  2  0  0  0  0  0  0  0  0  0
   -2.0090    5.1864   35.4909 O   0  0  0  0  0  0  0  0  0  0  0  0
    0.3449    4.6867   36.0478 C   0  0  2  0  0  0  0  0  0  0  0  0
    1.1486    4.3974   37.2112 O   0  0  0  0  0  0  0  0  0  0  0  0
    0.8802    5.9697   35.4143 C   0  0  0  0  0  0  0  0  0  0  0  0
    0.2673    6.2175   34.1560 O   0  0  0  0  0  0  0  0  0  0  0  0
    4.7358   -0.4651   36.7580 C   0  0  1  0  0  0  0  0  0  0  0  0
    6.0944   -1.0340   36.6918 N   0  3  0  0  0  0  0  0  0  0  0  0
    4.3797    0.0487   38.1859 C   0  0  2  0  0  0  0  0  0  0  0  0
    4.4665   -1.0134   39.1329 O   0  0  0  0  0  0  0  0  0  0  0  0
    2.9373    0.6325   38.2332 C   0  0  1  0  0  0  0  0  0  0  0  0
    2.7259    1.2470   39.5388 O   0  0  0  0  0  0  0  0  0  0  0  0
    2.6966    1.6965   37.1129 C   0  0  1  0  0  0  0  0  0  0  0  0
    3.1089    1.1879   35.6944 C   0  0  1  0  0  0  0  0  0  0  0  0
    2.9637    2.2480   34.6724 N   0  3  0  0  0  0  0  0  0  0  0  0
    4.5697    0.6679   35.7033 C   0  0  0  0  0  0  0  0  0  0  0  0
    2.9516    0.4697   40.7581 C   0  0  1  0  0  0  0  0  0  0  0  0
    2.4850    1.3020   41.9671 C   0  0  2  0  0  0  0  0  0  0  0  0
    3.1682    0.9085   43.1539 O   0  0  0  0  0  0  0  0  0  0  0  0
    1.0046    0.8922   41.9848 C   0  0  1  0  0  0  0  0  0  0  0  0
    1.0789   -0.6054   41.7370 C   0  0  2  0  0  0  0  0  0  0  0  0
    2.1124   -0.6987   40.7686 O   0  0  0  0  0  0  0  0  0  0  0  0
   -0.2101   -1.2443   41.2044 C   0  0  0  0  0  0  0  0  0  0  0  0
   -1.1184   -0.2353   40.7884 O   0  0  0  0  0  0  0  0  0  0  0  0
    1.1589   -0.5705   47.0751 C   0  0  1  0  0  0  0  0  0  0  0  0
    1.1102    0.6619   47.7917 O   0  0  0  0  0  0  0  0  0  0  0  0
   -0.2418   -0.8724   46.4732 C   0  0  2  0  0  0  0  0  0  0  0  0
   -0.2857   -2.2458   46.0930 O   0  0  0  0  0  0  0  0  0  0  0  0
   -0.6448    0.0035   45.2418 C   0  0  1  0  0  0  0  0  0  0  0  0
   -1.2349    1.2833   45.6920 N   0  3  0  0  0  0  0  0  0  0  0  0
    0.5405    0.2011   44.2605 C   0  0  1  0  0  0  0  0  0  0  0  0
    0.2876    1.1749   43.2180 O   0  0  0  0  0  0  0  0  0  0  0  0
    2.2104   -0.4906   45.9399 C   0  0  1  0  0  0  0  0  0  0  0  0
    1.7671    0.5245   44.9982 O   0  0  0  0  0  0  0  0  0  0  0  0
    3.6395   -0.1976   46.4339 C   0  0  0  0  0  0  0  0  0  0  0  0
    3.7588    1.1227   47.0829 N   0  3  0  0  0  0  0  0  0  0  0  0
  1  2  1  6  0  0  0
  1  3  1  0  0  0  0
  1 10  1  0  0  0  0
  3  4  1  6  0  0  0
  3  5  1  0  0  0  0
  5  6  1  1  0  0  0
  5  7  1  0  0  0  0
  7  8  1  6  0  0  0
  7  9  1  0  0  0  0
  9 10  1  0  0  0  0
  9 11  1  1  0  0  0
 11 12  1  0  0  0  0
 13 14  1  1  0  0  0
 13 15  1  0  0  0  0
 13 22  1  0  0  0  0
 15 16  1  1  0  0  0
 15 17  1  0  0  0  0
 17 18  1  1  0  0  0
 17 19  1  0  0  0  0
 19  2  1  6  0  0  0
 19 20  1  0  0  0  0
 20 21  1  6  0  0  0
 20 22  1  0  0  0  0
 23 18  1  6  0  0  0
 23 24  1  0  0  0  0
 23 28  1  0  0  0  0
 24 25  1  1  0  0  0
 24 26  1  0  0  0  0
 26 27  1  0  0  0  0
 26 38  1  1  0  0  0
 27 28  1  0  0  0  0
 27 29  1  6  0  0  0
 29 30  1  0  0  0  0
 31 32  1  6  0  0  0
 31 33  1  0  0  0  0
 31 39  1  0  0  0  0
 33 34  1  6  0  0  0
 33 35  1  0  0  0  0
 35 36  1  1  0  0  0
 35 37  1  0  0  0  0
 37 38  1  6  0  0  0
 37 40  1  0  0  0  0
 39 40  1  0  0  0  0
 39 41  1  1  0  0  0
 41 42  1  0  0  0  0
M  CHG  5   4   1  14   1  21   1  36   1  42   1
M  END
>  <CHROM.1>
-154.70617700,91.67135831,99.64069878,-172.51208895,-60.15058900,-69.78757644
58.80023947,-44.76275604,73.63425531,-54.51827427,-172.92143056,172.79458432
59.02652957,-79.50208621,12.40904974,178.84880805,157.88272255,85.92628063
64.47804921,-150.12016523,-63.42350411,-2.87493273,1.35331357,1.31400375
40.38897461,1.58806341,0.53554715,-1.24056500

>  <Name>
1pbr

>  <RI>
0

>  <Rbt.Current_Directory>
/home/itssahil/PROJECTS/Mol_Feturizer/New_Systems/rnas/1pbr

>  <Rbt.Executable>
rbdock ($Id: //depot/dev/client3/rdock/2013.1/src/exe/rbdock.cxx#4 $)

>  <Rbt.Library>
libRbt.so (2013.1, Build901 2013/11/27)

>  <Rbt.Parameter_File>
/export/apps/rDock/src/rDock_2013.1_src/data/scripts/dock_solv.prm

>  <Rbt.Receptor>
prm/blind_docking_100.prm

>  <SCORE>
-28.4921

>  <SCORE.INTER>
-36.1982

>  <SCORE.INTER.CONST>
1

>  <SCORE.INTER.POLAR>
-7.05065

>  <SCORE.INTER.ROT>
9

>  <SCORE.INTER.SOLV>
44.0767

>  <SCORE.INTER.VDW>
-24.9222

>  <SCORE.INTER.norm>
-0.861861

>  <SCORE.INTRA>
6.3924

>  <SCORE.INTRA.DIHEDRAL>
1.33496

>  <SCORE.INTRA.DIHEDRAL.0>
29.7866

>  <SCORE.INTRA.POLAR>
-0.132821

>  <SCORE.INTRA.POLAR.0>
-0.984091

>  <SCORE.INTRA.REPUL>
-0.151493

>  <SCORE.INTRA.REPUL.0>
0.274115

>  <SCORE.INTRA.SOLV>
6.03155

>  <SCORE.INTRA.SOLV.lig_0>
-152.978

>  <SCORE.INTRA.VDW>
3.9182

>  <SCORE.INTRA.VDW.0>
-6.10719

>  <SCORE.INTRA.norm>
0.1522

>  <SCORE.RESTR>
1.31362

>  <SCORE.RESTR.CAVITY>
1.31362

>  <SCORE.RESTR.norm>
0.0312766

>  <SCORE.SYSTEM>
0

>  <SCORE.SYSTEM.CONST>
0

>  <SCORE.SYSTEM.DIHEDRAL>
0

>  <SCORE.SYSTEM.SOLV>
0

>  <SCORE.SYSTEM.norm>
0

>  <SCORE.heavy>
42

>  <SCORE.norm>
-0.678384

>  <RMSD>
9.120

$$$$
1pbr
 OpenBabel11021811403D
libRbt.so/2013.1/901 2013/11/27
 42 45  0  0  0  0  0  0  0  0999 V2000
    4.1465    0.1125   37.3117 C   0  0  2  0  0  0  0  0  0  0  0  0
    4.2410    1.4422   36.7406 O   0  0  0  0  0  0  0  0  0  0  0  0
    5.0397   -0.0066   38.6025 C   0  0  2  0  0  0  0  0  0  0  0  0
    4.9921    1.1796   39.4964 N   0  3  0  0  0  0  0  0  0  0  0  0
    6.5234   -0.2199   38.2479 C   0  0  1  0  0  0  0  0  0  0  0  0
    7.2723   -0.5876   39.4043 O   0  0  0  0  0  0  0  0  0  0  0  0
    6.6831   -1.3031   37.1705 C   0  0  2  0  0  0  0  0  0  0  0  0
    8.0623   -1.5171   36.8874 O   0  0  0  0  0  0  0  0  0  0  0  0
    5.8687   -0.9435   35.9080 C   0  0  2  0  0  0  0  0  0  0  0  0
    4.4828   -0.8834   36.3065 O   0  0  0  0  0  0  0  0  0  0  0  0
    5.9877   -1.9604   34.7741 C   0  0  0  0  0  0  0  0  0  0  0  0
    5.1400   -3.0799   34.9951 O   0  0  0  0  0  0  0  0  0  0  0  0
    1.6771    4.8074   36.1841 C   0  0  1  0  0  0  0  0  0  0  0  0
    0.5597    5.7323   35.9198 N   0  3  0  0  0  0  0  0  0  0  0  0
    1.4574    3.9713   37.4811 C   0  0  2  0  0  0  0  0  0  0  0  0
    1.3122    4.8312   38.6089 O   0  0  0  0  0  0  0  0  0  0  0  0
    2.6551    3.0125   37.7452 C   0  0  1  0  0  0  0  0  0  0  0  0
    2.3174    2.1428   38.8663 O   0  0  0  0  0  0  0  0  0  0  0  0
    2.9958    2.1388   36.4940 C   0  0  1  0  0  0  0  0  0  0  0  0
    3.1594    2.9839   35.1903 C   0  0  1  0  0  0  0  0  0  0  0  0
    3.3822    2.1229   34.0077 N   0  3  0  0  0  0  0  0  0  0  0  0
    1.9137    3.8776   34.9581 C   0  0  0  0  0  0  0  0  0  0  0  0
    1.5883    0.8959   38.6307 C   0  0  1  0  0  0  0  0  0  0  0  0
    1.8894   -0.0773   39.7858 C   0  0  2  0  0  0  0  0  0  0  0  0
    1.7213   -1.4304   39.3723 O   0  0  0  0  0  0  0  0  0  0  0  0
    0.7975    0.3707   40.7691 C   0  0  1  0  0  0  0  0  0  0  0  0
   -0.4080    0.5426   39.8598 C   0  0  2  0  0  0  0  0  0  0  0  0
    0.1699    1.1251   38.7017 O   0  0  0  0  0  0  0  0  0  0  0  0
   -1.5198    1.4441   40.4120 C   0  0  0  0  0  0  0  0  0  0  0  0
   -0.9623    2.4527   41.2416 O   0  0  0  0  0  0  0  0  0  0  0  0
    0.7387   -0.0721   46.1352 C   0  0  1  0  0  0  0  0  0  0  0  0
   -0.0136   -1.2442   46.4431 O   0  0  0  0  0  0  0  0  0  0  0  0
    2.0496   -0.4780   45.4054 C   0  0  2  0  0  0  0  0  0  0  0  0
    2.9480    0.6284   45.4380 O   0  0  0  0  0  0  0  0  0  0  0  0
    1.8746   -0.9404   43.9217 C   0  0  1  0  0  0  0  0  0  0  0  0
    1.5288   -2.3780   43.8683 N   0  3  0  0  0  0  0  0  0  0  0  0
    0.8616   -0.0504   43.1546 C   0  0  1  0  0  0  0  0  0  0  0  0
    0.5007   -0.5593   41.8470 O   0  0  0  0  0  0  0  0  0  0  0  0
   -0.0902    0.8768   45.2335 C   0  0  1  0  0  0  0  0  0  0  0  0
   -0.3312    0.1907   43.9746 O   0  0  0  0  0  0  0  0  0  0  0  0
   -1.4134    1.3425   45.8694 C   0  0  0  0  0  0  0  0  0  0  0  0
   -1.2549    1.7550   47.2777 N   0  3  0  0  0  0  0  0  0  0  0  0
  1  2  1  6  0  0  0
  1  3  1  0  0  0  0
  1 10  1  0  0  0  0
  3  4  1  6  0  0  0
  3  5  1  0  0  0  0
  5  6  1  1  0  0  0
  5  7  1  0  0  0  0
  7  8  1  6  0  0  0
  7  9  1  0  0  0  0
  9 10  1  0  0  0  0
  9 11  1  6  0  0  0
 11 12  1  0  0  0  0
 13 14  1  6  0  0  0
 13 15  1  0  0  0  0
 13 22  1  0  0  0  0
 15 16  1  1  0  0  0
 15 17  1  0  0  0  0
 17 18  1  1  0  0  0
 17 19  1  0  0  0  0
 19  2  1  1  0  0  0
 19 20  1  0  0  0  0
 20 21  1  6  0  0  0
 20 22  1  0  0  0  0
 23 18  1  1  0  0  0
 23 24  1  0  0  0  0
 23 28  1  0  0  0  0
 24 25  1  6  0  0  0
 24 26  1  0  0  0  0
 26 27  1  0  0  0  0
 26 38  1  1  0  0  0
 27 28  1  0  0  0  0
 27 29  1  1  0  0  0
 29 30  1  0  0  0  0
 31 32  1  6  0  0  0
 31 33  1  0  0  0  0
 31 39  1  0  0  0  0
 33 34  1  6  0  0  0
 33 35  1  0  0  0  0
 35 36  1  1  0  0  0
 35 37  1  0  0  0  0
 37 38  1  6  0  0  0
 37 40  1  0  0  0  0
 39 40  1  0  0  0  0
 39 41  1  1  0  0  0
 41 42  1  0  0  0  0
M  CHG  5   4   1  14   1  21   1  36   1  42   1
M  END
>  <CHROM.1>
-127.13594184,92.60205205,158.55042177,65.67872657,65.80221354,80.18584121
53.09867887,70.08712868,70.27763947,86.82197172,155.71873685,77.57159217
73.94483090,113.66457033,31.20775678,-53.15791698,-73.58592544,-52.64081206
-69.17013433,-121.59106147,44.87245671,-51.04511902,2.39152838,0.75474526
39.75800777,-0.94926207,-0.71075277,2.06357638

>  <Name>
1pbr

>  <RI>
0

>  <Rbt.Current_Directory>
/home/itssahil/PROJECTS/Mol_Feturizer/New_Systems/rnas/1pbr

>  <Rbt.Executable>
rbdock ($Id: //depot/dev/client3/rdock/2013.1/src/exe/rbdock.cxx#4 $)

>  <Rbt.Library>
libRbt.so (2013.1, Build901 2013/11/27)

>  <Rbt.Parameter_File>
/export/apps/rDock/src/rDock_2013.1_src/data/scripts/dock_solv.prm

>  <Rbt.Receptor>
prm/blind_docking_100.prm

>  <SCORE>
48.6488

>  <SCORE.INTER>
39.1255

>  <SCORE.INTER.CONST>
1

>  <SCORE.INTER.POLAR>
-3.17838

>  <SCORE.INTER.ROT>
9

>  <SCORE.INTER.SOLV>
42.6493

>  <SCORE.INTER.VDW>
12.8618

>  <SCORE.INTER.norm>
0.93156

>  <SCORE.INTRA>
5.78714

>  <SCORE.INTRA.DIHEDRAL>
11.8133

>  <SCORE.INTRA.DIHEDRAL.0>
29.7866

>  <SCORE.INTRA.POLAR>
-0.309027

>  <SCORE.INTRA.POLAR.0>
-0.984091

>  <SCORE.INTRA.REPUL>
-0.274115

>  <SCORE.INTRA.REPUL.0>
0.274115

>  <SCORE.INTRA.SOLV>
1.20093

>  <SCORE.INTRA.SOLV.lig_0>
-152.978

>  <SCORE.INTRA.VDW>
1.7013

>  <SCORE.INTRA.VDW.0>
-6.10719

>  <SCORE.INTRA.norm>
0.137789

>  <SCORE.RESTR>
3.73614

>  <SCORE.RESTR.CAVITY>
3.73614

>  <SCORE.RESTR.norm>
0.0889558

>  <SCORE.SYSTEM>
0

>  <SCORE.SYSTEM.CONST>
0

>  <SCORE.SYSTEM.DIHEDRAL>
0

>  <SCORE.SYSTEM.SOLV>
0

>  <SCORE.SYSTEM.norm>
0

>  <SCORE.heavy>
42

>  <SCORE.norm>
1.15831

>  <RMSD>
9.128

$$$$
1pbr
 OpenBabel11021811403D
libRbt.so/2013.1/901 2013/11/27
 42 45  0  0  0  0  0  0  0  0999 V2000
    3.8929    2.2680   35.7562 C   0  0  2  0  0  0  0  0  0  0  0  0
    2.9914    1.1763   36.0701 O   0  0  0  0  0  0  0  0  0  0  0  0
    3.3612    3.6226   36.3567 C   0  0  2  0  0  0  0  0  0  0  0  0
    2.7965    3.5098   37.7265 N   0  3  0  0  0  0  0  0  0  0  0  0
    2.2508    4.2339   35.4815 C   0  0  1  0  0  0  0  0  0  0  0  0
    1.9673    5.5718   35.8850 O   0  0  0  0  0  0  0  0  0  0  0  0
    2.6478    4.2212   33.9976 C   0  0  2  0  0  0  0  0  0  0  0  0
    1.6290    4.8292   33.2098 O   0  0  0  0  0  0  0  0  0  0  0  0
    2.9788    2.7860   33.5318 C   0  0  2  0  0  0  0  0  0  0  0  0
    4.1032    2.3391   34.3188 O   0  0  0  0  0  0  0  0  0  0  0  0
    3.3650    2.6784   32.0576 C   0  0  0  0  0  0  0  0  0  0  0  0
    4.2752    3.7054   31.6873 O   0  0  0  0  0  0  0  0  0  0  0  0
    4.0767   -2.8978   36.7274 C   0  0  1  0  0  0  0  0  0  0  0  0
    4.6032   -4.1796   37.2312 N   0  3  0  0  0  0  0  0  0  0  0  0
    2.9559   -2.3191   37.6431 C   0  0  2  0  0  0  0  0  0  0  0  0
    1.8716   -3.2392   37.7446 O   0  0  0  0  0  0  0  0  0  0  0  0
    2.4078   -0.9735   37.0841 C   0  0  1  0  0  0  0  0  0  0  0  0
    1.4917   -0.4005   38.0636 O   0  0  0  0  0  0  0  0  0  0  0  0
    3.5528    0.0482   36.7835 C   0  0  1  0  0  0  0  0  0  0  0  0
    4.6960   -0.5613   35.9104 C   0  0  1  0  0  0  0  0  0  0  0  0
    5.8096    0.3955   35.7264 N   0  3  0  0  0  0  0  0  0  0  0  0
    5.2318   -1.8698   36.5471 C   0  0  0  0  0  0  0  0  0  0  0  0
    1.7732    0.9113   38.6483 C   0  0  1  0  0  0  0  0  0  0  0  0
    0.7029    1.2167   39.7128 C   0  0  2  0  0  0  0  0  0  0  0  0
    0.5501    2.6214   39.8969 O   0  0  0  0  0  0  0  0  0  0  0  0
    1.3657    0.5401   40.9221 C   0  0  1  0  0  0  0  0  0  0  0  0
    2.8179    0.9635   40.7759 C   0  0  2  0  0  0  0  0  0  0  0  0
    3.0156    0.8795   39.3729 O   0  0  0  0  0  0  0  0  0  0  0  0
    3.8336    0.0796   41.5113 C   0  0  0  0  0  0  0  0  0  0  0  0
    5.1523    0.5465   41.2679 O   0  0  0  0  0  0  0  0  0  0  0  0
    1.9993   -0.6303   46.0872 C   0  0  1  0  0  0  0  0  0  0  0  0
    1.8857    0.6163   46.7712 O   0  0  0  0  0  0  0  0  0  0  0  0
    0.6027   -1.0543   45.5530 C   0  0  2  0  0  0  0  0  0  0  0  0
    0.6482   -2.4380   45.2127 O   0  0  0  0  0  0  0  0  0  0  0  0
    0.0858   -0.2488   44.3162 C   0  0  1  0  0  0  0  0  0  0  0  0
   -0.5815    0.9964   44.7556 N   0  3  0  0  0  0  0  0  0  0  0  0
    1.2127    0.0069   43.2810 C   0  0  1  0  0  0  0  0  0  0  0  0
    0.8453    0.9269   42.2237 O   0  0  0  0  0  0  0  0  0  0  0  0
    2.9958   -0.5066   44.9072 C   0  0  1  0  0  0  0  0  0  0  0  0
    2.4395    0.4434   43.9575 O   0  0  0  0  0  0  0  0  0  0  0  0
    4.4169   -0.0926   45.3326 C   0  0  0  0  0  0  0  0  0  0  0  0
    5.0989   -1.1315   46.1290 N   0  3  0  0  0  0  0  0  0  0  0  0
  1  2  1  6  0  0  0
  1  3  1  0  0  0  0
  1 10  1  0  0  0  0
  3  4  1  1  0  0  0
  3  5  1  0  0  0  0
  5  6  1  1  0  0  0
  5  7  1  0  0  0  0
  7  8  1  6  0  0  0
  7  9  1  0  0  0  0
  9 10  1  0  0  0  0
  9 11  1  6  0  0  0
 11 12  1  0  0  0  0
 13 14  1  1  0  0  0
 13 15  1  0  0  0  0
 13 22  1  0  0  0  0
 15 16  1  6  0  0  0
 15 17  1  0  0  0  0
 17 18  1  1  0  0  0
 17 19  1  0  0  0  0
 19  2  1  6  0  0  0
 19 20  1  0  0  0  0
 20 21  1  1  0  0  0
 20 22  1  0  0  0  0
 23 18  1  1  0  0  0
 23 24  1  0  0  0  0
 23 28  1  0  0  0  0
 24 25  1  1  0  0  0
 24 26  1  0  0  0  0
 26 27  1  0  0  0  0
 26 38  1  1  0  0  0
 27 28  1  0  0  0  0
 27 29  1  1  0  0  0
 29 30  1  0  0  0  0
 31 32  1  6  0  0  0
 31 33  1  0  0  0  0
 31 39  1  0  0  0  0
 33 34  1  6  0  0  0
 33 35  1  0  0  0  0
 35 36  1  1  0  0  0
 35 37  1  0  0  0  0
 37 38  1  6  0  0  0
 37 40  1  0  0  0  0
 39 40  1  0  0  0  0
 39 41  1  1  0  0  0
 41 42  1  0  0  0  0
M  CHG  5   4   1  14   1  21   1  36   1  42   1
M  END
>  <CHROM.1>
-122.88930428,177.12645752,-70.73142337,46.40933003,-179.77553317,44.68398470
-56.05139154,-91.65809863,65.05824080,119.47804737,-176.04038614,-88.57706884
-50.67796008,163.17620915,178.17626189,-52.14702957,178.90533114,-57.02346014
-52.89313081,-141.05759028,67.24740614,-179.12761508,2.72354460,0.72482989
39.21240707,1.28762416,1.11389564,-1.04136024

>  <Name>
1pbr

>  <RI>
0

>  <Rbt.Current_Directory>
/home/itssahil/PROJECTS/Mol_Feturizer/New_Systems/rnas/1pbr

>  <Rbt.Executable>
rbdock ($Id: //depot/dev/client3/rdock/2013.1/src/exe/rbdock.cxx#4 $)

>  <Rbt.Library>
libRbt.so (2013.1, Build901 2013/11/27)

>  <Rbt.Parameter_File>
/export/apps/rDock/src/rDock_2013.1_src/data/scripts/dock_solv.prm

>  <Rbt.Receptor>
prm/blind_docking_100.prm

>  <SCORE>
22.8032

>  <SCORE.INTER>
13.625

>  <SCORE.INTER.CONST>
1

>  <SCORE.INTER.POLAR>
-3.22183

>  <SCORE.INTER.ROT>
9

>  <SCORE.INTER.SOLV>
35.2398

>  <SCORE.INTER.VDW>
-1.52383

>  <SCORE.INTER.norm>
0.324405

>  <SCORE.INTRA>
8.17158

>  <SCORE.INTRA.DIHEDRAL>
-0.92852

>  <SCORE.INTRA.DIHEDRAL.0>
29.7866

>  <SCORE.INTRA.POLAR>
0.028402

>  <SCORE.INTRA.POLAR.0>
-0.984091

>  <SCORE.INTRA.REPUL>
-0.26872

>  <SCORE.INTRA.REPUL.0>
0.274115

>  <SCORE.INTRA.SOLV>
4.25535

>  <SCORE.INTRA.SOLV.lig_0>
-152.978

>  <SCORE.INTRA.VDW>
7.7552

>  <SCORE.INTRA.VDW.0>
-6.10719

>  <SCORE.INTRA.norm>
0.194561

>  <SCORE.RESTR>
1.00662

>  <SCORE.RESTR.CAVITY>
1.00662

>  <SCORE.RESTR.norm>
0.0239673

>  <SCORE.SYSTEM>
0

>  <SCORE.SYSTEM.CONST>
0

>  <SCORE.SYSTEM.DIHEDRAL>
0

>  <SCORE.SYSTEM.SOLV>
0

>  <SCORE.SYSTEM.norm>
0

>  <SCORE.heavy>
42

>  <SCORE.norm>
0.542934

>  <RMSD>
9.134

$$$$
1pbr
 OpenBabel11021811403D
libRbt.so/2013.1/901 2013/11/27
 42 45  0  0  0  0  0  0  0  0999 V2000
    1.2986    3.4092   38.0747 C   0  0  2  0  0  0  0  0  0  0  0  0
    1.6249    2.1468   37.4399 O   0  0  0  0  0  0  0  0  0  0  0  0
   -0.2476    3.5124   38.3523 C   0  0  2  0  0  0  0  0  0  0  0  0
   -0.8689    2.2587   38.8528 N   0  3  0  0  0  0  0  0  0  0  0  0
   -1.0270    3.9027   37.0824 C   0  0  1  0  0  0  0  0  0  0  0  0
   -2.3731    4.2489   37.4011 O   0  0  0  0  0  0  0  0  0  0  0  0
   -0.3538    5.0806   36.3619 C   0  0  2  0  0  0  0  0  0  0  0  0
   -1.1116    5.4552   35.2157 O   0  0  0  0  0  0  0  0  0  0  0  0
    1.1140    4.7445   36.0170 C   0  0  2  0  0  0  0  0  0  0  0  0
    1.7957    4.5125   37.2679 O   0  0  0  0  0  0  0  0  0  0  0  0
    1.8552    5.8571   35.2776 C   0  0  0  0  0  0  0  0  0  0  0  0
    1.7711    5.6844   33.8692 O   0  0  0  0  0  0  0  0  0  0  0  0
    5.0531   -0.2584   36.6213 C   0  0  1  0  0  0  0  0  0  0  0  0
    6.3999   -0.7911   36.3450 N   0  3  0  0  0  0  0  0  0  0  0  0
    4.9260    0.3032   38.0698 C   0  0  2  0  0  0  0  0  0  0  0  0
    5.2085   -0.7164   39.0254 O   0  0  0  0  0  0  0  0  0  0  0  0
    3.4930    0.8476   38.3413 C   0  0  1  0  0  0  0  0  0  0  0  0
    3.4842    1.5089   39.6411 O   0  0  0  0  0  0  0  0  0  0  0  0
    3.0297    1.8577   37.2412 C   0  0  1  0  0  0  0  0  0  0  0  0
    3.2136    1.3032   35.7923 C   0  0  1  0  0  0  0  0  0  0  0  0
    2.8610    2.3162   34.7729 N   0  3  0  0  0  0  0  0  0  0  0  0
    4.6720    0.8253   35.5707 C   0  0  0  0  0  0  0  0  0  0  0  0
    3.6327    0.7192   40.8643 C   0  0  1  0  0  0  0  0  0  0  0  0
    3.0390    1.5162   42.0410 C   0  0  2  0  0  0  0  0  0  0  0  0
    3.6330    1.1252   43.2757 O   0  0  0  0  0  0  0  0  0  0  0  0
    1.5767    1.0592   41.9282 C   0  0  1  0  0  0  0  0  0  0  0  0
    1.7212   -0.4310   41.6671 C   0  0  2  0  0  0  0  0  0  0  0  0
    2.8347   -0.4754   40.7881 O   0  0  0  0  0  0  0  0  0  0  0  0
    0.5032   -1.1019   41.0190 C   0  0  0  0  0  0  0  0  0  0  0  0
   -0.6429   -0.2763   41.1648 O   0  0  0  0  0  0  0  0  0  0  0  0
    1.2034   -0.4931   47.0077 C   0  0  1  0  0  0  0  0  0  0  0  0
    0.8979    0.6958   47.7343 O   0  0  0  0  0  0  0  0  0  0  0  0
   -0.0399   -0.9262   46.1817 C   0  0  2  0  0  0  0  0  0  0  0  0
    0.1386   -2.2791   45.7690 O   0  0  0  0  0  0  0  0  0  0  0  0
   -0.3445   -0.0519   44.9213 C   0  0  1  0  0  0  0  0  0  0  0  0
   -1.1446    1.1340   45.2990 N   0  3  0  0  0  0  0  0  0  0  0  0
    0.9486    0.3178   44.1481 C   0  0  1  0  0  0  0  0  0  0  0  0
    0.7500    1.2986   43.1003 O   0  0  0  0  0  0  0  0  0  0  0  0
    2.4035   -0.2491   46.0585 C   0  0  1  0  0  0  0  0  0  0  0  0
    1.9973    0.7471   45.0805 O   0  0  0  0  0  0  0  0  0  0  0  0
    3.6926    0.1827   46.7823 C   0  0  0  0  0  0  0  0  0  0  0  0
    4.2996   -0.9105   47.5664 N   0  3  0  0  0  0  0  0  0  0  0  0
  1  2  1  6  0  0  0
  1  3  1  0  0  0  0
  1 10  1  0  0  0  0
  3  4  1  6  0  0  0
  3  5  1  0  0  0  0
  5  6  1  1  0  0  0
  5  7  1  0  0  0  0
  7  8  1  6  0  0  0
  7  9  1  0  0  0  0
  9 10  1  0  0  0  0
  9 11  1  1  0  0  0
 11 12  1  0  0  0  0
 13 14  1  6  0  0  0
 13 15  1  0  0  0  0
 13 22  1  0  0  0  0
 15 16  1  1  0  0  0
 15 17  1  0  0  0  0
 17 18  1  1  0  0  0
 17 19  1  0  0  0  0
 19  2  1  1  0  0  0
 19 20  1  0  0  0  0
 20 21  1  6  0  0  0
 20 22  1  0  0  0  0
 23 18  1  6  0  0  0
 23 24  1  0  0  0  0
 23 28  1  0  0  0  0
 24 25  1  1  0  0  0
 24 26  1  0  0  0  0
 26 27  1  0  0  0  0
 26 38  1  1  0  0  0
 27 28  1  0  0  0  0
 27 29  1  6  0  0  0
 29 30  1  0  0  0  0
 31 32  1  6  0  0  0
 31 33  1  0  0  0  0
 31 39  1  0  0  0  0
 33 34  1  6  0  0  0
 33 35  1  0  0  0  0
 35 36  1  1  0  0  0
 35 37  1  0  0  0  0
 37 38  1  6  0  0  0
 37 40  1  0  0  0  0
 39 40  1  0  0  0  0
 39 41  1  1  0  0  0
 41 42  1  0  0  0  0
M  CHG  5   4   1  14   1  21   1  36   1  42   1
M  END
>  <CHROM.1>
-174.24155358,102.04903482,-36.30960178,85.74495134,-61.69093031,-92.87870949
-84.15183948,82.07835965,69.94839816,-68.86474615,-157.44869733,-175.93273183
-178.05922170,-79.38724392,-17.47422536,69.75094563,53.91076989,165.31878758
63.13087744,-143.63422271,70.62904326,-162.97632705,1.81334870,1.42148154
40.36934088,1.54723846,0.53383205,-1.19967230

>  <Name>
1pbr

>  <RI>
0

>  <Rbt.Current_Directory>
/home/itssahil/PROJECTS/Mol_Feturizer/New_Systems/rnas/1pbr

>  <Rbt.Executable>
rbdock ($Id: //depot/dev/client3/rdock/2013.1/src/exe/rbdock.cxx#4 $)

>  <Rbt.Library>
libRbt.so (2013.1, Build901 2013/11/27)

>  <Rbt.Parameter_File>
/export/apps/rDock/src/rDock_2013.1_src/data/scripts/dock_solv.prm

>  <Rbt.Receptor>
prm/blind_docking_100.prm

>  <SCORE>
-19.4137

>  <SCORE.INTER>
-28.2778

>  <SCORE.INTER.CONST>
1

>  <SCORE.INTER.POLAR>
-4.93988

>  <SCORE.INTER.ROT>
9

>  <SCORE.INTER.SOLV>
35.131

>  <SCORE.INTER.VDW>
-23.6959

>  <SCORE.INTER.norm>
-0.673282

>  <SCORE.INTRA>
7.4394

>  <SCORE.INTRA.DIHEDRAL>
3.90643

>  <SCORE.INTRA.DIHEDRAL.0>
29.7866

>  <SCORE.INTRA.POLAR>
0.542087

>  <SCORE.INTRA.POLAR.0>
-0.984091

>  <SCORE.INTRA.REPUL>
-0.180685

>  <SCORE.INTRA.REPUL.0>
0.274115

>  <SCORE.INTRA.SOLV>
3.66303

>  <SCORE.INTRA.SOLV.lig_0>
-152.978

>  <SCORE.INTRA.VDW>
2.715

>  <SCORE.INTRA.VDW.0>
-6.10719

>  <SCORE.INTRA.norm>
0.177129

>  <SCORE.RESTR>
1.42471

>  <SCORE.RESTR.CAVITY>
1.42471

>  <SCORE.RESTR.norm>
0.0339216

>  <SCORE.SYSTEM>
0

>  <SCORE.SYSTEM.CONST>
0

>  <SCORE.SYSTEM.DIHEDRAL>
0

>  <SCORE.SYSTEM.SOLV>
0

>  <SCORE.SYSTEM.norm>
0

>  <SCORE.heavy>
42

>  <SCORE.norm>
-0.462231

>  <RMSD>
9.141

$$$$
1pbr
 OpenBabel11021811403D
libRbt.so/2013.1/901 2013/11/27
 42 45  0  0  0  0  0  0  0  0999 V2000
    5.1063   -2.3184   41.3836 C   0  0  2  0  0  0  0  0  0  0  0  0
    6.5551   -2.3792   41.4007 O   0  0  0  0  0  0  0  0  0  0  0  0
    4.5094   -3.4568   40.4748 C   0  0  2  0  0  0  0  0  0  0  0  0
    5.1857   -4.7729   40.6117 N   0  3  0  0  0  0  0  0  0  0  0  0
    4.5833   -3.0875   38.9812 C   0  0  1  0  0  0  0  0  0  0  0  0
    3.8101   -3.9933   38.1971 O   0  0  0  0  0  0  0  0  0  0  0  0
    4.0873   -1.6534   38.7421 C   0  0  2  0  0  0  0  0  0  0  0  0
    4.1217   -1.3453   37.3521 O   0  0  0  0  0  0  0  0  0  0  0  0
    4.8942   -0.6465   39.5916 C   0  0  2  0  0  0  0  0  0  0  0  0
    4.6709   -0.9921   40.9751 O   0  0  0  0  0  0  0  0  0  0  0  0
    4.4791    0.8111   39.3988 C   0  0  0  0  0  0  0  0  0  0  0  0
    3.1623    1.0400   39.8829 O   0  0  0  0  0  0  0  0  0  0  0  0
    9.3856   -1.1111   44.3312 C   0  0  1  0  0  0  0  0  0  0  0  0
   10.2449   -0.3639   45.2679 N   0  3  0  0  0  0  0  0  0  0  0  0
    7.8851   -1.0780   44.7520 C   0  0  2  0  0  0  0  0  0  0  0  0
    7.7207   -1.6372   46.0531 O   0  0  0  0  0  0  0  0  0  0  0  0
    7.0008   -1.8836   43.7557 C   0  0  1  0  0  0  0  0  0  0  0  0
    5.5996   -1.6752   44.1027 O   0  0  0  0  0  0  0  0  0  0  0  0
    7.2393   -1.4477   42.2730 C   0  0  1  0  0  0  0  0  0  0  0  0
    8.7514   -1.4327   41.8809 C   0  0  1  0  0  0  0  0  0  0  0  0
    8.9524   -0.9220   40.5067 N   0  3  0  0  0  0  0  0  0  0  0  0
    9.5672   -0.5738   42.8815 C   0  0  0  0  0  0  0  0  0  0  0  0
    5.1098   -2.0577   45.4277 C   0  0  1  0  0  0  0  0  0  0  0  0
    3.6423   -1.6090   45.5595 C   0  0  2  0  0  0  0  0  0  0  0  0
    3.2883   -1.4106   46.9253 O   0  0  0  0  0  0  0  0  0  0  0  0
    2.9575   -2.8438   44.9543 C   0  0  1  0  0  0  0  0  0  0  0  0
    3.7408   -3.9877   45.5769 C   0  0  2  0  0  0  0  0  0  0  0  0
    5.0700   -3.4904   45.5516 O   0  0  0  0  0  0  0  0  0  0  0  0
    3.6564   -5.3225   44.8255 C   0  0  0  0  0  0  0  0  0  0  0  0
    4.3159   -5.2188   43.5723 O   0  0  0  0  0  0  0  0  0  0  0  0
   -0.9462   -6.4982   44.8835 C   0  0  1  0  0  0  0  0  0  0  0  0
   -1.8168   -6.1540   45.9598 O   0  0  0  0  0  0  0  0  0  0  0  0
   -1.0761   -5.4365   43.7559 C   0  0  2  0  0  0  0  0  0  0  0  0
   -0.5082   -5.9709   42.5623 O   0  0  0  0  0  0  0  0  0  0  0  0
   -0.4076   -4.0550   44.0562 C   0  0  1  0  0  0  0  0  0  0  0  0
   -1.3321   -3.1925   44.8247 N   0  3  0  0  0  0  0  0  0  0  0  0
    0.9730   -4.2184   44.7447 C   0  0  1  0  0  0  0  0  0  0  0  0
    1.5375   -2.9783   45.2373 O   0  0  0  0  0  0  0  0  0  0  0  0
    0.5209   -6.5598   45.3781 C   0  0  1  0  0  0  0  0  0  0  0  0
    0.8973   -5.2238   45.8109 O   0  0  0  0  0  0  0  0  0  0  0  0
    0.7579   -7.5893   46.4988 C   0  0  0  0  0  0  0  0  0  0  0  0
    2.1159   -7.5067   47.0710 N   0  3  0  0  0  0  0  0  0  0  0  0
  1  2  1  6  0  0  0
  1  3  1  0  0  0  0
  1 10  1  0  0  0  0
  3  4  1  6  0  0  0
  3  5  1  0  0  0  0
  5  6  1  6  0  0  0
  5  7  1  0  0  0  0
  7  8  1  6  0  0  0
  7  9  1  0  0  0  0
  9 10  1  0  0  0  0
  9 11  1  1  0  0  0
 11 12  1  0  0  0  0
 13 14  1  1  0  0  0
 13 15  1  0  0  0  0
 13 22  1  0  0  0  0
 15 16  1  1  0  0  0
 15 17  1  0  0  0  0
 17 18  1  1  0  0  0
 17 19  1  0  0  0  0
 19  2  1  6  0  0  0
 19 20  1  0  0  0  0
 20 21  1  6  0  0  0
 20 22  1  0  0  0  0
 23 18  1  6  0  0  0
 23 24  1  0  0  0  0
 23 28  1  0  0  0  0
 24 25  1  1  0  0  0
 24 26  1  0  0  0  0
 26 27  1  0  0  0  0
 26 38  1  1  0  0  0
 27 28  1  0  0  0  0
 27 29  1  6  0  0  0
 29 30  1  0  0  0  0
 31 32  1  1  0  0  0
 31 33  1  0  0  0  0
 31 39  1  0  0  0  0
 33 34  1  6  0  0  0
 33 35  1  0  0  0  0
 35 36  1  1  0  0  0
 35 37  1  0  0  0  0
 37 38  1  1  0  0  0
 37 40  1  0  0  0  0
 39 40  1  0  0  0  0
 39 41  1  1  0  0  0
 41 42  1  0  0  0  0
M  CHG  5   4   1  14   1  21   1  36   1  42   1
M  END
>  <CHROM.1>
-175.79078884,71.07088953,-53.89765242,178.03103395,177.05820259,66.39236969
-176.32227101,-158.68689416,-59.45657201,-59.73406851,174.87673476,86.69431967
-158.76769476,-174.77166068,67.63270084,61.64221489,167.11857722,70.52337095
-176.37948282,-136.85764206,-172.56918271,-175.30487207,4.03126011,-3.01511241
43.23496023,0.54159560,-0.45036677,-1.30367758

>  <Name>
1pbr

>  <RI>
0

>  <Rbt.Current_Directory>
/home/itssahil/PROJECTS/Mol_Feturizer/New_Systems/rnas/1pbr

>  <Rbt.Executable>
rbdock ($Id: //depot/dev/client3/rdock/2013.1/src/exe/rbdock.cxx#4 $)

>  <Rbt.Library>
libRbt.so (2013.1, Build901 2013/11/27)

>  <Rbt.Parameter_File>
/export/apps/rDock/src/rDock_2013.1_src/data/scripts/dock_solv.prm

>  <Rbt.Receptor>
prm/pocket_docking_7.prm

>  <SCORE>
-31.2827

>  <SCORE.INTER>
-22.8735

>  <SCORE.INTER.CONST>
1

>  <SCORE.INTER.POLAR>
-4.05114

>  <SCORE.INTER.ROT>
9

>  <SCORE.INTER.SOLV>
14.6695

>  <SCORE.INTER.VDW>
-16.235

>  <SCORE.INTER.norm>
-0.544606

>  <SCORE.INTRA>
-8.47764

>  <SCORE.INTRA.DIHEDRAL>
-15.7742

>  <SCORE.INTRA.DIHEDRAL.0>
29.7866

>  <SCORE.INTRA.POLAR>
-0.301266

>  <SCORE.INTRA.POLAR.0>
-0.984091

>  <SCORE.INTRA.REPUL>
-0.274115

>  <SCORE.INTRA.REPUL.0>
0.274115

>  <SCORE.INTRA.SOLV>
-0.869388

>  <SCORE.INTRA.SOLV.lig_0>
-152.978

>  <SCORE.INTRA.VDW>
2.23902

>  <SCORE.INTRA.VDW.0>
-6.10719

>  <SCORE.INTRA.norm>
-0.201849

>  <SCORE.RESTR>
0.0684003

>  <SCORE.RESTR.CAVITY>
0.0684003

>  <SCORE.RESTR.norm>
0.00162858

>  <SCORE.SYSTEM>
0

>  <SCORE.SYSTEM.CONST>
0

>  <SCORE.SYSTEM.DIHEDRAL>
0

>  <SCORE.SYSTEM.SOLV>
0

>  <SCORE.SYSTEM.norm>
0

>  <SCORE.heavy>
42

>  <SCORE.norm>
-0.744826

>  <RMSD>
9.142

$$$$
1pbr
 OpenBabel11021811403D
libRbt.so/2013.1/901 2013/11/27
 42 45  0  0  0  0  0  0  0  0999 V2000
    3.8976    0.2582   35.6721 C   0  0  2  0  0  0  0  0  0  0  0  0
    3.5754    1.3802   36.5326 O   0  0  0  0  0  0  0  0  0  0  0  0
    3.1293   -1.0370   36.1306 C   0  0  2  0  0  0  0  0  0  0  0  0
    1.7182   -0.8057   36.5352 N   0  3  0  0  0  0  0  0  0  0  0  0
    3.8179   -1.7091   37.3334 C   0  0  1  0  0  0  0  0  0  0  0  0
    3.2743   -3.0063   37.5679 O   0  0  0  0  0  0  0  0  0  0  0  0
    5.3332   -1.8234   37.1086 C   0  0  2  0  0  0  0  0  0  0  0  0
    5.9462   -2.4858   38.2104 O   0  0  0  0  0  0  0  0  0  0  0  0
    5.9521   -0.4349   36.8340 C   0  0  2  0  0  0  0  0  0  0  0  0
    5.3386    0.0660   35.6274 O   0  0  0  0  0  0  0  0  0  0  0  0
    7.4645   -0.4536   36.6190 C   0  0  0  0  0  0  0  0  0  0  0  0
    7.9443    0.8242   36.2222 O   0  0  0  0  0  0  0  0  0  0  0  0
    1.2121    4.9098   36.1273 C   0  0  1  0  0  0  0  0  0  0  0  0
    0.1839    5.9215   35.8219 N   0  3  0  0  0  0  0  0  0  0  0  0
    0.7110    3.8502   37.1548 C   0  0  2  0  0  0  0  0  0  0  0  0
    0.3285    4.4817   38.3744 O   0  0  0  0  0  0  0  0  0  0  0  0
    1.8174    2.8015   37.4704 C   0  0  1  0  0  0  0  0  0  0  0  0
    1.2392    1.7487   38.2978 O   0  0  0  0  0  0  0  0  0  0  0  0
    2.4174    2.1709   36.1714 C   0  0  1  0  0  0  0  0  0  0  0  0
    2.8653    3.2434   35.1274 C   0  0  1  0  0  0  0  0  0  0  0  0
    3.3354    2.6177   33.8716 N   0  3  0  0  0  0  0  0  0  0  0  0
    1.7047    4.2245   34.8192 C   0  0  0  0  0  0  0  0  0  0  0  0
    0.8567    2.0332   39.6815 C   0  0  1  0  0  0  0  0  0  0  0  0
    0.2277    0.7658   40.2898 C   0  0  2  0  0  0  0  0  0  0  0  0
   -0.6591    1.0952   41.3553 O   0  0  0  0  0  0  0  0  0  0  0  0
    1.5071    0.0778   40.7893 C   0  0  1  0  0  0  0  0  0  0  0  0
    2.2807    1.2343   41.4005 C   0  0  2  0  0  0  0  0  0  0  0  0
    2.0254    2.2854   40.4815 O   0  0  0  0  0  0  0  0  0  0  0  0
    3.7911    1.0067   41.5441 C   0  0  0  0  0  0  0  0  0  0  0  0
    4.3928    2.1208   42.1869 O   0  0  0  0  0  0  0  0  0  0  0  0
   -0.5244   -0.5583   45.6541 C   0  0  1  0  0  0  0  0  0  0  0  0
    0.5859   -1.0802   46.3819 O   0  0  0  0  0  0  0  0  0  0  0  0
   -0.0994    0.7531   44.9363 C   0  0  2  0  0  0  0  0  0  0  0  0
   -1.2755    1.4516   44.5342 O   0  0  0  0  0  0  0  0  0  0  0  0
    0.8249    0.5648   43.6889 C   0  0  1  0  0  0  0  0  0  0  0  0
    2.2403    0.4646   44.1080 N   0  3  0  0  0  0  0  0  0  0  0  0
    0.3729   -0.6311   42.8100 C   0  0  1  0  0  0  0  0  0  0  0  0
    1.3119   -0.9833   41.7644 O   0  0  0  0  0  0  0  0  0  0  0  0
   -1.0154   -1.5916   44.6093 C   0  0  1  0  0  0  0  0  0  0  0  0
    0.0578   -1.7928   43.6493 O   0  0  0  0  0  0  0  0  0  0  0  0
   -1.4652   -2.9313   45.2217 C   0  0  0  0  0  0  0  0  0  0  0  0
   -0.3575   -3.8975   45.3554 N   0  3  0  0  0  0  0  0  0  0  0  0
  1  2  1  1  0  0  0
  1  3  1  0  0  0  0
  1 10  1  0  0  0  0
  3  4  1  1  0  0  0
  3  5  1  0  0  0  0
  5  6  1  6  0  0  0
  5  7  1  0  0  0  0
  7  8  1  1  0  0  0
  7  9  1  0  0  0  0
  9 10  1  0  0  0  0
  9 11  1  6  0  0  0
 11 12  1  0  0  0  0
 13 14  1  6  0  0  0
 13 15  1  0  0  0  0
 13 22  1  0  0  0  0
 15 16  1  1  0  0  0
 15 17  1  0  0  0  0
 17 18  1  1  0  0  0
 17 19  1  0  0  0  0
 19  2  1  1  0  0  0
 19 20  1  0  0  0  0
 20 21  1  6  0  0  0
 20 22  1  0  0  0  0
 23 18  1  6  0  0  0
 23 24  1  0  0  0  0
 23 28  1  0  0  0  0
 24 25  1  1  0  0  0
 24 26  1  0  0  0  0
 26 27  1  0  0  0  0
 26 38  1  1  0  0  0
 27 28  1  0  0  0  0
 27 29  1  6  0  0  0
 29 30  1  0  0  0  0
 31 32  1  6  0  0  0
 31 33  1  0  0  0  0
 31 39  1  0  0  0  0
 33 34  1  6  0  0  0
 33 35  1  0  0  0  0
 35 36  1  1  0  0  0
 35 37  1  0  0  0  0
 37 38  1  6  0  0  0
 37 40  1  0  0  0  0
 39 40  1  0  0  0  0
 39 41  1  1  0  0  0
 41 42  1  0  0  0  0
M  CHG  5   4   1  14   1  21   1  36   1  42   1
M  END
>  <CHROM.1>
-88.00826146,151.91052638,-56.85008946,65.54729979,71.23459857,173.32189935
55.29012037,-68.11885061,65.16756358,-69.70535808,177.73835318,-49.18770187
34.81475301,-45.14596522,-176.99099724,174.72450012,170.00294049,-128.16513362
28.21480715,-62.93659918,-88.74122241,53.19399193,2.11276171,0.63382305,39.64632818
-1.01008808,-0.75877180,2.25764267

>  <Name>
1pbr

>  <RI>
0

>  <Rbt.Current_Directory>
/home/itssahil/PROJECTS/Mol_Feturizer/New_Systems/rnas/1pbr

>  <Rbt.Executable>
rbdock ($Id: //depot/dev/client3/rdock/2013.1/src/exe/rbdock.cxx#4 $)

>  <Rbt.Library>
libRbt.so (2013.1, Build901 2013/11/27)

>  <Rbt.Parameter_File>
/export/apps/rDock/src/rDock_2013.1_src/data/scripts/dock_solv.prm

>  <Rbt.Receptor>
prm/blind_docking_100.prm

>  <SCORE>
-16.5554

>  <SCORE.INTER>
-24.0157

>  <SCORE.INTER.CONST>
1

>  <SCORE.INTER.POLAR>
-4.40263

>  <SCORE.INTER.ROT>
9

>  <SCORE.INTER.SOLV>
34.1258

>  <SCORE.INTER.VDW>
-22.3103

>  <SCORE.INTER.norm>
-0.571803

>  <SCORE.INTRA>
5.53579

>  <SCORE.INTRA.DIHEDRAL>
-4.82426

>  <SCORE.INTRA.DIHEDRAL.0>
29.7866

>  <SCORE.INTRA.POLAR>
-0.648519

>  <SCORE.INTRA.POLAR.0>
-0.984091

>  <SCORE.INTRA.REPUL>
-0.274115

>  <SCORE.INTRA.REPUL.0>
0.274115

>  <SCORE.INTRA.SOLV>
7.20441

>  <SCORE.INTRA.SOLV.lig_0>
-152.978

>  <SCORE.INTRA.VDW>
7.92125

>  <SCORE.INTRA.VDW.0>
-6.10719

>  <SCORE.INTRA.norm>
0.131804

>  <SCORE.RESTR>
1.92452

>  <SCORE.RESTR.CAVITY>
1.92452

>  <SCORE.RESTR.norm>
0.0458219

>  <SCORE.SYSTEM>
0

>  <SCORE.SYSTEM.CONST>
0

>  <SCORE.SYSTEM.DIHEDRAL>
0

>  <SCORE.SYSTEM.SOLV>
0

>  <SCORE.SYSTEM.norm>
0

>  <SCORE.heavy>
42

>  <SCORE.norm>
-0.394177

>  <RMSD>
9.190

$$$$
1pbr
 OpenBabel11021811403D
libRbt.so/2013.1/901 2013/11/27
 42 45  0  0  0  0  0  0  0  0999 V2000
    4.9451   -0.0492   36.7951 C   0  0  2  0  0  0  0  0  0  0  0  0
    4.4600    1.1425   37.4642 O   0  0  0  0  0  0  0  0  0  0  0  0
    5.6547   -1.0144   37.8165 C   0  0  2  0  0  0  0  0  0  0  0  0
    4.9653   -1.1394   39.1271 N   0  3  0  0  0  0  0  0  0  0  0  0
    7.0915   -0.5544   38.1273 C   0  0  1  0  0  0  0  0  0  0  0  0
    7.8049   -1.5662   38.8348 O   0  0  0  0  0  0  0  0  0  0  0  0
    7.8490   -0.2020   36.8383 C   0  0  2  0  0  0  0  0  0  0  0  0
    9.1874    0.1787   37.1416 O   0  0  0  0  0  0  0  0  0  0  0  0
    7.0926    0.8813   36.0377 C   0  0  2  0  0  0  0  0  0  0  0  0
    5.8092    0.3224   35.6858 O   0  0  0  0  0  0  0  0  0  0  0  0
    7.7890    1.3078   34.7465 C   0  0  0  0  0  0  0  0  0  0  0  0
    9.0223    1.9605   35.0178 O   0  0  0  0  0  0  0  0  0  0  0  0
    2.1079    4.1099   35.4970 C   0  0  1  0  0  0  0  0  0  0  0  0
    1.0474    4.9057   34.8520 N   0  3  0  0  0  0  0  0  0  0  0  0
    1.8616    3.9261   37.0251 C   0  0  2  0  0  0  0  0  0  0  0  0
    1.7957    5.1936   37.6745 O   0  0  0  0  0  0  0  0  0  0  0  0
    3.0001    3.0944   37.6852 C   0  0  1  0  0  0  0  0  0  0  0  0
    2.6302    2.8130   39.0676 O   0  0  0  0  0  0  0  0  0  0  0  0
    3.2575    1.7486   36.9318 C   0  0  1  0  0  0  0  0  0  0  0  0
    3.4484    1.9414   35.3933 C   0  0  1  0  0  0  0  0  0  0  0  0
    3.5904    0.6443   34.6955 N   0  3  0  0  0  0  0  0  0  0  0  0
    2.2584    2.7314   34.7895 C   0  0  0  0  0  0  0  0  0  0  0  0
    3.3476    1.7840   39.8215 C   0  0  1  0  0  0  0  0  0  0  0  0
    3.2908    2.1400   41.3188 C   0  0  2  0  0  0  0  0  0  0  0  0
    4.3898    1.5686   42.0230 O   0  0  0  0  0  0  0  0  0  0  0  0
    1.9572    1.4664   41.6763 C   0  0  1  0  0  0  0  0  0  0  0  0
    2.0549    0.1408   40.9396 C   0  0  2  0  0  0  0  0  0  0  0  0
    2.6664    0.5212   39.7165 O   0  0  0  0  0  0  0  0  0  0  0  0
    0.7157   -0.5580   40.6714 C   0  0  0  0  0  0  0  0  0  0  0  0
   -0.0736   -0.5683   41.8518 O   0  0  0  0  0  0  0  0  0  0  0  0
    4.1339   -1.1410   45.7669 C   0  0  1  0  0  0  0  0  0  0  0  0
    3.0545   -1.9498   46.2311 O   0  0  0  0  0  0  0  0  0  0  0  0
    4.3369   -1.3768   44.2442 C   0  0  2  0  0  0  0  0  0  0  0  0
    5.6176   -0.8717   43.8738 O   0  0  0  0  0  0  0  0  0  0  0  0
    3.2548   -0.7331   43.3165 C   0  0  1  0  0  0  0  0  0  0  0  0
    2.0863   -1.6317   43.1888 N   0  3  0  0  0  0  0  0  0  0  0  0
    2.8664    0.6938   43.7854 C   0  0  1  0  0  0  0  0  0  0  0  0
    1.7209    1.2507   43.0948 O   0  0  0  0  0  0  0  0  0  0  0  0
    3.8346    0.3564   46.0295 C   0  0  1  0  0  0  0  0  0  0  0  0
    2.6693    0.7188   45.2393 O   0  0  0  0  0  0  0  0  0  0  0  0
    3.6203    0.6975   47.5160 C   0  0  0  0  0  0  0  0  0  0  0  0
    3.0217   -0.4171   48.2762 N   0  3  0  0  0  0  0  0  0  0  0  0
  1  2  1  1  0  0  0
  1  3  1  0  0  0  0
  1 10  1  0  0  0  0
  3  4  1  1  0  0  0
  3  5  1  0  0  0  0
  5  6  1  6  0  0  0
  5  7  1  0  0  0  0
  7  8  1  1  0  0  0
  7  9  1  0  0  0  0
  9 10  1  0  0  0  0
  9 11  1  6  0  0  0
 11 12  1  0  0  0  0
 13 14  1  6  0  0  0
 13 15  1  0  0  0  0
 13 22  1  0  0  0  0
 15 16  1  1  0  0  0
 15 17  1  0  0  0  0
 17 18  1  1  0  0  0
 17 19  1  0  0  0  0
 19  2  1  1  0  0  0
 19 20  1  0  0  0  0
 20 21  1  6  0  0  0
 20 22  1  0  0  0  0
 23 18  1  6  0  0  0
 23 24  1  0  0  0  0
 23 28  1  0  0  0  0
 24 25  1  1  0  0  0
 24 26  1  0  0  0  0
 26 27  1  0  0  0  0
 26 38  1  1  0  0  0
 27 28  1  0  0  0  0
 27 29  1  6  0  0  0
 29 30  1  0  0  0  0
 31 32  1  6  0  0  0
 31 33  1  0  0  0  0
 31 39  1  0  0  0  0
 33 34  1  6  0  0  0
 33 35  1  0  0  0  0
 35 36  1  1  0  0  0
 35 37  1  0  0  0  0
 37 38  1  6  0  0  0
 37 40  1  0  0  0  0
 39 40  1  0  0  0  0
 39 41  1  1  0  0  0
 41 42  1  0  0  0  0
M  CHG  5   4   1  14   1  21   1  36   1  42   1
M  END
>  <CHROM.1>
-148.22999401,-173.69927336,-106.45970613,-53.02617577,-43.82642550,-65.64355256
56.20014184,-156.61981567,-46.78822001,165.00301818,152.25904370,27.30321310
-47.43270888,-45.83745584,-47.09381477,-179.03540508,68.28532034,64.60578616
33.46706417,-64.65519277,-31.34529984,-151.18365670,3.93965156,0.79566373
39.93113151,-1.35005374,-0.47477945,1.90504009

>  <Name>
1pbr

>  <RI>
0

>  <Rbt.Current_Directory>
/home/itssahil/PROJECTS/Mol_Feturizer/New_Systems/rnas/1pbr

>  <Rbt.Executable>
rbdock ($Id: //depot/dev/client3/rdock/2013.1/src/exe/rbdock.cxx#4 $)

>  <Rbt.Library>
libRbt.so (2013.1, Build901 2013/11/27)

>  <Rbt.Parameter_File>
/export/apps/rDock/src/rDock_2013.1_src/data/scripts/dock_solv.prm

>  <Rbt.Receptor>
prm/blind_docking_100.prm

>  <SCORE>
-11.5442

>  <SCORE.INTER>
-23.2714

>  <SCORE.INTER.CONST>
1

>  <SCORE.INTER.POLAR>
-3.75607

>  <SCORE.INTER.ROT>
9

>  <SCORE.INTER.SOLV>
28.0813

>  <SCORE.INTER.VDW>
-21.9545

>  <SCORE.INTER.norm>
-0.554082

>  <SCORE.INTRA>
5.84566

>  <SCORE.INTRA.DIHEDRAL>
-3.10945

>  <SCORE.INTRA.DIHEDRAL.0>
29.7866

>  <SCORE.INTRA.POLAR>
-3.22519

>  <SCORE.INTRA.POLAR.0>
-0.984091

>  <SCORE.INTRA.REPUL>
-0.252387

>  <SCORE.INTRA.REPUL.0>
0.274115

>  <SCORE.INTRA.SOLV>
14.1334

>  <SCORE.INTRA.SOLV.lig_0>
-152.978

>  <SCORE.INTRA.VDW>
12.5612

>  <SCORE.INTRA.VDW.0>
-6.10719

>  <SCORE.INTRA.norm>
0.139182

>  <SCORE.RESTR>
5.88159

>  <SCORE.RESTR.CAVITY>
5.88159

>  <SCORE.RESTR.norm>
0.140038

>  <SCORE.SYSTEM>
0

>  <SCORE.SYSTEM.CONST>
0

>  <SCORE.SYSTEM.DIHEDRAL>
0

>  <SCORE.SYSTEM.SOLV>
0

>  <SCORE.SYSTEM.norm>
0

>  <SCORE.heavy>
42

>  <SCORE.norm>
-0.274862

>  <RMSD>
9.210

$$$$
1pbr
 OpenBabel11021811403D
libRbt.so/2013.1/901 2013/11/27
 42 45  0  0  0  0  0  0  0  0999 V2000
    6.0484   -2.8047   39.4128 C   0  0  2  0  0  0  0  0  0  0  0  0
    6.3205   -2.2322   38.1084 O   0  0  0  0  0  0  0  0  0  0  0  0
    7.3859   -3.2232   40.1299 C   0  0  2  0  0  0  0  0  0  0  0  0
    8.4989   -2.2509   39.9743 N   0  3  0  0  0  0  0  0  0  0  0  0
    7.9141   -4.5709   39.6034 C   0  0  1  0  0  0  0  0  0  0  0  0
    8.9642   -5.0621   40.4336 O   0  0  0  0  0  0  0  0  0  0  0  0
    6.7892   -5.6145   39.5317 C   0  0  2  0  0  0  0  0  0  0  0  0
    7.3045   -6.8647   39.0848 O   0  0  0  0  0  0  0  0  0  0  0  0
    5.6257   -5.1055   38.6520 C   0  0  2  0  0  0  0  0  0  0  0  0
    5.1147   -3.9121   39.2828 O   0  0  0  0  0  0  0  0  0  0  0  0
    4.4690   -6.0932   38.5089 C   0  0  0  0  0  0  0  0  0  0  0  0
    3.4424   -5.5673   37.6782 O   0  0  0  0  0  0  0  0  0  0  0  0
    5.1911    1.7233   36.9744 C   0  0  1  0  0  0  0  0  0  0  0  0
    4.5064    2.9409   36.5027 N   0  3  0  0  0  0  0  0  0  0  0  0
    4.5775    1.1764   38.2988 C   0  0  2  0  0  0  0  0  0  0  0  0
    4.6559    2.1607   39.3273 O   0  0  0  0  0  0  0  0  0  0  0  0
    5.3247   -0.1006   38.7830 C   0  0  1  0  0  0  0  0  0  0  0  0
    4.6043   -0.6586   39.9217 O   0  0  0  0  0  0  0  0  0  0  0  0
    5.4336   -1.1804   37.6571 C   0  0  1  0  0  0  0  0  0  0  0  0
    5.9989   -0.6064   36.3186 C   0  0  1  0  0  0  0  0  0  0  0  0
    5.9969   -1.6251   35.2455 N   0  3  0  0  0  0  0  0  0  0  0  0
    5.1810    0.6307   35.8656 C   0  0  0  0  0  0  0  0  0  0  0  0
    4.4196    0.1412   41.1333 C   0  0  1  0  0  0  0  0  0  0  0  0
    3.2769   -0.4752   41.9617 C   0  0  2  0  0  0  0  0  0  0  0  0
    2.6639    0.5036   42.7963 O   0  0  0  0  0  0  0  0  0  0  0  0
    4.0890   -1.5006   42.7672 C   0  0  1  0  0  0  0  0  0  0  0  0
    5.3240   -0.7045   43.1552 C   0  0  2  0  0  0  0  0  0  0  0  0
    5.5805    0.0451   41.9775 O   0  0  0  0  0  0  0  0  0  0  0  0
    6.5517   -1.5445   43.5306 C   0  0  0  0  0  0  0  0  0  0  0  0
    7.7057   -0.7196   43.5941 O   0  0  0  0  0  0  0  0  0  0  0  0
    4.9645   -4.6114   47.0634 C   0  0  1  0  0  0  0  0  0  0  0  0
    3.9514   -4.2864   48.0135 O   0  0  0  0  0  0  0  0  0  0  0  0
    4.3154   -5.3114   45.8369 C   0  0  2  0  0  0  0  0  0  0  0  0
    5.3423   -5.9553   45.0862 O   0  0  0  0  0  0  0  0  0  0  0  0
    3.5061   -4.3744   44.8815 C   0  0  1  0  0  0  0  0  0  0  0  0
    2.1229   -4.2040   45.3783 N   0  3  0  0  0  0  0  0  0  0  0  0
    4.2307   -3.0228   44.6473 C   0  0  1  0  0  0  0  0  0  0  0  0
    3.4311   -2.0378   43.9476 O   0  0  0  0  0  0  0  0  0  0  0  0
    5.7019   -3.3284   46.6043 C   0  0  1  0  0  0  0  0  0  0  0  0
    4.7365   -2.4867   45.9162 O   0  0  0  0  0  0  0  0  0  0  0  0
    6.3859   -2.5592   47.7499 C   0  0  0  0  0  0  0  0  0  0  0  0
    5.4555   -2.2208   48.8446 N   0  3  0  0  0  0  0  0  0  0  0  0
  1  2  1  6  0  0  0
  1  3  1  0  0  0  0
  1 10  1  0  0  0  0
  3  4  1  6  0  0  0
  3  5  1  0  0  0  0
  5  6  1  1  0  0  0
  5  7  1  0  0  0  0
  7  8  1  6  0  0  0
  7  9  1  0  0  0  0
  9 10  1  0  0  0  0
  9 11  1  1  0  0  0
 11 12  1  0  0  0  0
 13 14  1  6  0  0  0
 13 15  1  0  0  0  0
 13 22  1  0  0  0  0
 15 16  1  1  0  0  0
 15 17  1  0  0  0  0
 17 18  1  1  0  0  0
 17 19  1  0  0  0  0
 19  2  1  1  0  0  0
 19 20  1  0  0  0  0
 20 21  1  6  0  0  0
 20 22  1  0  0  0  0
 23 18  1  6  0  0  0
 23 24  1  0  0  0  0
 23 28  1  0  0  0  0
 24 25  1  1  0  0  0
 24 26  1  0  0  0  0
 26 27  1  0  0  0  0
 26 38  1  1  0  0  0
 27 28  1  0  0  0  0
 27 29  1  6  0  0  0
 29 30  1  0  0  0  0
 31 32  1  1  0  0  0
 31 33  1  0  0  0  0
 31 39  1  0  0  0  0
 33 34  1  6  0  0  0
 33 35  1  0  0  0  0
 35 36  1  1  0  0  0
 35 37  1  0  0  0  0
 37 38  1  1  0  0  0
 37 40  1  0  0  0  0
 39 40  1  0  0  0  0
 39 41  1  1  0  0  0
 41 42  1  0  0  0  0
M  CHG  5   4   1  14   1  21   1  36   1  42   1
M  END
>  <CHROM.1>
-146.44871784,50.92345713,178.68505019,-174.33828553,55.83069968,-179.41235883
62.07436539,-81.10927880,-55.59678665,-59.94802573,161.80875020,39.78343146
-172.79762025,178.56456447,167.61219245,57.89402709,60.97761254,70.94560513
-171.24643507,-126.16050179,-54.81188947,-105.72292951,5.31440655,-2.32933566
41.45893443,-1.27937874,-1.27047072,2.13939462

>  <Name>
1pbr

>  <RI>
0

>  <Rbt.Current_Directory>
/home/itssahil/PROJECTS/Mol_Feturizer/New_Systems/rnas/1pbr

>  <Rbt.Executable>
rbdock ($Id: //depot/dev/client3/rdock/2013.1/src/exe/rbdock.cxx#4 $)

>  <Rbt.Library>
libRbt.so (2013.1, Build901 2013/11/27)

>  <Rbt.Parameter_File>
/export/apps/rDock/src/rDock_2013.1_src/data/scripts/dock_solv.prm

>  <Rbt.Receptor>
prm/pocket_docking_6.prm

>  <SCORE>
-43.8793

>  <SCORE.INTER>
-41.1868

>  <SCORE.INTER.CONST>
1

>  <SCORE.INTER.POLAR>
-7.71133

>  <SCORE.INTER.ROT>
9

>  <SCORE.INTER.SOLV>
25.6914

>  <SCORE.INTER.VDW>
-19.9172

>  <SCORE.INTER.norm>
-0.980637

>  <SCORE.INTRA>
-2.69254

>  <SCORE.INTRA.DIHEDRAL>
-8.6715

>  <SCORE.INTRA.DIHEDRAL.0>
29.7866

>  <SCORE.INTRA.POLAR>
-0.0196596

>  <SCORE.INTRA.POLAR.0>
-0.984091

>  <SCORE.INTRA.REPUL>
-0.274115

>  <SCORE.INTRA.REPUL.0>
0.274115

>  <SCORE.INTRA.SOLV>
-1.79866

>  <SCORE.INTRA.SOLV.lig_0>
-152.978

>  <SCORE.INTRA.VDW>
3.97996

>  <SCORE.INTRA.VDW.0>
-6.10719

>  <SCORE.INTRA.norm>
-0.064108

>  <SCORE.RESTR>
0

>  <SCORE.RESTR.CAVITY>
0

>  <SCORE.RESTR.norm>
0

>  <SCORE.SYSTEM>
0

>  <SCORE.SYSTEM.CONST>
0

>  <SCORE.SYSTEM.DIHEDRAL>
0

>  <SCORE.SYSTEM.SOLV>
0

>  <SCORE.SYSTEM.norm>
0

>  <SCORE.heavy>
42

>  <SCORE.norm>
-1.04475

>  <RMSD>
9.210

$$$$
1pbr
 OpenBabel11021811403D
libRbt.so/2013.1/901 2013/11/27
 42 45  0  0  0  0  0  0  0  0999 V2000
   -0.4433    5.6622   36.4589 C   0  0  2  0  0  0  0  0  0  0  0  0
   -0.9942    4.4374   35.9118 O   0  0  0  0  0  0  0  0  0  0  0  0
   -1.5347    6.7958   36.5025 C   0  0  2  0  0  0  0  0  0  0  0  0
   -2.8802    6.3393   36.9378 N   0  3  0  0  0  0  0  0  0  0  0  0
   -1.7276    7.4510   35.1219 C   0  0  1  0  0  0  0  0  0  0  0  0
   -2.5126    8.6366   35.2295 O   0  0  0  0  0  0  0  0  0  0  0  0
   -0.3747    7.7910   34.4786 C   0  0  2  0  0  0  0  0  0  0  0  0
   -0.5735    8.4348   33.2239 O   0  0  0  0  0  0  0  0  0  0  0  0
    0.5088    6.5291   34.3628 C   0  0  2  0  0  0  0  0  0  0  0  0
    0.7381    6.0536   35.7062 O   0  0  0  0  0  0  0  0  0  0  0  0
    1.8695    6.7736   33.7126 C   0  0  0  0  0  0  0  0  0  0  0  0
    2.6619    7.6585   34.4933 O   0  0  0  0  0  0  0  0  0  0  0  0
   -0.4072    1.9874   39.3558 C   0  0  1  0  0  0  0  0  0  0  0  0
   -0.1993    0.8894   40.3176 N   0  3  0  0  0  0  0  0  0  0  0  0
    0.8363    2.2174   38.4445 C   0  0  2  0  0  0  0  0  0  0  0  0
    1.9821    2.5258   39.2347 O   0  0  0  0  0  0  0  0  0  0  0  0
    0.5973    3.3888   37.4473 C   0  0  1  0  0  0  0  0  0  0  0  0
    1.7183    3.4439   36.5159 O   0  0  0  0  0  0  0  0  0  0  0  0
   -0.7352    3.2172   36.6472 C   0  0  1  0  0  0  0  0  0  0  0  0
   -1.9640    2.9329   37.5691 C   0  0  1  0  0  0  0  0  0  0  0  0
   -3.1891    2.6769   36.7797 N   0  3  0  0  0  0  0  0  0  0  0  0
   -1.6812    1.7257   38.5002 C   0  0  0  0  0  0  0  0  0  0  0  0
    1.7736    2.5195   35.3827 C   0  0  1  0  0  0  0  0  0  0  0  0
    3.2061    2.5176   34.8172 C   0  0  2  0  0  0  0  0  0  0  0  0
    3.2139    2.1387   33.4437 O   0  0  0  0  0  0  0  0  0  0  0  0
    3.8210    1.4390   35.7218 C   0  0  1  0  0  0  0  0  0  0  0  0
    2.7295    0.3821   35.7553 C   0  0  2  0  0  0  0  0  0  0  0  0
    1.5508    1.1696   35.8274 O   0  0  0  0  0  0  0  0  0  0  0  0
    2.7958   -0.5883   36.9417 C   0  0  0  0  0  0  0  0  0  0  0  0
    2.7035    0.1289   38.1637 O   0  0  0  0  0  0  0  0  0  0  0  0
    7.4414   -1.2329   38.2028 C   0  0  1  0  0  0  0  0  0  0  0  0
    7.0657   -2.5381   37.7668 O   0  0  0  0  0  0  0  0  0  0  0  0
    8.2203   -0.5141   37.0661 C   0  0  2  0  0  0  0  0  0  0  0  0
    8.9018    0.6078   37.6224 O   0  0  0  0  0  0  0  0  0  0  0  0
    7.3497   -0.0273   35.8615 C   0  0  1  0  0  0  0  0  0  0  0  0
    7.1589   -1.1248   34.8879 N   0  3  0  0  0  0  0  0  0  0  0  0
    6.0100    0.5976   36.3320 C   0  0  1  0  0  0  0  0  0  0  0  0
    5.0757    0.8686   35.2583 O   0  0  0  0  0  0  0  0  0  0  0  0
    6.1838   -0.4092   38.5778 C   0  0  1  0  0  0  0  0  0  0  0  0
    5.3931   -0.2362   37.3701 O   0  0  0  0  0  0  0  0  0  0  0  0
    5.3406   -1.0370   39.7034 C   0  0  0  0  0  0  0  0  0  0  0  0
    4.8378   -2.3808   39.3572 N   0  3  0  0  0  0  0  0  0  0  0  0
  1  2  1  6  0  0  0
  1  3  1  0  0  0  0
  1 10  1  0  0  0  0
  3  4  1  6  0  0  0
  3  5  1  0  0  0  0
  5  6  1  1  0  0  0
  5  7  1  0  0  0  0
  7  8  1  6  0  0  0
  7  9  1  0  0  0  0
  9 10  1  0  0  0  0
  9 11  1  1  0  0  0
 11 12  1  0  0  0  0
 13 14  1  1  0  0  0
 13 15  1  0  0  0  0
 13 22  1  0  0  0  0
 15 16  1  1  0  0  0
 15 17  1  0  0  0  0
 17 18  1  6  0  0  0
 17 19  1  0  0  0  0
 19  2  1  1  0  0  0
 19 20  1  0  0  0  0
 20 21  1  6  0  0  0
 20 22  1  0  0  0  0
 23 18  1  1  0  0  0
 23 24  1  0  0  0  0
 23 28  1  0  0  0  0
 24 25  1  6  0  0  0
 24 26  1  0  0  0  0
 26 27  1  0  0  0  0
 26 38  1  6  0  0  0
 27 28  1  0  0  0  0
 27 29  1  1  0  0  0
 29 30  1  0  0  0  0
 31 32  1  6  0  0  0
 31 33  1  0  0  0  0
 31 39  1  0  0  0  0
 33 34  1  1  0  0  0
 33 35  1  0  0  0  0
 35 36  1  6  0  0  0
 35 37  1  0  0  0  0
 37 38  1  6  0  0  0
 37 40  1  0  0  0  0
 39 40  1  0  0  0  0
 39 41  1  1  0  0  0
 41 42  1  0  0  0  0
M  CHG  5   4   1  14   1  21   1  36   1  42   1
M  END
>  <CHROM.1>
-131.83556774,-26.83848650,165.54451369,-171.46149180,-52.35675765,63.46649849
-64.72695018,69.93766728,81.05459694,79.84170752,-164.13577457,51.20645621
52.07150533,142.27674333,59.45854758,175.49983146,-73.31592166,-177.71505110
51.10952526,179.31498978,-60.09478119,-65.29925912,2.19877434,2.60483221
36.59208870,2.43595947,0.37889177,-0.66050085

>  <Name>
1pbr

>  <RI>
0

>  <Rbt.Current_Directory>
/home/itssahil/PROJECTS/Mol_Feturizer/New_Systems/rnas/1pbr

>  <Rbt.Executable>
rbdock ($Id: //depot/dev/client3/rdock/2013.1/src/exe/rbdock.cxx#4 $)

>  <Rbt.Library>
libRbt.so (2013.1, Build901 2013/11/27)

>  <Rbt.Parameter_File>
/export/apps/rDock/src/rDock_2013.1_src/data/scripts/dock_solv.prm

>  <Rbt.Receptor>
prm/blind_docking_40.prm

>  <SCORE>
-24.3451

>  <SCORE.INTER>
-31.3001

>  <SCORE.INTER.CONST>
1

>  <SCORE.INTER.POLAR>
-3.57088

>  <SCORE.INTER.ROT>
9

>  <SCORE.INTER.SOLV>
31.9241

>  <SCORE.INTER.VDW>
-29.2052

>  <SCORE.INTER.norm>
-0.74524

>  <SCORE.INTRA>
2.45867

>  <SCORE.INTRA.DIHEDRAL>
-4.95115

>  <SCORE.INTRA.DIHEDRAL.0>
29.7866

>  <SCORE.INTRA.POLAR>
0.323922

>  <SCORE.INTRA.POLAR.0>
-0.984091

>  <SCORE.INTRA.REPUL>
-0.274115

>  <SCORE.INTRA.REPUL.0>
0.274115

>  <SCORE.INTRA.SOLV>
6.8071

>  <SCORE.INTRA.SOLV.lig_0>
-152.978

>  <SCORE.INTRA.VDW>
1.79993

>  <SCORE.INTRA.VDW.0>
-6.10719

>  <SCORE.INTRA.norm>
0.0585397

>  <SCORE.RESTR>
4.49635

>  <SCORE.RESTR.CAVITY>
4.49635

>  <SCORE.RESTR.norm>
0.107056

>  <SCORE.SYSTEM>
0

>  <SCORE.SYSTEM.CONST>
0

>  <SCORE.SYSTEM.DIHEDRAL>
0

>  <SCORE.SYSTEM.SOLV>
0

>  <SCORE.SYSTEM.norm>
0

>  <SCORE.heavy>
42

>  <SCORE.norm>
-0.579645

>  <RMSD>
9.216

$$$$
1pbr
 OpenBabel11021811403D
libRbt.so/2013.1/901 2013/11/27
 42 45  0  0  0  0  0  0  0  0999 V2000
    3.2675    0.3967   37.1755 C   0  0  2  0  0  0  0  0  0  0  0  0
    3.4285    1.6664   36.4933 O   0  0  0  0  0  0  0  0  0  0  0  0
    4.3566    0.2235   38.2989 C   0  0  2  0  0  0  0  0  0  0  0  0
    4.6256    1.4517   39.0911 N   0  3  0  0  0  0  0  0  0  0  0  0
    5.7113   -0.2166   37.7127 C   0  0  1  0  0  0  0  0  0  0  0  0
    6.6031   -0.6226   38.7486 O   0  0  0  0  0  0  0  0  0  0  0  0
    5.5317   -1.3689   36.7129 C   0  0  2  0  0  0  0  0  0  0  0  0
    6.7974   -1.7911   36.2149 O   0  0  0  0  0  0  0  0  0  0  0  0
    4.5558   -0.9675   35.5846 C   0  0  2  0  0  0  0  0  0  0  0  0
    3.2845   -0.6903   36.2094 O   0  0  0  0  0  0  0  0  0  0  0  0
    4.3349   -2.0517   34.5311 C   0  0  0  0  0  0  0  0  0  0  0  0
    5.0799   -3.2237   34.8341 O   0  0  0  0  0  0  0  0  0  0  0  0
    0.8856    5.0764   36.1562 C   0  0  1  0  0  0  0  0  0  0  0  0
   -0.2019    6.0348   35.8868 N   0  3  0  0  0  0  0  0  0  0  0  0
    0.4823    4.0090   37.2181 C   0  0  2  0  0  0  0  0  0  0  0  0
    0.1265    4.6389   38.4466 O   0  0  0  0  0  0  0  0  0  0  0  0
    1.6500    3.0173   37.4946 C   0  0  1  0  0  0  0  0  0  0  0  0
    1.1604    1.9504   38.3601 O   0  0  0  0  0  0  0  0  0  0  0  0
    2.2193    2.3973   36.1767 C   0  0  1  0  0  0  0  0  0  0  0  0
    2.5681    3.4749   35.1007 C   0  0  1  0  0  0  0  0  0  0  0  0
    3.0094    2.8543   33.8319 N   0  3  0  0  0  0  0  0  0  0  0  0
    1.3498    4.3966   34.8349 C   0  0  0  0  0  0  0  0  0  0  0  0
    0.5605    2.2763   39.6546 C   0  0  1  0  0  0  0  0  0  0  0  0
   -0.4263    1.1572   40.0366 C   0  0  2  0  0  0  0  0  0  0  0  0
   -1.4322    1.6417   40.9218 O   0  0  0  0  0  0  0  0  0  0  0  0
    0.5522    0.2011   40.7353 C   0  0  1  0  0  0  0  0  0  0  0  0
    1.3977    1.1518   41.5666 C   0  0  2  0  0  0  0  0  0  0  0  0
    1.5605    2.2550   40.6885 O   0  0  0  0  0  0  0  0  0  0  0  0
    2.7655    0.6051   41.9953 C   0  0  0  0  0  0  0  0  0  0  0  0
    3.7159    1.6586   42.0504 O   0  0  0  0  0  0  0  0  0  0  0  0
    0.0253   -1.0868   45.8901 C   0  0  1  0  0  0  0  0  0  0  0  0
   -1.2864   -1.6337   46.0127 O   0  0  0  0  0  0  0  0  0  0  0  0
    0.9287   -2.0837   45.1119 C   0  0  2  0  0  0  0  0  0  0  0  0
    2.2909   -1.7160   45.3164 O   0  0  0  0  0  0  0  0  0  0  0  0
    0.6574   -2.1738   43.5744 C   0  0  1  0  0  0  0  0  0  0  0  0
   -0.4416   -3.1259   43.3009 N   0  3  0  0  0  0  0  0  0  0  0  0
    0.4105   -0.7760   42.9482 C   0  0  1  0  0  0  0  0  0  0  0  0
   -0.0552   -0.8174   41.5769 O   0  0  0  0  0  0  0  0  0  0  0  0
   -0.0256    0.2683   45.1406 C   0  0  1  0  0  0  0  0  0  0  0  0
   -0.4992    0.0087   43.7908 O   0  0  0  0  0  0  0  0  0  0  0  0
   -0.8963    1.3321   45.8352 C   0  0  0  0  0  0  0  0  0  0  0  0
   -0.5469    1.5149   47.2575 N   0  3  0  0  0  0  0  0  0  0  0  0
  1  2  1  6  0  0  0
  1  3  1  0  0  0  0
  1 10  1  0  0  0  0
  3  4  1  6  0  0  0
  3  5  1  0  0  0  0
  5  6  1  1  0  0  0
  5  7  1  0  0  0  0
  7  8  1  6  0  0  0
  7  9  1  0  0  0  0
  9 10  1  0  0  0  0
  9 11  1  6  0  0  0
 11 12  1  0  0  0  0
 13 14  1  6  0  0  0
 13 15  1  0  0  0  0
 13 22  1  0  0  0  0
 15 16  1  1  0  0  0
 15 17  1  0  0  0  0
 17 18  1  1  0  0  0
 17 19  1  0  0  0  0
 19  2  1  1  0  0  0
 19 20  1  0  0  0  0
 20 21  1  6  0  0  0
 20 22  1  0  0  0  0
 23 18  1  6  0  0  0
 23 24  1  0  0  0  0
 23 28  1  0  0  0  0
 24 25  1  1  0  0  0
 24 26  1  0  0  0  0
 26 27  1  0  0  0  0
 26 38  1  1  0  0  0
 27 28  1  0  0  0  0
 27 29  1  6  0  0  0
 29 30  1  0  0  0  0
 31 32  1  6  0  0  0
 31 33  1  0  0  0  0
 31 39  1  0  0  0  0
 33 34  1  6  0  0  0
 33 35  1  0  0  0  0
 35 36  1  1  0  0  0
 35 37  1  0  0  0  0
 37 38  1  6  0  0  0
 37 40  1  0  0  0  0
 39 40  1  0  0  0  0
 39 41  1  1  0  0  0
 41 42  1  0  0  0  0
M  CHG  5   4   1  14   1  21   1  36   1  42   1
M  END
>  <CHROM.1>
-138.93949288,73.90155813,125.50286766,-65.32993244,138.26073765,0.68198869
-81.01773116,73.35202375,146.13235182,-56.59658945,153.41048032,90.94776255
-37.06315392,-122.65186462,146.85157651,76.11288701,75.92722215,-56.58396605
-81.24771396,-139.43915997,51.78281278,62.56987485,1.91692316,0.73674572
39.75725308,-1.02353135,-0.81421014,2.18094008

>  <Name>
1pbr

>  <RI>
0

>  <Rbt.Current_Directory>
/home/itssahil/PROJECTS/Mol_Feturizer/New_Systems/rnas/1pbr

>  <Rbt.Executable>
rbdock ($Id: //depot/dev/client3/rdock/2013.1/src/exe/rbdock.cxx#4 $)

>  <Rbt.Library>
libRbt.so (2013.1, Build901 2013/11/27)

>  <Rbt.Parameter_File>
/export/apps/rDock/src/rDock_2013.1_src/data/scripts/dock_solv.prm

>  <Rbt.Receptor>
prm/blind_docking_100.prm

>  <SCORE>
-18.0174

>  <SCORE.INTER>
-41.1177

>  <SCORE.INTER.CONST>
1

>  <SCORE.INTER.POLAR>
-7.86287

>  <SCORE.INTER.ROT>
9

>  <SCORE.INTER.SOLV>
39.8572

>  <SCORE.INTER.VDW>
-24.088

>  <SCORE.INTER.norm>
-0.978993

>  <SCORE.INTRA>
19.5395

>  <SCORE.INTRA.DIHEDRAL>
24.8386

>  <SCORE.INTRA.DIHEDRAL.0>
29.7866

>  <SCORE.INTRA.POLAR>
-0.354509

>  <SCORE.INTRA.POLAR.0>
-0.984091

>  <SCORE.INTRA.REPUL>
-0.274115

>  <SCORE.INTRA.REPUL.0>
0.274115

>  <SCORE.INTRA.SOLV>
1.71525

>  <SCORE.INTRA.SOLV.lig_0>
-152.978

>  <SCORE.INTRA.VDW>
8.83851

>  <SCORE.INTRA.VDW.0>
-6.10719

>  <SCORE.INTRA.norm>
0.465227

>  <SCORE.RESTR>
3.56075

>  <SCORE.RESTR.CAVITY>
3.56075

>  <SCORE.RESTR.norm>
0.0847797

>  <SCORE.SYSTEM>
0

>  <SCORE.SYSTEM.CONST>
0

>  <SCORE.SYSTEM.DIHEDRAL>
0

>  <SCORE.SYSTEM.SOLV>
0

>  <SCORE.SYSTEM.norm>
0

>  <SCORE.heavy>
42

>  <SCORE.norm>
-0.428986

>  <RMSD>
9.257

$$$$
1pbr
 OpenBabel11021811403D
libRbt.so/2013.1/901 2013/11/27
 42 45  0  0  0  0  0  0  0  0999 V2000
    3.7891    0.8706   35.7503 C   0  0  2  0  0  0  0  0  0  0  0  0
    3.3321    1.8648   36.7020 O   0  0  0  0  0  0  0  0  0  0  0  0
    3.0647   -0.5066   35.9889 C   0  0  2  0  0  0  0  0  0  0  0  0
    1.6143   -0.3954   36.2925 N   0  3  0  0  0  0  0  0  0  0  0  0
    3.6926   -1.2819   37.1624 C   0  0  1  0  0  0  0  0  0  0  0  0
    3.2100   -2.6232   37.1987 O   0  0  0  0  0  0  0  0  0  0  0  0
    5.2252   -1.2933   37.0593 C   0  0  2  0  0  0  0  0  0  0  0  0
    5.7854   -2.0507   38.1273 O   0  0  0  0  0  0  0  0  0  0  0  0
    5.7805    0.1471   37.0004 C   0  0  2  0  0  0  0  0  0  0  0  0
    5.2379    0.7569   35.8099 O   0  0  0  0  0  0  0  0  0  0  0  0
    7.3038    0.2292   36.9175 C   0  0  0  0  0  0  0  0  0  0  0  0
    7.7989   -0.4989   35.8017 O   0  0  0  0  0  0  0  0  0  0  0  0
    0.5007    5.0520   36.5199 C   0  0  1  0  0  0  0  0  0  0  0  0
   -0.6689    5.9219   36.2982 N   0  3  0  0  0  0  0  0  0  0  0  0
    0.2055    3.9158   37.5454 C   0  0  2  0  0  0  0  0  0  0  0  0
   -0.1860    4.4675   38.8004 O   0  0  0  0  0  0  0  0  0  0  0  0
    1.4581    3.0195   37.7721 C   0  0  1  0  0  0  0  0  0  0  0  0
    1.0742    1.8835   38.6022 O   0  0  0  0  0  0  0  0  0  0  0  0
    2.0602    2.4994   36.4259 C   0  0  1  0  0  0  0  0  0  0  0  0
    2.3001    3.6415   35.3873 C   0  0  1  0  0  0  0  0  0  0  0  0
    2.7755    3.1080   34.0916 N   0  3  0  0  0  0  0  0  0  0  0  0
    1.0034    4.4634   35.1692 C   0  0  0  0  0  0  0  0  0  0  0  0
    2.0944    0.9499   39.0812 C   0  0  1  0  0  0  0  0  0  0  0  0
    2.6720    1.4867   40.4042 C   0  0  2  0  0  0  0  0  0  0  0  0
    3.9929    0.9988   40.6215 O   0  0  0  0  0  0  0  0  0  0  0  0
    1.6565    0.8703   41.3782 C   0  0  1  0  0  0  0  0  0  0  0  0
    1.4897   -0.5361   40.8269 C   0  0  2  0  0  0  0  0  0  0  0  0
    1.4953   -0.3119   39.4253 O   0  0  0  0  0  0  0  0  0  0  0  0
    0.2006   -1.2540   41.2470 C   0  0  0  0  0  0  0  0  0  0  0  0
   -0.9309   -0.4795   40.8780 O   0  0  0  0  0  0  0  0  0  0  0  0
   -0.3033   -0.8838   45.9560 C   0  0  1  0  0  0  0  0  0  0  0  0
    0.7420   -1.7076   46.4693 O   0  0  0  0  0  0  0  0  0  0  0  0
    0.0952    0.6105   46.1103 C   0  0  2  0  0  0  0  0  0  0  0  0
   -1.0742    1.4104   45.9515 O   0  0  0  0  0  0  0  0  0  0  0  0
    1.1906    1.1179   45.1161 C   0  0  1  0  0  0  0  0  0  0  0  0
    2.5408    0.8169   45.6410 N   0  3  0  0  0  0  0  0  0  0  0  0
    0.9680    0.5697   43.6820 C   0  0  1  0  0  0  0  0  0  0  0  0
    2.0655    0.8312   42.7731 O   0  0  0  0  0  0  0  0  0  0  0  0
   -0.5568   -1.2064   44.4619 C   0  0  1  0  0  0  0  0  0  0  0  0
    0.6484   -0.8619   43.7252 O   0  0  0  0  0  0  0  0  0  0  0  0
   -0.9633   -2.6688   44.2004 C   0  0  0  0  0  0  0  0  0  0  0  0
   -1.8058   -3.2272   45.2760 N   0  3  0  0  0  0  0  0  0  0  0  0
  1  2  1  1  0  0  0
  1  3  1  0  0  0  0
  1 10  1  0  0  0  0
  3  4  1  1  0  0  0
  3  5  1  0  0  0  0
  5  6  1  6  0  0  0
  5  7  1  0  0  0  0
  7  8  1  1  0  0  0
  7  9  1  0  0  0  0
  9 10  1  0  0  0  0
  9 11  1  6  0  0  0
 11 12  1  0  0  0  0
 13 14  1  6  0  0  0
 13 15  1  0  0  0  0
 13 22  1  0  0  0  0
 15 16  1  1  0  0  0
 15 17  1  0  0  0  0
 17 18  1  1  0  0  0
 17 19  1  0  0  0  0
 19  2  1  1  0  0  0
 19 20  1  0  0  0  0
 20 21  1  6  0  0  0
 20 22  1  0  0  0  0
 23 18  1  1  0  0  0
 23 24  1  0  0  0  0
 23 28  1  0  0  0  0
 24 25  1  1  0  0  0
 24 26  1  0  0  0  0
 26 27  1  0  0  0  0
 26 38  1  1  0  0  0
 27 28  1  0  0  0  0
 27 29  1  1  0  0  0
 29 30  1  0  0  0  0
 31 32  1  6  0  0  0
 31 33  1  0  0  0  0
 31 39  1  0  0  0  0
 33 34  1  6  0  0  0
 33 35  1  0  0  0  0
 35 36  1  1  0  0  0
 35 37  1  0  0  0  0
 37 38  1  6  0  0  0
 37 40  1  0  0  0  0
 39 40  1  0  0  0  0
 39 41  1  1  0  0  0
 41 42  1  0  0  0  0
M  CHG  5   4   1  14   1  21   1  36   1  42   1
M  END
>  <CHROM.1>
-79.45737701,155.61498653,-79.90150330,-175.02714541,65.42826206,56.32147799
178.55090213,-174.90813014,-171.94611076,-173.88126704,87.12000429,-167.90987715
176.16464483,165.03258769,56.48852933,154.15417253,179.27355627,-67.54150413
167.14899113,-154.42076049,35.49363039,-131.92166228,1.96185562,0.67608244
39.77586248,-1.08184617,-0.72604369,2.16189351

>  <Name>
1pbr

>  <RI>
0

>  <Rbt.Current_Directory>
/home/itssahil/PROJECTS/Mol_Feturizer/New_Systems/rnas/1pbr

>  <Rbt.Executable>
rbdock ($Id: //depot/dev/client3/rdock/2013.1/src/exe/rbdock.cxx#4 $)

>  <Rbt.Library>
libRbt.so (2013.1, Build901 2013/11/27)

>  <Rbt.Parameter_File>
/export/apps/rDock/src/rDock_2013.1_src/data/scripts/dock_solv.prm

>  <Rbt.Receptor>
prm/blind_docking_60.prm

>  <SCORE>
-2.90662

>  <SCORE.INTER>
-7.40113

>  <SCORE.INTER.CONST>
1

>  <SCORE.INTER.POLAR>
-4.33208

>  <SCORE.INTER.ROT>
9

>  <SCORE.INTER.SOLV>
36.6007

>  <SCORE.INTER.VDW>
-12.294

>  <SCORE.INTER.norm>
-0.176217

>  <SCORE.INTRA>
3.9387

>  <SCORE.INTRA.DIHEDRAL>
-6.6965

>  <SCORE.INTRA.DIHEDRAL.0>
29.7866

>  <SCORE.INTRA.POLAR>
-0.376894

>  <SCORE.INTRA.POLAR.0>
-0.984091

>  <SCORE.INTRA.REPUL>
-0.239643

>  <SCORE.INTRA.REPUL.0>
0.274115

>  <SCORE.INTRA.SOLV>
4.52508

>  <SCORE.INTRA.SOLV.lig_0>
-152.978

>  <SCORE.INTRA.VDW>
7.50407

>  <SCORE.INTRA.VDW.0>
-6.10719

>  <SCORE.INTRA.norm>
0.0937786

>  <SCORE.RESTR>
0.555814

>  <SCORE.RESTR.CAVITY>
0.555814

>  <SCORE.RESTR.norm>
0.0132337

>  <SCORE.SYSTEM>
0

>  <SCORE.SYSTEM.CONST>
0

>  <SCORE.SYSTEM.DIHEDRAL>
0

>  <SCORE.SYSTEM.SOLV>
0

>  <SCORE.SYSTEM.norm>
0

>  <SCORE.heavy>
42

>  <SCORE.norm>
-0.0692052

>  <RMSD>
9.275

$$$$
1pbr
 OpenBabel11021811403D
libRbt.so/2013.1/901 2013/11/27
 42 45  0  0  0  0  0  0  0  0999 V2000
    0.6853    3.5087   36.3202 C   0  0  2  0  0  0  0  0  0  0  0  0
    0.7901    2.2962   35.5316 O   0  0  0  0  0  0  0  0  0  0  0  0
   -0.7053    3.5797   37.0547 C   0  0  2  0  0  0  0  0  0  0  0  0
   -1.1644    2.2891   37.6310 N   0  3  0  0  0  0  0  0  0  0  0  0
   -1.8242    4.0508   36.1067 C   0  0  1  0  0  0  0  0  0  0  0  0
   -3.0084    4.3628   36.8371 O   0  0  0  0  0  0  0  0  0  0  0  0
   -1.3825    5.2814   35.3003 C   0  0  2  0  0  0  0  0  0  0  0  0
   -2.4437    5.7284   34.4624 O   0  0  0  0  0  0  0  0  0  0  0  0
   -0.0898    4.9821   34.5092 C   0  0  2  0  0  0  0  0  0  0  0  0
    0.9322    4.6694   35.4793 O   0  0  0  0  0  0  0  0  0  0  0  0
    0.4103    6.1495   33.6599 C   0  0  0  0  0  0  0  0  0  0  0  0
   -0.4351    6.3701   32.5387 O   0  0  0  0  0  0  0  0  0  0  0  0
    2.9555   -1.3792   35.6334 C   0  0  1  0  0  0  0  0  0  0  0  0
    3.9517   -2.4542   35.7947 N   0  3  0  0  0  0  0  0  0  0  0  0
    2.4560   -0.8269   37.0028 C   0  0  2  0  0  0  0  0  0  0  0  0
    1.8670   -1.8704   37.7753 O   0  0  0  0  0  0  0  0  0  0  0  0
    1.3968    0.2970   36.8065 C   0  0  1  0  0  0  0  0  0  0  0  0
    1.0967    0.8866   38.1063 O   0  0  0  0  0  0  0  0  0  0  0  0
    1.8975    1.4132   35.8326 C   0  0  1  0  0  0  0  0  0  0  0  0
    2.4460    0.8420   34.4859 C   0  0  1  0  0  0  0  0  0  0  0  0
    3.0030    1.9110   33.6278 N   0  3  0  0  0  0  0  0  0  0  0  0
    3.5311   -0.2339   34.7500 C   0  0  0  0  0  0  0  0  0  0  0  0
    2.1624    1.5157   38.8875 C   0  0  1  0  0  0  0  0  0  0  0  0
    1.5783    1.9794   40.2350 C   0  0  2  0  0  0  0  0  0  0  0  0
    2.3336    3.0596   40.7759 O   0  0  0  0  0  0  0  0  0  0  0  0
    1.7621    0.6819   41.0366 C   0  0  1  0  0  0  0  0  0  0  0  0
    3.1544    0.2372   40.6202 C   0  0  2  0  0  0  0  0  0  0  0  0
    3.1667    0.5460   39.2349 O   0  0  0  0  0  0  0  0  0  0  0  0
    3.4573   -1.2510   40.8375 C   0  0  0  0  0  0  0  0  0  0  0  0
    4.0763   -1.7962   39.6816 O   0  0  0  0  0  0  0  0  0  0  0  0
    0.5234   -1.9873   45.5627 C   0  0  1  0  0  0  0  0  0  0  0  0
    0.5819   -1.0425   46.6297 O   0  0  0  0  0  0  0  0  0  0  0  0
   -0.5830   -1.5617   44.5575 C   0  0  2  0  0  0  0  0  0  0  0  0
   -0.8874   -2.6748   43.7202 O   0  0  0  0  0  0  0  0  0  0  0  0
   -0.2315   -0.3342   43.6544 C   0  0  1  0  0  0  0  0  0  0  0  0
   -0.5400    0.9288   44.3604 N   0  3  0  0  0  0  0  0  0  0  0  0
    1.2317   -0.3938   43.1422 C   0  0  1  0  0  0  0  0  0  0  0  0
    1.6757    0.8170   42.4819 O   0  0  0  0  0  0  0  0  0  0  0  0
    1.8899   -2.0624   44.8363 C   0  0  1  0  0  0  0  0  0  0  0  0
    2.1411   -0.7637   44.2328 O   0  0  0  0  0  0  0  0  0  0  0  0
    3.0581   -2.4815   45.7483 C   0  0  0  0  0  0  0  0  0  0  0  0
    3.3898   -1.4565   46.7572 N   0  3  0  0  0  0  0  0  0  0  0  0
  1  2  1  6  0  0  0
  1  3  1  0  0  0  0
  1 10  1  0  0  0  0
  3  4  1  6  0  0  0
  3  5  1  0  0  0  0
  5  6  1  1  0  0  0
  5  7  1  0  0  0  0
  7  8  1  6  0  0  0
  7  9  1  0  0  0  0
  9 10  1  0  0  0  0
  9 11  1  1  0  0  0
 11 12  1  0  0  0  0
 13 14  1  1  0  0  0
 13 15  1  0  0  0  0
 13 22  1  0  0  0  0
 15 16  1  1  0  0  0
 15 17  1  0  0  0  0
 17 18  1  1  0  0  0
 17 19  1  0  0  0  0
 19  2  1  6  0  0  0
 19 20  1  0  0  0  0
 20 21  1  6  0  0  0
 20 22  1  0  0  0  0
 23 18  1  6  0  0  0
 23 24  1  0  0  0  0
 23 28  1  0  0  0  0
 24 25  1  1  0  0  0
 24 26  1  0  0  0  0
 26 27  1  0  0  0  0
 26 38  1  1  0  0  0
 27 28  1  0  0  0  0
 27 29  1  6  0  0  0
 29 30  1  0  0  0  0
 31 32  1  1  0  0  0
 31 33  1  0  0  0  0
 31 39  1  0  0  0  0
 33 34  1  6  0  0  0
 33 35  1  0  0  0  0
 35 36  1  1  0  0  0
 35 37  1  0  0  0  0
 37 38  1  1  0  0  0
 37 40  1  0  0  0  0
 39 40  1  0  0  0  0
 39 41  1  1  0  0  0
 41 42  1  0  0  0  0
M  CHG  5   4   1  14   1  21   1  36   1  42   1
M  END
>  <CHROM.1>
-122.29178229,96.13910461,-73.93317068,64.91702345,50.53123468,-71.29714022
-62.73367734,64.70508452,90.91636206,59.86346093,-176.98883169,-57.23003369
-73.61962143,152.73195123,133.83259973,54.92377670,-55.52669898,-170.13716544
-11.76529356,-105.71961410,-68.27896414,169.40205832,1.19222433,1.05191657
39.11770846,1.74656828,0.80916637,-1.21612587

>  <Name>
1pbr

>  <RI>
0

>  <Rbt.Current_Directory>
/home/itssahil/PROJECTS/Mol_Feturizer/New_Systems/rnas/1pbr

>  <Rbt.Executable>
rbdock ($Id: //depot/dev/client3/rdock/2013.1/src/exe/rbdock.cxx#4 $)

>  <Rbt.Library>
libRbt.so (2013.1, Build901 2013/11/27)

>  <Rbt.Parameter_File>
/export/apps/rDock/src/rDock_2013.1_src/data/scripts/dock_solv.prm

>  <Rbt.Receptor>
prm/blind_docking_100.prm

>  <SCORE>
2.13234

>  <SCORE.INTER>
-2.82372

>  <SCORE.INTER.CONST>
1

>  <SCORE.INTER.POLAR>
-4.08776

>  <SCORE.INTER.ROT>
9

>  <SCORE.INTER.SOLV>
39.4869

>  <SCORE.INTER.VDW>
-11.0189

>  <SCORE.INTER.norm>
-0.0672315

>  <SCORE.INTRA>
0.0235481

>  <SCORE.INTRA.DIHEDRAL>
7.15361

>  <SCORE.INTRA.DIHEDRAL.0>
29.7866

>  <SCORE.INTRA.POLAR>
-1.50303

>  <SCORE.INTRA.POLAR.0>
-0.984091

>  <SCORE.INTRA.REPUL>
-0.274115

>  <SCORE.INTRA.REPUL.0>
0.274115

>  <SCORE.INTRA.SOLV>
4.43828

>  <SCORE.INTRA.SOLV.lig_0>
-152.978

>  <SCORE.INTRA.VDW>
0.70849

>  <SCORE.INTRA.VDW.0>
-6.10719

>  <SCORE.INTRA.norm>
0.000560669

>  <SCORE.RESTR>
4.93252

>  <SCORE.RESTR.CAVITY>
4.93252

>  <SCORE.RESTR.norm>
0.117441

>  <SCORE.SYSTEM>
0

>  <SCORE.SYSTEM.CONST>
0

>  <SCORE.SYSTEM.DIHEDRAL>
0

>  <SCORE.SYSTEM.SOLV>
0

>  <SCORE.SYSTEM.norm>
0

>  <SCORE.heavy>
42

>  <SCORE.norm>
0.05077

>  <RMSD>
9.303

$$$$
1pbr
 OpenBabel11021811403D
libRbt.so/2013.1/901 2013/11/27
 42 45  0  0  0  0  0  0  0  0999 V2000
    0.9781    5.1491   35.7459 C   0  0  2  0  0  0  0  0  0  0  0  0
   -0.3421    4.5540   35.8236 O   0  0  0  0  0  0  0  0  0  0  0  0
    0.9561    6.6305   36.2781 C   0  0  2  0  0  0  0  0  0  0  0  0
    0.1309    6.8352   37.4969 N   0  3  0  0  0  0  0  0  0  0  0  0
    0.4094    7.6058   35.2185 C   0  0  1  0  0  0  0  0  0  0  0  0
    0.6399    8.9578   35.6085 O   0  0  0  0  0  0  0  0  0  0  0  0
    1.0567    7.3520   33.8487 C   0  0  2  0  0  0  0  0  0  0  0  0
    0.5719    8.2902   32.8932 O   0  0  0  0  0  0  0  0  0  0  0  0
    0.8400    5.8886   33.4037 C   0  0  2  0  0  0  0  0  0  0  0  0
    1.4861    5.0519   34.3865 O   0  0  0  0  0  0  0  0  0  0  0  0
    1.4357    5.5538   32.0373 C   0  0  0  0  0  0  0  0  0  0  0  0
    2.2037    6.6373   31.5307 O   0  0  0  0  0  0  0  0  0  0  0  0
   -1.2073    1.9323   39.0772 C   0  0  1  0  0  0  0  0  0  0  0  0
   -1.4362    0.7844   39.9737 N   0  3  0  0  0  0  0  0  0  0  0  0
    0.2940    2.0869   38.6875 C   0  0  2  0  0  0  0  0  0  0  0  0
    1.0952    2.2632   39.8535 O   0  0  0  0  0  0  0  0  0  0  0  0
    0.5119    3.3120   37.7518 C   0  0  1  0  0  0  0  0  0  0  0  0
    1.8945    3.3040   37.2879 O   0  0  0  0  0  0  0  0  0  0  0  0
   -0.4500    3.2887   36.5192 C   0  0  1  0  0  0  0  0  0  0  0  0
   -1.9452    3.0784   36.9203 C   0  0  1  0  0  0  0  0  0  0  0  0
   -2.8168    2.9612   35.7303 N   0  3  0  0  0  0  0  0  0  0  0  0
   -2.1009    1.8163   37.8077 C   0  0  0  0  0  0  0  0  0  0  0  0
    2.8878    2.4682   37.9638 C   0  0  1  0  0  0  0  0  0  0  0  0
    2.4957    0.9901   37.7802 C   0  0  2  0  0  0  0  0  0  0  0  0
    3.0242    0.1859   38.8310 O   0  0  0  0  0  0  0  0  0  0  0  0
    3.1901    0.7217   36.4365 C   0  0  1  0  0  0  0  0  0  0  0  0
    4.5313    1.4125   36.6200 C   0  0  2  0  0  0  0  0  0  0  0  0
    4.1679    2.5930   37.3194 O   0  0  0  0  0  0  0  0  0  0  0  0
    5.2668    1.7672   35.3212 C   0  0  0  0  0  0  0  0  0  0  0  0
    4.3413    2.2253   34.3466 O   0  0  0  0  0  0  0  0  0  0  0  0
    5.9332   -3.7150   37.8020 C   0  0  1  0  0  0  0  0  0  0  0  0
    5.9022   -4.5712   36.6616 O   0  0  0  0  0  0  0  0  0  0  0  0
    6.6088   -2.3690   37.4177 C   0  0  2  0  0  0  0  0  0  0  0  0
    6.9698   -1.6846   38.6151 O   0  0  0  0  0  0  0  0  0  0  0  0
    5.7427   -1.4131   36.5335 C   0  0  1  0  0  0  0  0  0  0  0  0
    5.8836   -1.7665   35.1037 N   0  3  0  0  0  0  0  0  0  0  0  0
    4.2635   -1.3765   36.9998 C   0  0  1  0  0  0  0  0  0  0  0  0
    3.3755   -0.6789   36.0922 O   0  0  0  0  0  0  0  0  0  0  0  0
    4.4952   -3.4512   38.3150 C   0  0  1  0  0  0  0  0  0  0  0  0
    3.7790   -2.7346   37.2722 O   0  0  0  0  0  0  0  0  0  0  0  0
    3.7370   -4.7268   38.7274 C   0  0  0  0  0  0  0  0  0  0  0  0
    4.0514   -5.8813   37.8633 N   0  3  0  0  0  0  0  0  0  0  0  0
  1  2  1  6  0  0  0
  1  3  1  0  0  0  0
  1 10  1  0  0  0  0
  3  4  1  1  0  0  0
  3  5  1  0  0  0  0
  5  6  1  1  0  0  0
  5  7  1  0  0  0  0
  7  8  1  6  0  0  0
  7  9  1  0  0  0  0
  9 10  1  0  0  0  0
  9 11  1  6  0  0  0
 11 12  1  0  0  0  0
 13 14  1  1  0  0  0
 13 15  1  0  0  0  0
 13 22  1  0  0  0  0
 15 16  1  1  0  0  0
 15 17  1  0  0  0  0
 17 18  1  6  0  0  0
 17 19  1  0  0  0  0
 19  2  1  1  0  0  0
 19 20  1  0  0  0  0
 20 21  1  6  0  0  0
 20 22  1  0  0  0  0
 23 18  1  6  0  0  0
 23 24  1  0  0  0  0
 23 28  1  0  0  0  0
 24 25  1  1  0  0  0
 24 26  1  0  0  0  0
 26 27  1  0  0  0  0
 26 38  1  1  0  0  0
 27 28  1  0  0  0  0
 27 29  1  6  0  0  0
 29 30  1  0  0  0  0
 31 32  1  6  0  0  0
 31 33  1  0  0  0  0
 31 39  1  0  0  0  0
 33 34  1  1  0  0  0
 33 35  1  0  0  0  0
 35 36  1  6  0  0  0
 35 37  1  0  0  0  0
 37 38  1  6  0  0  0
 37 40  1  0  0  0  0
 39 40  1  0  0  0  0
 39 41  1  6  0  0  0
 41 42  1  0  0  0  0
M  CHG  5   4   1  14   1  21   1  36   1  42   1
M  END
>  <CHROM.1>
-126.69591918,37.71694353,167.16880854,104.98460332,-54.35434673,6.74131557
-56.03066935,-35.01109257,64.21956181,-15.33220906,64.12190592,-173.34496732
-44.96359253,-64.46500154,39.30056993,69.75945615,56.78286161,-69.98633342
-34.93648438,-93.76567667,-36.17530536,-144.67621912,2.26659763,1.93290727
36.55297136,-2.10255415,-0.55675933,2.56383144

>  <Name>
1pbr

>  <RI>
0

>  <Rbt.Current_Directory>
/home/itssahil/PROJECTS/Mol_Feturizer/New_Systems/rnas/1pbr

>  <Rbt.Executable>
rbdock ($Id: //depot/dev/client3/rdock/2013.1/src/exe/rbdock.cxx#4 $)

>  <Rbt.Library>
libRbt.so (2013.1, Build901 2013/11/27)

>  <Rbt.Parameter_File>
/export/apps/rDock/src/rDock_2013.1_src/data/scripts/dock_solv.prm

>  <Rbt.Receptor>
prm/blind_docking_40.prm

>  <SCORE>
-25.5632

>  <SCORE.INTER>
-50.0095

>  <SCORE.INTER.CONST>
1

>  <SCORE.INTER.POLAR>
-8.73583

>  <SCORE.INTER.ROT>
9

>  <SCORE.INTER.SOLV>
48.2668

>  <SCORE.INTER.VDW>
-29.9092

>  <SCORE.INTER.norm>
-1.1907

>  <SCORE.INTRA>
19.8981

>  <SCORE.INTRA.DIHEDRAL>
12.765

>  <SCORE.INTRA.DIHEDRAL.0>
29.7866

>  <SCORE.INTRA.POLAR>
-0.167687

>  <SCORE.INTRA.POLAR.0>
-0.984091

>  <SCORE.INTRA.REPUL>
-0.274115

>  <SCORE.INTRA.REPUL.0>
0.274115

>  <SCORE.INTRA.SOLV>
3.70524

>  <SCORE.INTRA.SOLV.lig_0>
-152.978

>  <SCORE.INTRA.VDW>
13.6037

>  <SCORE.INTRA.VDW.0>
-6.10719

>  <SCORE.INTRA.norm>
0.473764

>  <SCORE.RESTR>
4.54823

>  <SCORE.RESTR.CAVITY>
4.54823

>  <SCORE.RESTR.norm>
0.108291

>  <SCORE.SYSTEM>
0

>  <SCORE.SYSTEM.CONST>
0

>  <SCORE.SYSTEM.DIHEDRAL>
0

>  <SCORE.SYSTEM.SOLV>
0

>  <SCORE.SYSTEM.norm>
0

>  <SCORE.heavy>
42

>  <SCORE.norm>
-0.608647

>  <RMSD>
9.309

$$$$
1pbr
 OpenBabel11021811403D
libRbt.so/2013.1/901 2013/11/27
 42 45  0  0  0  0  0  0  0  0999 V2000
   -0.4333    5.6755   34.9913 C   0  0  2  0  0  0  0  0  0  0  0  0
    0.0067    5.2208   36.2961 O   0  0  0  0  0  0  0  0  0  0  0  0
    0.7916    6.1410   34.1188 C   0  0  2  0  0  0  0  0  0  0  0  0
    1.9904    5.2692   34.2248 N   0  3  0  0  0  0  0  0  0  0  0  0
    1.2547    7.5592   34.5022 C   0  0  1  0  0  0  0  0  0  0  0  0
    2.1778    8.0672   33.5414 O   0  0  0  0  0  0  0  0  0  0  0  0
    0.0596    8.5174   34.6185 C   0  0  2  0  0  0  0  0  0  0  0  0
    0.5104    9.8318   34.9303 O   0  0  0  0  0  0  0  0  0  0  0  0
   -0.9698    7.9868   35.6408 C   0  0  2  0  0  0  0  0  0  0  0  0
   -1.4384    6.7159   35.1422 O   0  0  0  0  0  0  0  0  0  0  0  0
   -2.1851    8.8921   35.8348 C   0  0  0  0  0  0  0  0  0  0  0  0
   -1.7932   10.2099   36.1957 O   0  0  0  0  0  0  0  0  0  0  0  0
   -1.6259    1.9670   38.5222 C   0  0  1  0  0  0  0  0  0  0  0  0
   -2.0586    0.6560   39.0399 N   0  3  0  0  0  0  0  0  0  0  0  0
   -0.0780    2.1422   38.5783 C   0  0  2  0  0  0  0  0  0  0  0  0
    0.3890    2.0144   39.9193 O   0  0  0  0  0  0  0  0  0  0  0  0
    0.3528    3.5375   38.0389 C   0  0  1  0  0  0  0  0  0  0  0  0
    1.8085    3.5765   37.9573 O   0  0  0  0  0  0  0  0  0  0  0  0
   -0.2548    3.8361   36.6294 C   0  0  1  0  0  0  0  0  0  0  0  0
   -1.7987    3.6039   36.5727 C   0  0  1  0  0  0  0  0  0  0  0  0
   -2.3285    3.7976   35.2048 N   0  3  0  0  0  0  0  0  0  0  0  0
   -2.1563    2.1809   37.0743 C   0  0  0  0  0  0  0  0  0  0  0  0
    2.4599    4.0681   36.7425 C   0  0  1  0  0  0  0  0  0  0  0  0
    3.9786    4.1349   36.9898 C   0  0  2  0  0  0  0  0  0  0  0  0
    4.5938    5.0990   36.1399 O   0  0  0  0  0  0  0  0  0  0  0  0
    4.3497    2.6957   36.6015 C   0  0  1  0  0  0  0  0  0  0  0  0
    3.5232    2.4747   35.3454 C   0  0  2  0  0  0  0  0  0  0  0  0
    2.3019    3.1202   35.6719 O   0  0  0  0  0  0  0  0  0  0  0  0
    3.2692    1.0064   34.9803 C   0  0  0  0  0  0  0  0  0  0  0  0
    2.6293    0.9224   33.7155 O   0  0  0  0  0  0  0  0  0  0  0  0
    6.5751   -1.7865   36.3074 C   0  0  1  0  0  0  0  0  0  0  0  0
    6.1730   -1.9883   34.9538 O   0  0  0  0  0  0  0  0  0  0  0  0
    7.8072   -0.8398   36.3434 C   0  0  2  0  0  0  0  0  0  0  0  0
    8.4201   -0.9416   37.6266 O   0  0  0  0  0  0  0  0  0  0  0  0
    7.5039    0.6659   36.0489 C   0  0  1  0  0  0  0  0  0  0  0  0
    7.4941    0.9129   34.5901 N   0  3  0  0  0  0  0  0  0  0  0  0
    6.2023    1.1406   36.7469 C   0  0  1  0  0  0  0  0  0  0  0  0
    5.7599    2.4582   36.3381 O   0  0  0  0  0  0  0  0  0  0  0  0
    5.4146   -1.1667   37.1258 C   0  0  1  0  0  0  0  0  0  0  0  0
    5.1360    0.1479   36.5709 O   0  0  0  0  0  0  0  0  0  0  0  0
    4.1416   -2.0331   37.1563 C   0  0  0  0  0  0  0  0  0  0  0  0
    3.7335   -2.4941   35.8148 N   0  3  0  0  0  0  0  0  0  0  0  0
  1  2  1  1  0  0  0
  1  3  1  0  0  0  0
  1 10  1  0  0  0  0
  3  4  1  1  0  0  0
  3  5  1  0  0  0  0
  5  6  1  6  0  0  0
  5  7  1  0  0  0  0
  7  8  1  1  0  0  0
  7  9  1  0  0  0  0
  9 10  1  0  0  0  0
  9 11  1  6  0  0  0
 11 12  1  0  0  0  0
 13 14  1  6  0  0  0
 13 15  1  0  0  0  0
 13 22  1  0  0  0  0
 15 16  1  1  0  0  0
 15 17  1  0  0  0  0
 17 18  1  6  0  0  0
 17 19  1  0  0  0  0
 19  2  1  1  0  0  0
 19 20  1  0  0  0  0
 20 21  1  6  0  0  0
 20 22  1  0  0  0  0
 23 18  1  1  0  0  0
 23 24  1  0  0  0  0
 23 28  1  0  0  0  0
 24 25  1  6  0  0  0
 24 26  1  0  0  0  0
 26 27  1  0  0  0  0
 26 38  1  6  0  0  0
 27 28  1  0  0  0  0
 27 29  1  1  0  0  0
 29 30  1  0  0  0  0
 31 32  1  6  0  0  0
 31 33  1  0  0  0  0
 31 39  1  0  0  0  0
 33 34  1  1  0  0  0
 33 35  1  0  0  0  0
 35 36  1  6  0  0  0
 35 37  1  0  0  0  0
 37 38  1  6  0  0  0
 37 40  1  0  0  0  0
 39 40  1  0  0  0  0
 39 41  1  6  0  0  0
 41 42  1  0  0  0  0
M  CHG  5   4   1  14   1  21   1  36   1  42   1
M  END
>  <CHROM.1>
-117.90581865,177.41828755,42.13464425,67.01640658,-166.29698389,-55.37347437
167.95937864,-132.09866361,62.54261465,132.28371815,174.15944957,166.13855087
-175.66336439,145.64170620,-173.12396845,-54.65759180,78.78987985,76.29865763
178.57971889,159.19586187,-48.93354485,137.53084282,2.23928337,3.21233880
36.14752316,-2.33013027,-0.30315217,2.78036332

>  <Name>
1pbr

>  <RI>
0

>  <Rbt.Current_Directory>
/home/itssahil/PROJECTS/Mol_Feturizer/New_Systems/rnas/1pbr

>  <Rbt.Executable>
rbdock ($Id: //depot/dev/client3/rdock/2013.1/src/exe/rbdock.cxx#4 $)

>  <Rbt.Library>
libRbt.so (2013.1, Build901 2013/11/27)

>  <Rbt.Parameter_File>
/export/apps/rDock/src/rDock_2013.1_src/data/scripts/dock_solv.prm

>  <Rbt.Receptor>
prm/blind_docking_40.prm

>  <SCORE>
-1.84134

>  <SCORE.INTER>
-12.4252

>  <SCORE.INTER.CONST>
1

>  <SCORE.INTER.POLAR>
-6.03502

>  <SCORE.INTER.ROT>
9

>  <SCORE.INTER.SOLV>
49.6026

>  <SCORE.INTER.VDW>
-14.3009

>  <SCORE.INTER.norm>
-0.295838

>  <SCORE.INTRA>
7.70777

>  <SCORE.INTRA.DIHEDRAL>
4.03372

>  <SCORE.INTRA.DIHEDRAL.0>
29.7866

>  <SCORE.INTRA.POLAR>
-2.90992

>  <SCORE.INTRA.POLAR.0>
-0.984091

>  <SCORE.INTRA.REPUL>
-0.274115

>  <SCORE.INTRA.REPUL.0>
0.274115

>  <SCORE.INTRA.SOLV>
10.296

>  <SCORE.INTRA.SOLV.lig_0>
-152.978

>  <SCORE.INTRA.VDW>
11.8072

>  <SCORE.INTRA.VDW.0>
-6.10719

>  <SCORE.INTRA.norm>
0.183518

>  <SCORE.RESTR>
2.87609

>  <SCORE.RESTR.CAVITY>
2.87609

>  <SCORE.RESTR.norm>
0.0684784

>  <SCORE.SYSTEM>
0

>  <SCORE.SYSTEM.CONST>
0

>  <SCORE.SYSTEM.DIHEDRAL>
0

>  <SCORE.SYSTEM.SOLV>
0

>  <SCORE.SYSTEM.norm>
0

>  <SCORE.heavy>
42

>  <SCORE.norm>
-0.0438415

>  <RMSD>
9.375

$$$$
1pbr
 OpenBabel11021811403D
libRbt.so/2013.1/901 2013/11/27
 42 45  0  0  0  0  0  0  0  0999 V2000
    1.0428    5.2672   35.5228 C   0  0  2  0  0  0  0  0  0  0  0  0
   -0.2741    4.6599   35.5219 O   0  0  0  0  0  0  0  0  0  0  0  0
    1.0126    6.6672   36.2421 C   0  0  2  0  0  0  0  0  0  0  0  0
    0.1863    6.7080   37.4766 N   0  3  0  0  0  0  0  0  0  0  0  0
    0.4606    7.7683   35.3173 C   0  0  1  0  0  0  0  0  0  0  0  0
    0.6836    9.0598   35.8790 O   0  0  0  0  0  0  0  0  0  0  0  0
    1.1092    7.6974   33.9266 C   0  0  2  0  0  0  0  0  0  0  0  0
    0.6194    8.7487   33.1001 O   0  0  0  0  0  0  0  0  0  0  0  0
    0.9007    6.3027   33.2959 C   0  0  2  0  0  0  0  0  0  0  0  0
    1.5513    5.3495   34.1626 O   0  0  0  0  0  0  0  0  0  0  0  0
    1.4983    6.1507   31.8981 C   0  0  0  0  0  0  0  0  0  0  0  0
    0.5686    6.5393   30.8954 O   0  0  0  0  0  0  0  0  0  0  0  0
   -0.9906    2.1136   38.8701 C   0  0  1  0  0  0  0  0  0  0  0  0
   -1.2188    0.9874   39.7940 N   0  3  0  0  0  0  0  0  0  0  0  0
    0.4617    2.1280   38.3042 C   0  0  2  0  0  0  0  0  0  0  0  0
    1.4085    2.2215   39.3659 O   0  0  0  0  0  0  0  0  0  0  0  0
    0.6816    3.3322   37.3423 C   0  0  1  0  0  0  0  0  0  0  0  0
    1.9925    3.1964   36.7178 O   0  0  0  0  0  0  0  0  0  0  0  0
   -0.4176    3.4066   36.2326 C   0  0  1  0  0  0  0  0  0  0  0  0
   -1.8678    3.3360   36.8094 C   0  0  1  0  0  0  0  0  0  0  0  0
   -2.8815    3.3081   35.7319 N   0  3  0  0  0  0  0  0  0  0  0  0
   -2.0354    2.0894   37.7162 C   0  0  0  0  0  0  0  0  0  0  0  0
    2.1425    2.4021   35.4978 C   0  0  1  0  0  0  0  0  0  0  0  0
    3.5998    2.5145   35.0122 C   0  0  2  0  0  0  0  0  0  0  0  0
    3.6908    2.2862   33.6087 O   0  0  0  0  0  0  0  0  0  0  0  0
    4.2152    1.3684   35.8292 C   0  0  1  0  0  0  0  0  0  0  0  0
    3.1695    0.2741   35.6929 C   0  0  2  0  0  0  0  0  0  0  0  0
    1.9562    1.0048   35.7850 O   0  0  0  0  0  0  0  0  0  0  0  0
    3.2191   -0.8153   36.7720 C   0  0  0  0  0  0  0  0  0  0  0  0
    2.0351   -0.7799   37.5550 O   0  0  0  0  0  0  0  0  0  0  0  0
    6.8343   -1.7193   38.5516 C   0  0  1  0  0  0  0  0  0  0  0  0
    5.7786   -2.6649   38.3906 O   0  0  0  0  0  0  0  0  0  0  0  0
    7.7032   -1.6925   37.2632 C   0  0  2  0  0  0  0  0  0  0  0  0
    8.9386   -1.0471   37.5627 O   0  0  0  0  0  0  0  0  0  0  0  0
    7.0517   -0.9844   36.0304 C   0  0  1  0  0  0  0  0  0  0  0  0
    6.1835   -1.9294   35.2939 N   0  3  0  0  0  0  0  0  0  0  0  0
    6.3131    0.3182   36.4358 C   0  0  1  0  0  0  0  0  0  0  0  0
    5.5143    0.8984   35.3754 O   0  0  0  0  0  0  0  0  0  0  0  0
    6.2547   -0.3080   38.8216 C   0  0  1  0  0  0  0  0  0  0  0  0
    5.5071    0.0954   37.6417 O   0  0  0  0  0  0  0  0  0  0  0  0
    5.3772   -0.2260   40.0847 C   0  0  0  0  0  0  0  0  0  0  0  0
    4.9958    1.1587   40.4249 N   0  3  0  0  0  0  0  0  0  0  0  0
  1  2  1  6  0  0  0
  1  3  1  0  0  0  0
  1 10  1  0  0  0  0
  3  4  1  1  0  0  0
  3  5  1  0  0  0  0
  5  6  1  1  0  0  0
  5  7  1  0  0  0  0
  7  8  1  6  0  0  0
  7  9  1  0  0  0  0
  9 10  1  0  0  0  0
  9 11  1  6  0  0  0
 11 12  1  0  0  0  0
 13 14  1  1  0  0  0
 13 15  1  0  0  0  0
 13 22  1  0  0  0  0
 15 16  1  1  0  0  0
 15 17  1  0  0  0  0
 17 18  1  6  0  0  0
 17 19  1  0  0  0  0
 19  2  1  1  0  0  0
 19 20  1  0  0  0  0
 20 21  1  6  0  0  0
 20 22  1  0  0  0  0
 23 18  1  1  0  0  0
 23 24  1  0  0  0  0
 23 28  1  0  0  0  0
 24 25  1  6  0  0  0
 24 26  1  0  0  0  0
 26 27  1  0  0  0  0
 26 38  1  6  0  0  0
 27 28  1  0  0  0  0
 27 29  1  1  0  0  0
 29 30  1  0  0  0  0
 31 32  1  6  0  0  0
 31 33  1  0  0  0  0
 31 39  1  0  0  0  0
 33 34  1  1  0  0  0
 33 35  1  0  0  0  0
 35 36  1  1  0  0  0
 35 37  1  0  0  0  0
 37 38  1  6  0  0  0
 37 40  1  0  0  0  0
 39 40  1  0  0  0  0
 39 41  1  1  0  0  0
 41 42  1  0  0  0  0
M  CHG  5   4   1  14   1  21   1  36   1  42   1
M  END
>  <CHROM.1>
-117.33974464,25.38646627,-63.04735148,96.00793346,83.99037819,-88.69992738
-67.58329360,-27.33289004,68.59082781,86.50846701,176.09946679,42.96788511
61.82000257,153.02554100,115.07578341,73.83742335,179.96277975,68.26321883
-61.20677639,137.39810598,171.88792610,98.80823070,2.48742907,2.55407381
36.37866538,-2.30481722,-0.45489292,2.38270626

>  <Name>
1pbr

>  <RI>
0

>  <Rbt.Current_Directory>
/home/itssahil/PROJECTS/Mol_Feturizer/New_Systems/rnas/1pbr

>  <Rbt.Executable>
rbdock ($Id: //depot/dev/client3/rdock/2013.1/src/exe/rbdock.cxx#4 $)

>  <Rbt.Library>
libRbt.so (2013.1, Build901 2013/11/27)

>  <Rbt.Parameter_File>
/export/apps/rDock/src/rDock_2013.1_src/data/scripts/dock_solv.prm

>  <Rbt.Receptor>
prm/blind_docking_40.prm

>  <SCORE>
-31.6905

>  <SCORE.INTER>
-52.722

>  <SCORE.INTER.CONST>
1

>  <SCORE.INTER.POLAR>
-7.93164

>  <SCORE.INTER.ROT>
9

>  <SCORE.INTER.SOLV>
44.0664

>  <SCORE.INTER.VDW>
-32.998

>  <SCORE.INTER.norm>
-1.25528

>  <SCORE.INTRA>
16.9663

>  <SCORE.INTRA.DIHEDRAL>
16.6388

>  <SCORE.INTRA.DIHEDRAL.0>
29.7866

>  <SCORE.INTRA.POLAR>
0.982315

>  <SCORE.INTRA.POLAR.0>
-0.984091

>  <SCORE.INTRA.REPUL>
-0.274115

>  <SCORE.INTRA.REPUL.0>
0.274115

>  <SCORE.INTRA.SOLV>
0.442749

>  <SCORE.INTRA.SOLV.lig_0>
-152.978

>  <SCORE.INTRA.VDW>
6.45626

>  <SCORE.INTRA.VDW.0>
-6.10719

>  <SCORE.INTRA.norm>
0.40396

>  <SCORE.RESTR>
4.06512

>  <SCORE.RESTR.CAVITY>
4.06512

>  <SCORE.RESTR.norm>
0.0967886

>  <SCORE.SYSTEM>
0

>  <SCORE.SYSTEM.CONST>
0

>  <SCORE.SYSTEM.DIHEDRAL>
0

>  <SCORE.SYSTEM.SOLV>
0

>  <SCORE.SYSTEM.norm>
0

>  <SCORE.heavy>
42

>  <SCORE.norm>
-0.754536

>  <RMSD>
9.379

$$$$
1pbr
 OpenBabel11021811403D
libRbt.so/2013.1/901 2013/11/27
 42 45  0  0  0  0  0  0  0  0999 V2000
   -0.2200    5.6696   33.8140 C   0  0  2  0  0  0  0  0  0  0  0  0
    0.3340    4.4877   34.4459 O   0  0  0  0  0  0  0  0  0  0  0  0
    0.8856    6.4380   32.9983 C   0  0  2  0  0  0  0  0  0  0  0  0
    1.8064    5.5603   32.2302 N   0  3  0  0  0  0  0  0  0  0  0  0
    1.7749    7.2964   33.9176 C   0  0  1  0  0  0  0  0  0  0  0  0
    2.5895    8.1811   33.1514 O   0  0  0  0  0  0  0  0  0  0  0  0
    0.9247    8.1107   34.9044 C   0  0  2  0  0  0  0  0  0  0  0  0
    1.7607    8.9299   35.7157 O   0  0  0  0  0  0  0  0  0  0  0  0
    0.0160    7.1819   35.7399 C   0  0  2  0  0  0  0  0  0  0  0  0
   -0.8623    6.5101   34.8123 O   0  0  0  0  0  0  0  0  0  0  0  0
   -0.8518    7.9098   36.7651 C   0  0  0  0  0  0  0  0  0  0  0  0
   -1.3957    7.0037   37.7157 O   0  0  0  0  0  0  0  0  0  0  0  0
   -2.1430    3.0170   37.5938 C   0  0  1  0  0  0  0  0  0  0  0  0
   -3.0984    2.2854   38.4458 N   0  3  0  0  0  0  0  0  0  0  0  0
   -0.8997    2.1525   37.2240 C   0  0  2  0  0  0  0  0  0  0  0  0
   -0.2171    1.7325   38.4031 O   0  0  0  0  0  0  0  0  0  0  0  0
    0.0993    2.9501   36.3356 C   0  0  1  0  0  0  0  0  0  0  0  0
    1.1486    2.0431   35.8846 O   0  0  0  0  0  0  0  0  0  0  0  0
   -0.6014    3.5924   35.0940 C   0  0  1  0  0  0  0  0  0  0  0  0
   -1.8771    4.4107   35.4733 C   0  0  1  0  0  0  0  0  0  0  0  0
   -2.5730    4.9220   34.2717 N   0  3  0  0  0  0  0  0  0  0  0  0
   -2.8522    3.5453   36.3127 C   0  0  0  0  0  0  0  0  0  0  0  0
    1.6625    1.0127   36.7879 C   0  0  1  0  0  0  0  0  0  0  0  0
    2.5755    0.0655   35.9871 C   0  0  2  0  0  0  0  0  0  0  0  0
    2.6372   -1.2216   36.5950 O   0  0  0  0  0  0  0  0  0  0  0  0
    3.8979    0.8359   36.1201 C   0  0  1  0  0  0  0  0  0  0  0  0
    3.8837    1.2561   37.5805 C   0  0  2  0  0  0  0  0  0  0  0  0
    2.5215    1.6012   37.7806 O   0  0  0  0  0  0  0  0  0  0  0  0
    4.7910    2.4435   37.9276 C   0  0  0  0  0  0  0  0  0  0  0  0
    4.9613    2.5318   39.3346 O   0  0  0  0  0  0  0  0  0  0  0  0
    6.7575   -3.1725   38.1310 C   0  0  1  0  0  0  0  0  0  0  0  0
    7.0953   -3.9790   37.0040 O   0  0  0  0  0  0  0  0  0  0  0  0
    7.5820   -1.8557   38.0881 C   0  0  2  0  0  0  0  0  0  0  0  0
    7.5251   -1.2428   39.3741 O   0  0  0  0  0  0  0  0  0  0  0  0
    7.1260   -0.8144   37.0140 C   0  0  1  0  0  0  0  0  0  0  0  0
    7.7482   -1.1181   35.7065 N   0  3  0  0  0  0  0  0  0  0  0  0
    5.5805   -0.7070   36.9329 C   0  0  1  0  0  0  0  0  0  0  0  0
    5.1012    0.0789   35.8141 O   0  0  0  0  0  0  0  0  0  0  0  0
    5.2436   -2.8428   38.1213 C   0  0  1  0  0  0  0  0  0  0  0  0
    4.9736   -2.0430   36.9376 O   0  0  0  0  0  0  0  0  0  0  0  0
    4.3351   -4.0857   38.1656 C   0  0  0  0  0  0  0  0  0  0  0  0
    3.2733   -4.0525   37.1410 N   0  3  0  0  0  0  0  0  0  0  0  0
  1  2  1  1  0  0  0
  1  3  1  0  0  0  0
  1 10  1  0  0  0  0
  3  4  1  1  0  0  0
  3  5  1  0  0  0  0
  5  6  1  6  0  0  0
  5  7  1  0  0  0  0
  7  8  1  1  0  0  0
  7  9  1  0  0  0  0
  9 10  1  0  0  0  0
  9 11  1  1  0  0  0
 11 12  1  0  0  0  0
 13 14  1  6  0  0  0
 13 15  1  0  0  0  0
 13 22  1  0  0  0  0
 15 16  1  1  0  0  0
 15 17  1  0  0  0  0
 17 18  1  6  0  0  0
 17 19  1  0  0  0  0
 19  2  1  1  0  0  0
 19 20  1  0  0  0  0
 20 21  1  6  0  0  0
 20 22  1  0  0  0  0
 23 18  1  6  0  0  0
 23 24  1  0  0  0  0
 23 28  1  0  0  0  0
 24 25  1  1  0  0  0
 24 26  1  0  0  0  0
 26 27  1  0  0  0  0
 26 38  1  1  0  0  0
 27 28  1  0  0  0  0
 27 29  1  6  0  0  0
 29 30  1  0  0  0  0
 31 32  1  6  0  0  0
 31 33  1  0  0  0  0
 31 39  1  0  0  0  0
 33 34  1  1  0  0  0
 33 35  1  0  0  0  0
 35 36  1  6  0  0  0
 35 37  1  0  0  0  0
 37 38  1  6  0  0  0
 37 40  1  0  0  0  0
 39 40  1  0  0  0  0
 39 41  1  6  0  0  0
 41 42  1  0  0  0  0
M  CHG  5   4   1  14   1  21   1  36   1  42   1
M  END
>  <CHROM.1>
-172.60333015,-146.81885915,-23.71382372,-110.11760044,-65.96428426,-165.09187954
58.30612164,-169.83990354,69.13853389,-37.94653991,170.66669441,142.17043642
51.31779243,-83.71015350,-165.31565041,160.86900725,-66.58324915,-59.85530666
76.45904873,-145.16299645,-131.21730803,-131.46107527,2.22919833,2.29028152
36.38119884,-2.20712508,-0.16834576,2.74649259

>  <Name>
1pbr

>  <RI>
0

>  <Rbt.Current_Directory>
/home/itssahil/PROJECTS/Mol_Feturizer/New_Systems/rnas/1pbr

>  <Rbt.Executable>
rbdock ($Id: //depot/dev/client3/rdock/2013.1/src/exe/rbdock.cxx#4 $)

>  <Rbt.Library>
libRbt.so (2013.1, Build901 2013/11/27)

>  <Rbt.Parameter_File>
/export/apps/rDock/src/rDock_2013.1_src/data/scripts/dock_solv.prm

>  <Rbt.Receptor>
prm/blind_docking_40.prm

>  <SCORE>
45.8935

>  <SCORE.INTER>
23.8599

>  <SCORE.INTER.CONST>
1

>  <SCORE.INTER.POLAR>
-4.26409

>  <SCORE.INTER.ROT>
9

>  <SCORE.INTER.SOLV>
48.1792

>  <SCORE.INTER.VDW>
4.46048

>  <SCORE.INTER.norm>
0.568092

>  <SCORE.INTRA>
20.3801

>  <SCORE.INTRA.DIHEDRAL>
9.75515

>  <SCORE.INTRA.DIHEDRAL.0>
29.7866

>  <SCORE.INTRA.POLAR>
-1.06793

>  <SCORE.INTRA.POLAR.0>
-0.984091

>  <SCORE.INTRA.REPUL>
-0.184412

>  <SCORE.INTRA.REPUL.0>
0.274115

>  <SCORE.INTRA.SOLV>
3.94393

>  <SCORE.INTRA.SOLV.lig_0>
-152.978

>  <SCORE.INTRA.VDW>
18.0836

>  <SCORE.INTRA.VDW.0>
-6.10719

>  <SCORE.INTRA.norm>
0.485241

>  <SCORE.RESTR>
1.65355

>  <SCORE.RESTR.CAVITY>
1.65355

>  <SCORE.RESTR.norm>
0.0393703

>  <SCORE.SYSTEM>
0

>  <SCORE.SYSTEM.CONST>
0

>  <SCORE.SYSTEM.DIHEDRAL>
0

>  <SCORE.SYSTEM.SOLV>
0

>  <SCORE.SYSTEM.norm>
0

>  <SCORE.heavy>
42

>  <SCORE.norm>
1.0927

>  <RMSD>
9.399

$$$$
1pbr
 OpenBabel11021811403D
libRbt.so/2013.1/901 2013/11/27
 42 45  0  0  0  0  0  0  0  0999 V2000
   -0.2972    4.8195   34.6094 C   0  0  2  0  0  0  0  0  0  0  0  0
   -0.6204    4.7655   36.0221 O   0  0  0  0  0  0  0  0  0  0  0  0
    0.8271    5.8864   34.3334 C   0  0  2  0  0  0  0  0  0  0  0  0
    1.9232    5.9001   35.3367 N   0  3  0  0  0  0  0  0  0  0  0  0
    0.2559    7.3165   34.2992 C   0  0  1  0  0  0  0  0  0  0  0  0
    1.2213    8.2350   33.7918 O   0  0  0  0  0  0  0  0  0  0  0  0
   -1.0143    7.3830   33.4379 C   0  0  2  0  0  0  0  0  0  0  0  0
   -1.5027    8.7196   33.3825 O   0  0  0  0  0  0  0  0  0  0  0  0
   -2.0765    6.3855   33.9510 C   0  0  2  0  0  0  0  0  0  0  0  0
   -1.5030    5.0661   33.8344 O   0  0  0  0  0  0  0  0  0  0  0  0
   -3.3843    6.4006   33.1616 C   0  0  0  0  0  0  0  0  0  0  0  0
   -3.2420    5.7302   31.9162 O   0  0  0  0  0  0  0  0  0  0  0  0
   -0.8880    1.9414   39.2097 C   0  0  1  0  0  0  0  0  0  0  0  0
   -0.9684    0.7386   40.0587 N   0  3  0  0  0  0  0  0  0  0  0  0
    0.5043    2.0884   38.5245 C   0  0  2  0  0  0  0  0  0  0  0  0
    1.5362    2.1635   39.5053 O   0  0  0  0  0  0  0  0  0  0  0  0
    0.5685    3.3711   37.6446 C   0  0  1  0  0  0  0  0  0  0  0  0
    1.8234    3.3640   36.9014 O   0  0  0  0  0  0  0  0  0  0  0  0
   -0.6286    3.4570   36.6423 C   0  0  1  0  0  0  0  0  0  0  0  0
   -2.0146    3.2534   37.3337 C   0  0  1  0  0  0  0  0  0  0  0  0
   -3.1181    3.2406   36.3481 N   0  3  0  0  0  0  0  0  0  0  0  0
   -2.0295    1.9359   38.1512 C   0  0  0  0  0  0  0  0  0  0  0  0
    1.8957    2.7088   35.5948 C   0  0  1  0  0  0  0  0  0  0  0  0
    3.3743    2.6048   35.1764 C   0  0  2  0  0  0  0  0  0  0  0  0
    3.5016    2.5347   33.7589 O   0  0  0  0  0  0  0  0  0  0  0  0
    3.7247    1.2738   35.8586 C   0  0  1  0  0  0  0  0  0  0  0  0
    2.5075    0.4187   35.5474 C   0  0  2  0  0  0  0  0  0  0  0  0
    1.4434    1.3467   35.6928 O   0  0  0  0  0  0  0  0  0  0  0  0
    2.2979   -0.7829   36.4779 C   0  0  0  0  0  0  0  0  0  0  0  0
    3.3438   -1.7265   36.2984 O   0  0  0  0  0  0  0  0  0  0  0  0
    7.0971   -1.6812   38.3413 C   0  0  1  0  0  0  0  0  0  0  0  0
    6.5966   -2.9457   37.9108 O   0  0  0  0  0  0  0  0  0  0  0  0
    7.9400   -1.0452   37.2007 C   0  0  2  0  0  0  0  0  0  0  0  0
    8.7274    0.0078   37.7518 O   0  0  0  0  0  0  0  0  0  0  0  0
    7.1186   -0.4812   35.9953 C   0  0  1  0  0  0  0  0  0  0  0  0
    6.8213   -1.5590   35.0263 N   0  3  0  0  0  0  0  0  0  0  0  0
    5.8461    0.2718   36.4649 C   0  0  1  0  0  0  0  0  0  0  0  0
    4.9408    0.6276   35.3912 O   0  0  0  0  0  0  0  0  0  0  0  0
    5.9255   -0.7385   38.7145 C   0  0  1  0  0  0  0  0  0  0  0  0
    5.1533   -0.4946   37.5070 O   0  0  0  0  0  0  0  0  0  0  0  0
    5.0274   -1.2777   39.8435 C   0  0  0  0  0  0  0  0  0  0  0  0
    3.9625   -2.1712   39.3473 N   0  3  0  0  0  0  0  0  0  0  0  0
  1  2  1  1  0  0  0
  1  3  1  0  0  0  0
  1 10  1  0  0  0  0
  3  4  1  1  0  0  0
  3  5  1  0  0  0  0
  5  6  1  6  0  0  0
  5  7  1  0  0  0  0
  7  8  1  1  0  0  0
  7  9  1  0  0  0  0
  9 10  1  0  0  0  0
  9 11  1  6  0  0  0
 11 12  1  0  0  0  0
 13 14  1  6  0  0  0
 13 15  1  0  0  0  0
 13 22  1  0  0  0  0
 15 16  1  1  0  0  0
 15 17  1  0  0  0  0
 17 18  1  6  0  0  0
 17 19  1  0  0  0  0
 19  2  1  1  0  0  0
 19 20  1  0  0  0  0
 20 21  1  6  0  0  0
 20 22  1  0  0  0  0
 23 18  1  1  0  0  0
 23 24  1  0  0  0  0
 23 28  1  0  0  0  0
 24 25  1  6  0  0  0
 24 26  1  0  0  0  0
 26 27  1  0  0  0  0
 26 38  1  6  0  0  0
 27 28  1  0  0  0  0
 27 29  1  1  0  0  0
 29 30  1  0  0  0  0
 31 32  1  6  0  0  0
 31 33  1  0  0  0  0
 31 39  1  0  0  0  0
 33 34  1  1  0  0  0
 33 35  1  0  0  0  0
 35 36  1  6  0  0  0
 35 37  1  0  0  0  0
 37 38  1  6  0  0  0
 37 40  1  0  0  0  0
 39 40  1  0  0  0  0
 39 41  1  1  0  0  0
 41 42  1  0  0  0  0
M  CHG  5   4   1  14   1  21   1  36   1  42   1
M  END
>  <CHROM.1>
-129.54561229,111.60810432,-3.78299744,-62.78762220,61.66061814,76.09986681
-167.80065533,94.34169520,-177.72179790,88.47615298,-168.72525341,-69.62146839
84.31818088,128.34152858,-66.68882006,-52.16126007,48.16536512,-59.93433924
42.31026046,177.16463027,-85.92420306,-149.64273016,1.97640373,2.34309813
36.23031253,-2.38285793,-0.33888695,2.38978512

>  <Name>
1pbr

>  <RI>
0

>  <Rbt.Current_Directory>
/home/itssahil/PROJECTS/Mol_Feturizer/New_Systems/rnas/1pbr

>  <Rbt.Executable>
rbdock ($Id: //depot/dev/client3/rdock/2013.1/src/exe/rbdock.cxx#4 $)

>  <Rbt.Library>
libRbt.so (2013.1, Build901 2013/11/27)

>  <Rbt.Parameter_File>
/export/apps/rDock/src/rDock_2013.1_src/data/scripts/dock_solv.prm

>  <Rbt.Receptor>
prm/blind_docking_40.prm

>  <SCORE>
-27.9783

>  <SCORE.INTER>
-38.0274

>  <SCORE.INTER.CONST>
1

>  <SCORE.INTER.POLAR>
-5.57231

>  <SCORE.INTER.ROT>
9

>  <SCORE.INTER.SOLV>
36.8919

>  <SCORE.INTER.VDW>
-28.6745

>  <SCORE.INTER.norm>
-0.905414

>  <SCORE.INTRA>
5.05451

>  <SCORE.INTRA.DIHEDRAL>
11.2231

>  <SCORE.INTRA.DIHEDRAL.0>
29.7866

>  <SCORE.INTRA.POLAR>
-1.19367

>  <SCORE.INTRA.POLAR.0>
-0.984091

>  <SCORE.INTRA.REPUL>
-0.185073

>  <SCORE.INTRA.REPUL.0>
0.274115

>  <SCORE.INTRA.SOLV>
7.3271

>  <SCORE.INTRA.SOLV.lig_0>
-152.978

>  <SCORE.INTRA.VDW>
0.763263

>  <SCORE.INTRA.VDW.0>
-6.10719

>  <SCORE.INTRA.norm>
0.120346

>  <SCORE.RESTR>
4.99461

>  <SCORE.RESTR.CAVITY>
4.99461

>  <SCORE.RESTR.norm>
0.118919

>  <SCORE.SYSTEM>
0

>  <SCORE.SYSTEM.CONST>
0

>  <SCORE.SYSTEM.DIHEDRAL>
0

>  <SCORE.SYSTEM.SOLV>
0

>  <SCORE.SYSTEM.norm>
0

>  <SCORE.heavy>
42

>  <SCORE.norm>
-0.666149

>  <RMSD>
9.427

$$$$
1pbr
 OpenBabel11021811403D
libRbt.so/2013.1/901 2013/11/27
 42 45  0  0  0  0  0  0  0  0999 V2000
    1.5627    2.3035   35.1231 C   0  0  2  0  0  0  0  0  0  0  0  0
    0.6404    2.0618   36.2158 O   0  0  0  0  0  0  0  0  0  0  0  0
    2.0954    0.9460   34.5301 C   0  0  2  0  0  0  0  0  0  0  0  0
    1.0637   -0.1152   34.3968 N   0  3  0  0  0  0  0  0  0  0  0  0
    3.2180    0.3490   35.3996 C   0  0  1  0  0  0  0  0  0  0  0  0
    3.8660   -0.7253   34.7219 O   0  0  0  0  0  0  0  0  0  0  0  0
    4.2561    1.4185   35.7712 C   0  0  2  0  0  0  0  0  0  0  0  0
    5.3077    0.8393   36.5374 O   0  0  0  0  0  0  0  0  0  0  0  0
    3.5832    2.6069   36.4932 C   0  0  2  0  0  0  0  0  0  0  0  0
    2.6366    3.1788   35.5657 O   0  0  0  0  0  0  0  0  0  0  0  0
    4.5496    3.7111   36.9185 C   0  0  0  0  0  0  0  0  0  0  0  0
    5.8923    3.2447   36.9285 O   0  0  0  0  0  0  0  0  0  0  0  0
   -0.3603    6.1885   36.6364 C   0  0  1  0  0  0  0  0  0  0  0  0
   -0.9297    7.4966   37.0086 N   0  3  0  0  0  0  0  0  0  0  0  0
    0.4566    5.5478   37.7992 C   0  0  2  0  0  0  0  0  0  0  0  0
    1.5258    6.4068   38.1885 O   0  0  0  0  0  0  0  0  0  0  0  0
    1.0577    4.1748   37.3782 C   0  0  1  0  0  0  0  0  0  0  0  0
    1.6608    3.5511   38.5504 O   0  0  0  0  0  0  0  0  0  0  0  0
   -0.0245    3.2181   36.7793 C   0  0  1  0  0  0  0  0  0  0  0  0
   -0.8722    3.8907   35.6525 C   0  0  1  0  0  0  0  0  0  0  0  0
   -1.9506    2.9968   35.1754 N   0  3  0  0  0  0  0  0  0  0  0  0
   -1.4833    5.2258   36.1512 C   0  0  0  0  0  0  0  0  0  0  0  0
    2.0748    2.1482   38.5007 C   0  0  1  0  0  0  0  0  0  0  0  0
    2.9259    1.8407   39.7470 C   0  0  2  0  0  0  0  0  0  0  0  0
    3.8119    0.7512   39.5058 O   0  0  0  0  0  0  0  0  0  0  0  0
    1.7990    1.4693   40.7227 C   0  0  1  0  0  0  0  0  0  0  0  0
    0.8934    0.6062   39.8599 C   0  0  2  0  0  0  0  0  0  0  0  0
    0.9298    1.2847   38.6137 O   0  0  0  0  0  0  0  0  0  0  0  0
   -0.5530    0.4781   40.3552 C   0  0  0  0  0  0  0  0  0  0  0  0
   -1.4518    0.5489   39.2582 O   0  0  0  0  0  0  0  0  0  0  0  0
   -0.1380   -1.1289   45.0208 C   0  0  1  0  0  0  0  0  0  0  0  0
    0.9416   -1.8875   45.5628 O   0  0  0  0  0  0  0  0  0  0  0  0
    0.1602    0.3868   45.1920 C   0  0  2  0  0  0  0  0  0  0  0  0
   -1.0522    1.1120   45.0005 O   0  0  0  0  0  0  0  0  0  0  0  0
    1.2506    0.9676   44.2331 C   0  0  1  0  0  0  0  0  0  0  0  0
    2.6008    0.7499   44.7975 N   0  3  0  0  0  0  0  0  0  0  0  0
    1.1062    0.4139   42.7911 C   0  0  1  0  0  0  0  0  0  0  0  0
    2.2117    0.7490   41.9166 O   0  0  0  0  0  0  0  0  0  0  0  0
   -0.3256   -1.4591   43.5186 C   0  0  1  0  0  0  0  0  0  0  0  0
    0.8768   -1.0352   42.8199 O   0  0  0  0  0  0  0  0  0  0  0  0
   -0.6307   -2.9428   43.2403 C   0  0  0  0  0  0  0  0  0  0  0  0
   -1.3678   -3.5899   44.3432 N   0  3  0  0  0  0  0  0  0  0  0  0
  1  2  1  1  0  0  0
  1  3  1  0  0  0  0
  1 10  1  0  0  0  0
  3  4  1  1  0  0  0
  3  5  1  0  0  0  0
  5  6  1  6  0  0  0
  5  7  1  0  0  0  0
  7  8  1  1  0  0  0
  7  9  1  0  0  0  0
  9 10  1  0  0  0  0
  9 11  1  6  0  0  0
 11 12  1  0  0  0  0
 13 14  1  1  0  0  0
 13 15  1  0  0  0  0
 13 22  1  0  0  0  0
 15 16  1  6  0  0  0
 15 17  1  0  0  0  0
 17 18  1  1  0  0  0
 17 19  1  0  0  0  0
 19  2  1  6  0  0  0
 19 20  1  0  0  0  0
 20 21  1  1  0  0  0
 20 22  1  0  0  0  0
 23 18  1  1  0  0  0
 23 24  1  0  0  0  0
 23 28  1  0  0  0  0
 24 25  1  6  0  0  0
 24 26  1  0  0  0  0
 26 27  1  0  0  0  0
 26 38  1  1  0  0  0
 27 28  1  0  0  0  0
 27 29  1  1  0  0  0
 29 30  1  0  0  0  0
 31 32  1  6  0  0  0
 31 33  1  0  0  0  0
 31 39  1  0  0  0  0
 33 34  1  6  0  0  0
 33 35  1  0  0  0  0
 35 36  1  1  0  0  0
 35 37  1  0  0  0  0
 37 38  1  6  0  0  0
 37 40  1  0  0  0  0
 39 40  1  0  0  0  0
 39 41  1  1  0  0  0
 41 42  1  0  0  0  0
M  CHG  5   4   1  14   1  21   1  36   1  42   1
M  END
>  <CHROM.1>
-174.52776423,-61.89161355,30.99788794,-53.99683068,162.93640157,-17.75034259
-98.03389344,175.48187850,-50.12322342,168.42734392,168.56570455,23.94039242
66.85824340,-179.38869381,138.99605765,-48.99720490,79.08168876,101.02264507
-156.96226249,-122.60824084,30.51141487,-45.10953217,1.29155082,1.64048145
39.13371419,-1.36086856,-0.75627405,2.18432010

>  <Name>
1pbr

>  <RI>
0

>  <Rbt.Current_Directory>
/home/itssahil/PROJECTS/Mol_Feturizer/New_Systems/rnas/1pbr

>  <Rbt.Executable>
rbdock ($Id: //depot/dev/client3/rdock/2013.1/src/exe/rbdock.cxx#4 $)

>  <Rbt.Library>
libRbt.so (2013.1, Build901 2013/11/27)

>  <Rbt.Parameter_File>
/export/apps/rDock/src/rDock_2013.1_src/data/scripts/dock_solv.prm

>  <Rbt.Receptor>
prm/blind_docking_100.prm

>  <SCORE>
-13.2976

>  <SCORE.INTER>
-31.7829

>  <SCORE.INTER.CONST>
1

>  <SCORE.INTER.POLAR>
-6.1835

>  <SCORE.INTER.ROT>
9

>  <SCORE.INTER.SOLV>
50.4533

>  <SCORE.INTER.VDW>
-26.9947

>  <SCORE.INTER.norm>
-0.756735

>  <SCORE.INTRA>
16.1003

>  <SCORE.INTRA.DIHEDRAL>
11.3553

>  <SCORE.INTRA.DIHEDRAL.0>
29.7866

>  <SCORE.INTRA.POLAR>
0.41922

>  <SCORE.INTRA.POLAR.0>
-0.984091

>  <SCORE.INTRA.REPUL>
-0.163943

>  <SCORE.INTRA.REPUL.0>
0.274115

>  <SCORE.INTRA.SOLV>
0.333454

>  <SCORE.INTRA.SOLV.lig_0>
-152.978

>  <SCORE.INTRA.VDW>
9.65028

>  <SCORE.INTRA.VDW.0>
-6.10719

>  <SCORE.INTRA.norm>
0.38334

>  <SCORE.RESTR>
2.38496

>  <SCORE.RESTR.CAVITY>
2.38496

>  <SCORE.RESTR.norm>
0.0567848

>  <SCORE.SYSTEM>
0

>  <SCORE.SYSTEM.CONST>
0

>  <SCORE.SYSTEM.DIHEDRAL>
0

>  <SCORE.SYSTEM.SOLV>
0

>  <SCORE.SYSTEM.norm>
0

>  <SCORE.heavy>
42

>  <SCORE.norm>
-0.31661

>  <RMSD>
9.444

$$$$
1pbr
 OpenBabel11021811403D
libRbt.so/2013.1/901 2013/11/27
 42 45  0  0  0  0  0  0  0  0999 V2000
    4.1583    0.1422   35.7793 C   0  0  2  0  0  0  0  0  0  0  0  0
    3.5287    1.0089   36.7569 O   0  0  0  0  0  0  0  0  0  0  0  0
    4.2811   -1.3270   36.3312 C   0  0  2  0  0  0  0  0  0  0  0  0
    3.0879   -1.8075   37.0753 N   0  3  0  0  0  0  0  0  0  0  0  0
    5.4762   -1.4741   37.2917 C   0  0  1  0  0  0  0  0  0  0  0  0
    5.7338   -2.8482   37.5725 O   0  0  0  0  0  0  0  0  0  0  0  0
    6.7396   -0.8275   36.7037 C   0  0  2  0  0  0  0  0  0  0  0  0
    7.8431   -1.0114   37.5850 O   0  0  0  0  0  0  0  0  0  0  0  0
    6.4890    0.6602   36.3715 C   0  0  2  0  0  0  0  0  0  0  0  0
    5.4417    0.6972   35.3790 O   0  0  0  0  0  0  0  0  0  0  0  0
    7.7041    1.3883   35.7993 C   0  0  0  0  0  0  0  0  0  0  0  0
    8.0485    0.8853   34.5152 O   0  0  0  0  0  0  0  0  0  0  0  0
    1.6242    4.7578   36.0315 C   0  0  1  0  0  0  0  0  0  0  0  0
    0.7466    5.8631   35.6049 N   0  3  0  0  0  0  0  0  0  0  0  0
    0.9230    3.8053   37.0467 C   0  0  2  0  0  0  0  0  0  0  0  0
    0.5163    4.5269   38.2070 O   0  0  0  0  0  0  0  0  0  0  0  0
    1.8731    2.6550   37.4914 C   0  0  1  0  0  0  0  0  0  0  0  0
    1.1128    1.7092   38.3005 O   0  0  0  0  0  0  0  0  0  0  0  0
    2.5019    1.9067   36.2708 C   0  0  1  0  0  0  0  0  0  0  0  0
    3.1532    2.8773   35.2343 C   0  0  1  0  0  0  0  0  0  0  0  0
    3.6504    2.1501   34.0453 N   0  3  0  0  0  0  0  0  0  0  0  0
    2.1413    3.9667   34.7944 C   0  0  0  0  0  0  0  0  0  0  0  0
    0.4883    2.1508   39.5482 C   0  0  1  0  0  0  0  0  0  0  0  0
   -0.5095    1.0720   40.0092 C   0  0  2  0  0  0  0  0  0  0  0  0
   -1.5313    1.6355   40.8269 O   0  0  0  0  0  0  0  0  0  0  0  0
    0.4519    0.1812   40.8104 C   0  0  1  0  0  0  0  0  0  0  0  0
    1.2837    1.2015   41.5699 C   0  0  2  0  0  0  0  0  0  0  0  0
    1.4675    2.2211   40.5997 O   0  0  0  0  0  0  0  0  0  0  0  0
    2.6409    0.6935   42.0733 C   0  0  0  0  0  0  0  0  0  0  0  0
    3.6199    0.8266   41.0534 O   0  0  0  0  0  0  0  0  0  0  0  0
    0.3076   -1.0051   46.0158 C   0  0  1  0  0  0  0  0  0  0  0  0
   -1.0342   -1.4132   46.2763 O   0  0  0  0  0  0  0  0  0  0  0  0
    1.0225   -2.0948   45.1690 C   0  0  2  0  0  0  0  0  0  0  0  0
    2.4286   -1.8680   45.2319 O   0  0  0  0  0  0  0  0  0  0  0  0
    0.5912   -2.1664   43.6675 C   0  0  1  0  0  0  0  0  0  0  0  0
   -0.6208   -3.0020   43.5197 N   0  3  0  0  0  0  0  0  0  0  0  0
    0.4266   -0.7547   43.0455 C   0  0  1  0  0  0  0  0  0  0  0  0
   -0.1754   -0.7568   41.7277 O   0  0  0  0  0  0  0  0  0  0  0  0
    0.3203    0.3432   45.2525 C   0  0  1  0  0  0  0  0  0  0  0  0
   -0.3097    0.1250   43.9605 O   0  0  0  0  0  0  0  0  0  0  0  0
   -0.3638    1.4955   46.0117 C   0  0  0  0  0  0  0  0  0  0  0  0
    0.1835    1.6882   47.3688 N   0  3  0  0  0  0  0  0  0  0  0  0
  1  2  1  1  0  0  0
  1  3  1  0  0  0  0
  1 10  1  0  0  0  0
  3  4  1  1  0  0  0
  3  5  1  0  0  0  0
  5  6  1  6  0  0  0
  5  7  1  0  0  0  0
  7  8  1  1  0  0  0
  7  9  1  0  0  0  0
  9 10  1  0  0  0  0
  9 11  1  6  0  0  0
 11 12  1  0  0  0  0
 13 14  1  6  0  0  0
 13 15  1  0  0  0  0
 13 22  1  0  0  0  0
 15 16  1  1  0  0  0
 15 17  1  0  0  0  0
 17 18  1  6  0  0  0
 17 19  1  0  0  0  0
 19  2  1  1  0  0  0
 19 20  1  0  0  0  0
 20 21  1  6  0  0  0
 20 22  1  0  0  0  0
 23 18  1  6  0  0  0
 23 24  1  0  0  0  0
 23 28  1  0  0  0  0
 24 25  1  1  0  0  0
 24 26  1  0  0  0  0
 26 27  1  0  0  0  0
 26 38  1  1  0  0  0
 27 28  1  0  0  0  0
 27 29  1  6  0  0  0
 29 30  1  0  0  0  0
 31 32  1  6  0  0  0
 31 33  1  0  0  0  0
 31 39  1  0  0  0  0
 33 34  1  6  0  0  0
 33 35  1  0  0  0  0
 35 36  1  1  0  0  0
 35 37  1  0  0  0  0
 37 38  1  6  0  0  0
 37 40  1  0  0  0  0
 39 40  1  0  0  0  0
 39 41  1  1  0  0  0
 41 42  1  0  0  0  0
M  CHG  5   4   1  14   1  21   1  36   1  42   1
M  END
>  <CHROM.1>
-135.14799195,175.18483077,-70.94100516,-175.75770536,-174.79066127,66.81655802
52.88020199,-44.96435826,149.40979492,-60.87880538,166.52598279,-76.06550541
103.72262595,-132.82260727,85.62503360,-51.66940693,-178.13645930,73.61930289
43.89803810,-139.00870858,54.27340758,25.25044502,2.32224078,0.70712380,39.63813109
-0.96144483,-0.67056806,2.17492228

>  <Name>
1pbr

>  <RI>
0

>  <Rbt.Current_Directory>
/home/itssahil/PROJECTS/Mol_Feturizer/New_Systems/rnas/1pbr

>  <Rbt.Executable>
rbdock ($Id: //depot/dev/client3/rdock/2013.1/src/exe/rbdock.cxx#4 $)

>  <Rbt.Library>
libRbt.so (2013.1, Build901 2013/11/27)

>  <Rbt.Parameter_File>
/export/apps/rDock/src/rDock_2013.1_src/data/scripts/dock_solv.prm

>  <Rbt.Receptor>
prm/blind_docking_100.prm

>  <SCORE>
-16.5341

>  <SCORE.INTER>
-31.4159

>  <SCORE.INTER.CONST>
1

>  <SCORE.INTER.POLAR>
-5.11643

>  <SCORE.INTER.ROT>
9

>  <SCORE.INTER.SOLV>
35.2158

>  <SCORE.INTER.VDW>
-25.2277

>  <SCORE.INTER.norm>
-0.747997

>  <SCORE.INTRA>
11.969

>  <SCORE.INTRA.DIHEDRAL>
7.34786

>  <SCORE.INTRA.DIHEDRAL.0>
29.7866

>  <SCORE.INTRA.POLAR>
-0.426548

>  <SCORE.INTRA.POLAR.0>
-0.984091

>  <SCORE.INTRA.REPUL>
-0.203259

>  <SCORE.INTRA.REPUL.0>
0.274115

>  <SCORE.INTRA.SOLV>
-0.0657603

>  <SCORE.INTRA.SOLV.lig_0>
-152.978

>  <SCORE.INTRA.VDW>
10.7945

>  <SCORE.INTRA.VDW.0>
-6.10719

>  <SCORE.INTRA.norm>
0.284977

>  <SCORE.RESTR>
2.91279

>  <SCORE.RESTR.CAVITY>
2.91279

>  <SCORE.RESTR.norm>
0.0693521

>  <SCORE.SYSTEM>
0

>  <SCORE.SYSTEM.CONST>
0

>  <SCORE.SYSTEM.DIHEDRAL>
0

>  <SCORE.SYSTEM.SOLV>
0

>  <SCORE.SYSTEM.norm>
0

>  <SCORE.heavy>
42

>  <SCORE.norm>
-0.393668

>  <RMSD>
9.445

$$$$
1pbr
 OpenBabel11021811403D
libRbt.so/2013.1/901 2013/11/27
 42 45  0  0  0  0  0  0  0  0999 V2000
   -1.4260    5.4919   35.6436 C   0  0  2  0  0  0  0  0  0  0  0  0
   -0.6059    4.3637   35.2466 O   0  0  0  0  0  0  0  0  0  0  0  0
   -2.3450    5.9611   34.4547 C   0  0  2  0  0  0  0  0  0  0  0  0
   -2.9521    4.8539   33.6711 N   0  3  0  0  0  0  0  0  0  0  0  0
   -1.5687    6.8281   33.4457 C   0  0  1  0  0  0  0  0  0  0  0  0
   -2.4604    7.4585   32.5287 O   0  0  0  0  0  0  0  0  0  0  0  0
   -0.7348    7.8990   34.1650 C   0  0  2  0  0  0  0  0  0  0  0  0
   -0.0592    8.7177   33.2155 O   0  0  0  0  0  0  0  0  0  0  0  0
    0.2316    7.2495   35.1803 C   0  0  2  0  0  0  0  0  0  0  0  0
   -0.5831    6.5620   36.1533 O   0  0  0  0  0  0  0  0  0  0  0  0
    1.1172    8.2447   35.9283 C   0  0  0  0  0  0  0  0  0  0  0  0
    0.3754    9.3843   36.3424 O   0  0  0  0  0  0  0  0  0  0  0  0
   -0.5575    2.4629   39.0666 C   0  0  1  0  0  0  0  0  0  0  0  0
   -0.5267    1.5218   40.2012 N   0  3  0  0  0  0  0  0  0  0  0  0
    0.7906    2.4892   38.2846 C   0  0  2  0  0  0  0  0  0  0  0  0
    1.8601    2.8655   39.1490 O   0  0  0  0  0  0  0  0  0  0  0  0
    0.7376    3.4985   37.1005 C   0  0  1  0  0  0  0  0  0  0  0  0
    1.9552    3.3547   36.3107 O   0  0  0  0  0  0  0  0  0  0  0  0
   -0.5072    3.2642   36.1836 C   0  0  1  0  0  0  0  0  0  0  0  0
   -1.8454    3.1853   36.9859 C   0  0  1  0  0  0  0  0  0  0  0  0
   -2.9902    2.8644   36.1050 N   0  3  0  0  0  0  0  0  0  0  0  0
   -1.7439    2.1282   38.1159 C   0  0  0  0  0  0  0  0  0  0  0  0
    2.0163    2.3647   35.2346 C   0  0  1  0  0  0  0  0  0  0  0  0
    3.4691    2.2714   34.7321 C   0  0  2  0  0  0  0  0  0  0  0  0
    3.5161    1.8135   33.3837 O   0  0  0  0  0  0  0  0  0  0  0  0
    3.9994    1.2226   35.7215 C   0  0  1  0  0  0  0  0  0  0  0  0
    2.8626    0.2151   35.7674 C   0  0  2  0  0  0  0  0  0  0  0  0
    1.7173    1.0531   35.7444 O   0  0  0  0  0  0  0  0  0  0  0  0
    2.8386   -0.6869   37.0082 C   0  0  0  0  0  0  0  0  0  0  0  0
    1.6909   -1.5226   36.9810 O   0  0  0  0  0  0  0  0  0  0  0  0
    6.7719   -1.5694   38.7735 C   0  0  1  0  0  0  0  0  0  0  0  0
    5.8873   -2.6802   38.6387 O   0  0  0  0  0  0  0  0  0  0  0  0
    7.6989   -1.4947   37.5282 C   0  0  2  0  0  0  0  0  0  0  0  0
    8.7995   -0.6411   37.8327 O   0  0  0  0  0  0  0  0  0  0  0  0
    7.0173   -0.9876   36.2152 C   0  0  1  0  0  0  0  0  0  0  0  0
    6.3507   -2.1081   35.5159 N   0  3  0  0  0  0  0  0  0  0  0  0
    6.0628    0.2057   36.4831 C   0  0  1  0  0  0  0  0  0  0  0  0
    5.2460    0.5754   35.3451 O   0  0  0  0  0  0  0  0  0  0  0  0
    5.9652   -0.2532   38.9054 C   0  0  1  0  0  0  0  0  0  0  0  0
    5.2332   -0.0578   37.6645 O   0  0  0  0  0  0  0  0  0  0  0  0
    5.0143   -0.2240   40.1166 C   0  0  0  0  0  0  0  0  0  0  0  0
    4.1180    0.9487   40.1096 N   0  3  0  0  0  0  0  0  0  0  0  0
  1  2  1  6  0  0  0
  1  3  1  0  0  0  0
  1 10  1  0  0  0  0
  3  4  1  6  0  0  0
  3  5  1  0  0  0  0
  5  6  1  6  0  0  0
  5  7  1  0  0  0  0
  7  8  1  6  0  0  0
  7  9  1  0  0  0  0
  9 10  1  0  0  0  0
  9 11  1  1  0  0  0
 11 12  1  0  0  0  0
 13 14  1  1  0  0  0
 13 15  1  0  0  0  0
 13 22  1  0  0  0  0
 15 16  1  1  0  0  0
 15 17  1  0  0  0  0
 17 18  1  6  0  0  0
 17 19  1  0  0  0  0
 19  2  1  6  0  0  0
 19 20  1  0  0  0  0
 20 21  1  6  0  0  0
 20 22  1  0  0  0  0
 23 18  1  1  0  0  0
 23 24  1  0  0  0  0
 23 28  1  0  0  0  0
 24 25  1  6  0  0  0
 24 26  1  0  0  0  0
 26 27  1  0  0  0  0
 26 38  1  6  0  0  0
 27 28  1  0  0  0  0
 27 29  1  1  0  0  0
 29 30  1  0  0  0  0
 31 32  1  6  0  0  0
 31 33  1  0  0  0  0
 31 39  1  0  0  0  0
 33 34  1  1  0  0  0
 33 35  1  0  0  0  0
 35 36  1  1  0  0  0
 35 37  1  0  0  0  0
 37 38  1  6  0  0  0
 37 40  1  0  0  0  0
 39 40  1  0  0  0  0
 39 41  1  1  0  0  0
 41 42  1  0  0  0  0
M  CHG  5   4   1  14   1  21   1  36   1  42   1
M  END
>  <CHROM.1>
-135.44792741,-91.92959843,-42.30084855,-173.06486160,172.96222435,43.06749689
67.70899474,-68.12140702,-174.37670069,87.18160105,-170.87824579,132.49974096
46.30257413,148.20569343,176.28645388,173.82710035,-175.83146939,-171.30635758
130.83708127,153.93319581,-171.57609881,-164.86408516,1.95192061,2.59424084
36.45159353,2.37250503,0.37561764,-0.71989149

>  <Name>
1pbr

>  <RI>
0

>  <Rbt.Current_Directory>
/home/itssahil/PROJECTS/Mol_Feturizer/New_Systems/rnas/1pbr

>  <Rbt.Executable>
rbdock ($Id: //depot/dev/client3/rdock/2013.1/src/exe/rbdock.cxx#4 $)

>  <Rbt.Library>
libRbt.so (2013.1, Build901 2013/11/27)

>  <Rbt.Parameter_File>
/export/apps/rDock/src/rDock_2013.1_src/data/scripts/dock_solv.prm

>  <Rbt.Receptor>
prm/blind_docking_40.prm

>  <SCORE>
-11.5662

>  <SCORE.INTER>
-28.279

>  <SCORE.INTER.CONST>
1

>  <SCORE.INTER.POLAR>
-3.42599

>  <SCORE.INTER.ROT>
9

>  <SCORE.INTER.SOLV>
39.0012

>  <SCORE.INTER.VDW>
-30.0331

>  <SCORE.INTER.norm>
-0.673311

>  <SCORE.INTRA>
11.9909

>  <SCORE.INTRA.DIHEDRAL>
2.97055

>  <SCORE.INTRA.DIHEDRAL.0>
29.7866

>  <SCORE.INTRA.POLAR>
0.879091

>  <SCORE.INTRA.POLAR.0>
-0.984091

>  <SCORE.INTRA.REPUL>
-0.274115

>  <SCORE.INTRA.REPUL.0>
0.274115

>  <SCORE.INTRA.SOLV>
6.0767

>  <SCORE.INTRA.SOLV.lig_0>
-152.978

>  <SCORE.INTRA.VDW>
5.84899

>  <SCORE.INTRA.VDW.0>
-6.10719

>  <SCORE.INTRA.norm>
0.285499

>  <SCORE.RESTR>
4.72191

>  <SCORE.RESTR.CAVITY>
4.72191

>  <SCORE.RESTR.norm>
0.112427

>  <SCORE.SYSTEM>
0

>  <SCORE.SYSTEM.CONST>
0

>  <SCORE.SYSTEM.DIHEDRAL>
0

>  <SCORE.SYSTEM.SOLV>
0

>  <SCORE.SYSTEM.norm>
0

>  <SCORE.heavy>
42

>  <SCORE.norm>
-0.275385

>  <RMSD>
9.454

$$$$
1pbr
 OpenBabel11021811403D
libRbt.so/2013.1/901 2013/11/27
 42 45  0  0  0  0  0  0  0  0999 V2000
    4.4244   -5.7938   41.9532 C   0  0  2  0  0  0  0  0  0  0  0  0
    5.4347   -5.0165   41.2617 O   0  0  0  0  0  0  0  0  0  0  0  0
    5.0126   -7.1716   42.4368 C   0  0  2  0  0  0  0  0  0  0  0  0
    6.3867   -7.0924   42.9971 N   0  3  0  0  0  0  0  0  0  0  0  0
    5.0737   -8.1965   41.2885 C   0  0  1  0  0  0  0  0  0  0  0  0
    5.3535   -9.5019   41.7897 O   0  0  0  0  0  0  0  0  0  0  0  0
    3.7545   -8.2234   40.5020 C   0  0  2  0  0  0  0  0  0  0  0  0
    3.8140   -9.2065   39.4733 O   0  0  0  0  0  0  0  0  0  0  0  0
    3.4124   -6.8183   39.9588 C   0  0  2  0  0  0  0  0  0  0  0  0
    3.2548   -5.9536   41.1036 O   0  0  0  0  0  0  0  0  0  0  0  0
    2.1218   -6.7581   39.1435 C   0  0  0  0  0  0  0  0  0  0  0  0
    1.9239   -5.4652   38.5870 O   0  0  0  0  0  0  0  0  0  0  0  0
    5.4079   -0.8941   40.1602 C   0  0  1  0  0  0  0  0  0  0  0  0
    5.1625    0.4290   39.5576 N   0  3  0  0  0  0  0  0  0  0  0  0
    4.1875   -1.4024   40.9859 C   0  0  2  0  0  0  0  0  0  0  0  0
    3.8776   -0.4848   42.0322 O   0  0  0  0  0  0  0  0  0  0  0  0
    4.4754   -2.7938   41.6220 C   0  0  1  0  0  0  0  0  0  0  0  0
    3.2477   -3.2896   42.2337 O   0  0  0  0  0  0  0  0  0  0  0  0
    4.9847   -3.8288   40.5663 C   0  0  1  0  0  0  0  0  0  0  0  0
    6.1725   -3.2861   39.7087 C   0  0  1  0  0  0  0  0  0  0  0  0
    6.5666   -4.2469   38.6547 N   0  3  0  0  0  0  0  0  0  0  0  0
    5.8037   -1.9253   39.0632 C   0  0  0  0  0  0  0  0  0  0  0  0
    2.8829   -2.8679   43.5868 C   0  0  1  0  0  0  0  0  0  0  0  0
    1.5283   -3.5030   43.9528 C   0  0  2  0  0  0  0  0  0  0  0  0
    0.8497   -2.7292   44.9382 O   0  0  0  0  0  0  0  0  0  0  0  0
    2.0330   -4.8424   44.5107 C   0  0  1  0  0  0  0  0  0  0  0  0
    3.2266   -4.4161   45.3492 C   0  0  2  0  0  0  0  0  0  0  0  0
    3.8124   -3.4037   44.5451 O   0  0  0  0  0  0  0  0  0  0  0  0
    4.2483   -5.5226   45.6416 C   0  0  0  0  0  0  0  0  0  0  0  0
    3.6312   -6.5767   46.3656 O   0  0  0  0  0  0  0  0  0  0  0  0
   -2.6450   -7.4279   44.1187 C   0  0  1  0  0  0  0  0  0  0  0  0
   -3.3590   -7.0590   45.2973 O   0  0  0  0  0  0  0  0  0  0  0  0
   -2.2217   -6.1452   43.3499 C   0  0  2  0  0  0  0  0  0  0  0  0
   -1.8534   -6.5128   42.0226 O   0  0  0  0  0  0  0  0  0  0  0  0
   -1.0475   -5.3361   43.9920 C   0  0  1  0  0  0  0  0  0  0  0  0
   -1.5640   -4.4135   45.0269 N   0  3  0  0  0  0  0  0  0  0  0  0
    0.0734   -6.2677   44.5236 C   0  0  1  0  0  0  0  0  0  0  0  0
    1.0791   -5.5889   45.3153 O   0  0  0  0  0  0  0  0  0  0  0  0
   -1.3883   -8.2551   44.4889 C   0  0  1  0  0  0  0  0  0  0  0  0
   -0.5061   -7.3959   45.2617 O   0  0  0  0  0  0  0  0  0  0  0  0
   -1.7010   -9.5547   45.2539 C   0  0  0  0  0  0  0  0  0  0  0  0
   -0.5156  -10.4187   45.4183 N   0  3  0  0  0  0  0  0  0  0  0  0
  1  2  1  6  0  0  0
  1  3  1  0  0  0  0
  1 10  1  0  0  0  0
  3  4  1  6  0  0  0
  3  5  1  0  0  0  0
  5  6  1  1  0  0  0
  5  7  1  0  0  0  0
  7  8  1  6  0  0  0
  7  9  1  0  0  0  0
  9 10  1  0  0  0  0
  9 11  1  1  0  0  0
 11 12  1  0  0  0  0
 13 14  1  6  0  0  0
 13 15  1  0  0  0  0
 13 22  1  0  0  0  0
 15 16  1  1  0  0  0
 15 17  1  0  0  0  0
 17 18  1  6  0  0  0
 17 19  1  0  0  0  0
 19  2  1  1  0  0  0
 19 20  1  0  0  0  0
 20 21  1  6  0  0  0
 20 22  1  0  0  0  0
 23 18  1  6  0  0  0
 23 24  1  0  0  0  0
 23 28  1  0  0  0  0
 24 25  1  1  0  0  0
 24 26  1  0  0  0  0
 26 27  1  0  0  0  0
 26 38  1  1  0  0  0
 27 28  1  0  0  0  0
 27 29  1  6  0  0  0
 29 30  1  0  0  0  0
 31 32  1  1  0  0  0
 31 33  1  0  0  0  0
 31 39  1  0  0  0  0
 33 34  1  6  0  0  0
 33 35  1  0  0  0  0
 35 36  1  1  0  0  0
 35 37  1  0  0  0  0
 37 38  1  1  0  0  0
 37 40  1  0  0  0  0
 39 40  1  0  0  0  0
 39 41  1  1  0  0  0
 41 42  1  0  0  0  0
M  CHG  5   4   1  14   1  21   1  36   1  42   1
M  END
>  <CHROM.1>
169.92262168,66.36962372,74.89704407,-176.33871928,-62.42513515,-175.34156077
179.33902320,-62.16818169,168.81791513,-84.01876046,178.10575977,173.95616654
54.51658162,76.85678110,-60.81200551,-174.31784187,67.64884765,171.86872380
69.07549690,-77.31828752,171.48873546,71.29557070,2.52378191,-5.37845431
42.57892309,-0.43275035,-0.65079229,-3.03680076

>  <Name>
1pbr

>  <RI>
0

>  <Rbt.Current_Directory>
/home/itssahil/PROJECTS/Mol_Feturizer/New_Systems/rnas/1pbr

>  <Rbt.Executable>
rbdock ($Id: //depot/dev/client3/rdock/2013.1/src/exe/rbdock.cxx#4 $)

>  <Rbt.Library>
libRbt.so (2013.1, Build901 2013/11/27)

>  <Rbt.Parameter_File>
/export/apps/rDock/src/rDock_2013.1_src/data/scripts/dock_solv.prm

>  <Rbt.Receptor>
prm/pocket_docking_7.prm

>  <SCORE>
-37.9781

>  <SCORE.INTER>
-23.9486

>  <SCORE.INTER.CONST>
1

>  <SCORE.INTER.POLAR>
-4.51004

>  <SCORE.INTER.ROT>
9

>  <SCORE.INTER.SOLV>
15.6862

>  <SCORE.INTER.VDW>
-15.761

>  <SCORE.INTER.norm>
-0.570204

>  <SCORE.INTRA>
-14.0295

>  <SCORE.INTRA.DIHEDRAL>
-19.768

>  <SCORE.INTRA.DIHEDRAL.0>
29.7866

>  <SCORE.INTRA.POLAR>
-0.206869

>  <SCORE.INTRA.POLAR.0>
-0.984091

>  <SCORE.INTRA.REPUL>
-0.272403

>  <SCORE.INTRA.REPUL.0>
0.274115

>  <SCORE.INTRA.SOLV>
-2.41016

>  <SCORE.INTRA.SOLV.lig_0>
-152.978

>  <SCORE.INTRA.VDW>
-0.875063

>  <SCORE.INTRA.VDW.0>
-6.10719

>  <SCORE.INTRA.norm>
-0.334036

>  <SCORE.RESTR>
0

>  <SCORE.RESTR.CAVITY>
0

>  <SCORE.RESTR.norm>
0

>  <SCORE.SYSTEM>
0

>  <SCORE.SYSTEM.CONST>
0

>  <SCORE.SYSTEM.DIHEDRAL>
0

>  <SCORE.SYSTEM.SOLV>
0

>  <SCORE.SYSTEM.norm>
0

>  <SCORE.heavy>
42

>  <SCORE.norm>
-0.90424

>  <RMSD>
9.461

$$$$
1pbr
 OpenBabel11021811403D
libRbt.so/2013.1/901 2013/11/27
 42 45  0  0  0  0  0  0  0  0999 V2000
   -0.2271    5.8548   35.2615 C   0  0  2  0  0  0  0  0  0  0  0  0
    1.0614    5.6811   35.9039 O   0  0  0  0  0  0  0  0  0  0  0  0
   -1.0161    7.0550   35.9058 C   0  0  2  0  0  0  0  0  0  0  0  0
   -0.1831    8.2472   36.2107 N   0  3  0  0  0  0  0  0  0  0  0  0
   -1.6862    6.6469   37.2314 C   0  0  1  0  0  0  0  0  0  0  0  0
   -2.6039    7.6488   37.6640 O   0  0  0  0  0  0  0  0  0  0  0  0
   -2.4235    5.3070   37.0874 C   0  0  2  0  0  0  0  0  0  0  0  0
   -3.0724    4.9678   38.3089 O   0  0  0  0  0  0  0  0  0  0  0  0
   -1.4597    4.2013   36.6025 C   0  0  2  0  0  0  0  0  0  0  0  0
   -0.9745    4.6078   35.3053 O   0  0  0  0  0  0  0  0  0  0  0  0
   -2.1079    2.8261   36.4515 C   0  0  0  0  0  0  0  0  0  0  0  0
   -2.7798    2.7074   35.2046 O   0  0  0  0  0  0  0  0  0  0  0  0
    2.8314    3.8063   32.5039 C   0  0  1  0  0  0  0  0  0  0  0  0
    3.7333    3.2263   31.4919 N   0  3  0  0  0  0  0  0  0  0  0  0
    2.8206    2.9822   33.8269 C   0  0  2  0  0  0  0  0  0  0  0  0
    2.4065    1.6415   33.5746 O   0  0  0  0  0  0  0  0  0  0  0  0
    1.8524    3.6066   34.8740 C   0  0  1  0  0  0  0  0  0  0  0  0
    2.0129    2.8974   36.1382 O   0  0  0  0  0  0  0  0  0  0  0  0
    2.1277    5.1300   35.0941 C   0  0  1  0  0  0  0  0  0  0  0  0
    2.1903    5.9347   33.7565 C   0  0  1  0  0  0  0  0  0  0  0  0
    2.5501    7.3510   33.9895 N   0  3  0  0  0  0  0  0  0  0  0  0
    3.2077    5.2917   32.7787 C   0  0  0  0  0  0  0  0  0  0  0  0
    1.3067    1.6355   36.3635 C   0  0  1  0  0  0  0  0  0  0  0  0
    2.3467    0.5147   36.5493 C   0  0  2  0  0  0  0  0  0  0  0  0
    1.8006   -0.7537   36.1984 O   0  0  0  0  0  0  0  0  0  0  0  0
    2.5792    0.6499   38.0617 C   0  0  1  0  0  0  0  0  0  0  0  0
    1.1675    0.8382   38.5920 C   0  0  2  0  0  0  0  0  0  0  0  0
    0.5869    1.6807   37.6082 O   0  0  0  0  0  0  0  0  0  0  0  0
    1.0714    1.4909   39.9770 C   0  0  0  0  0  0  0  0  0  0  0  0
    1.4446    2.8587   39.8982 O   0  0  0  0  0  0  0  0  0  0  0  0
    7.1754   -1.4900   37.2714 C   0  0  1  0  0  0  0  0  0  0  0  0
    7.8692   -0.8716   38.3535 O   0  0  0  0  0  0  0  0  0  0  0  0
    6.3117   -2.6620   37.8156 C   0  0  2  0  0  0  0  0  0  0  0  0
    5.9298   -3.4906   36.7202 O   0  0  0  0  0  0  0  0  0  0  0  0
    5.0257   -2.2390   38.5987 C   0  0  1  0  0  0  0  0  0  0  0  0
    5.3527   -1.9664   40.0156 N   0  3  0  0  0  0  0  0  0  0  0  0
    4.2946   -1.0551   37.9127 C   0  0  1  0  0  0  0  0  0  0  0  0
    3.2231   -0.4849   38.7038 O   0  0  0  0  0  0  0  0  0  0  0  0
    6.2672   -0.4585   36.5561 C   0  0  1  0  0  0  0  0  0  0  0  0
    5.2575   -0.0245   37.5078 O   0  0  0  0  0  0  0  0  0  0  0  0
    7.0305    0.7462   35.9746 C   0  0  0  0  0  0  0  0  0  0  0  0
    6.1370    1.7348   35.3399 N   0  3  0  0  0  0  0  0  0  0  0  0
  1  2  1  1  0  0  0
  1  3  1  0  0  0  0
  1 10  1  0  0  0  0
  3  4  1  1  0  0  0
  3  5  1  0  0  0  0
  5  6  1  6  0  0  0
  5  7  1  0  0  0  0
  7  8  1  1  0  0  0
  7  9  1  0  0  0  0
  9 10  1  0  0  0  0
  9 11  1  6  0  0  0
 11 12  1  0  0  0  0
 13 14  1  6  0  0  0
 13 15  1  0  0  0  0
 13 22  1  0  0  0  0
 15 16  1  6  0  0  0
 15 17  1  0  0  0  0
 17 18  1  1  0  0  0
 17 19  1  0  0  0  0
 19  2  1  1  0  0  0
 19 20  1  0  0  0  0
 20 21  1  1  0  0  0
 20 22  1  0  0  0  0
 23 18  1  1  0  0  0
 23 24  1  0  0  0  0
 23 28  1  0  0  0  0
 24 25  1  1  0  0  0
 24 26  1  0  0  0  0
 26 27  1  0  0  0  0
 26 38  1  1  0  0  0
 27 28  1  0  0  0  0
 27 29  1  1  0  0  0
 29 30  1  0  0  0  0
 31 32  1  1  0  0  0
 31 33  1  0  0  0  0
 31 39  1  0  0  0  0
 33 34  1  6  0  0  0
 33 35  1  0  0  0  0
 35 36  1  1  0  0  0
 35 37  1  0  0  0  0
 37 38  1  1  0  0  0
 37 40  1  0  0  0  0
 39 40  1  0  0  0  0
 39 41  1  1  0  0  0
 41 42  1  0  0  0  0
M  CHG  5   4   1  14   1  21   1  36   1  42   1
M  END
>  <CHROM.1>
-150.76503595,-73.01865234,164.90238176,-63.76743829,166.27663342,82.66191119
64.20642007,78.74489452,57.81893370,-82.86892309,117.01355928,-117.02952603
173.55888081,40.43338506,70.02007342,-65.37489518,-91.56180298,65.88977987
-63.99470615,178.14752193,-178.03410059,-176.07015588,2.15683816,2.49066768
36.41695043,-2.46093220,-0.54737454,2.34678841

>  <Name>
1pbr

>  <RI>
0

>  <Rbt.Current_Directory>
/home/itssahil/PROJECTS/Mol_Feturizer/New_Systems/rnas/1pbr

>  <Rbt.Executable>
rbdock ($Id: //depot/dev/client3/rdock/2013.1/src/exe/rbdock.cxx#4 $)

>  <Rbt.Library>
libRbt.so (2013.1, Build901 2013/11/27)

>  <Rbt.Parameter_File>
/export/apps/rDock/src/rDock_2013.1_src/data/scripts/dock_solv.prm

>  <Rbt.Receptor>
prm/blind_docking_40.prm

>  <SCORE>
21.0885

>  <SCORE.INTER>
13.8996

>  <SCORE.INTER.CONST>
1

>  <SCORE.INTER.POLAR>
-6.66209

>  <SCORE.INTER.ROT>
9

>  <SCORE.INTER.SOLV>
42.139

>  <SCORE.INTER.VDW>
7.82698

>  <SCORE.INTER.norm>
0.330942

>  <SCORE.INTRA>
3.89569

>  <SCORE.INTRA.DIHEDRAL>
-1.07568

>  <SCORE.INTRA.DIHEDRAL.0>
29.7866

>  <SCORE.INTRA.POLAR>
0.929503

>  <SCORE.INTRA.POLAR.0>
-0.984091

>  <SCORE.INTRA.REPUL>
-0.274115

>  <SCORE.INTRA.REPUL.0>
0.274115

>  <SCORE.INTRA.SOLV>
2.2629

>  <SCORE.INTRA.SOLV.lig_0>
-152.978

>  <SCORE.INTRA.VDW>
1.51234

>  <SCORE.INTRA.VDW.0>
-6.10719

>  <SCORE.INTRA.norm>
0.0927544

>  <SCORE.RESTR>
3.29329

>  <SCORE.RESTR.CAVITY>
3.29329

>  <SCORE.RESTR.norm>
0.0784116

>  <SCORE.SYSTEM>
0

>  <SCORE.SYSTEM.CONST>
0

>  <SCORE.SYSTEM.DIHEDRAL>
0

>  <SCORE.SYSTEM.SOLV>
0

>  <SCORE.SYSTEM.norm>
0

>  <SCORE.heavy>
42

>  <SCORE.norm>
0.502108

>  <RMSD>
9.462

$$$$
1pbr
 OpenBabel11021811403D
libRbt.so/2013.1/901 2013/11/27
 42 45  0  0  0  0  0  0  0  0999 V2000
    0.3301    5.6350   35.8835 C   0  0  2  0  0  0  0  0  0  0  0  0
   -0.6895    4.6118   35.7538 O   0  0  0  0  0  0  0  0  0  0  0  0
   -0.3229    7.0603   36.0261 C   0  0  2  0  0  0  0  0  0  0  0  0
   -1.5207    7.1042   36.9046 N   0  3  0  0  0  0  0  0  0  0  0  0
   -0.7683    7.6193   34.6616 C   0  0  1  0  0  0  0  0  0  0  0  0
   -1.1093    8.9998   34.7672 O   0  0  0  0  0  0  0  0  0  0  0  0
    0.3351    7.4451   33.6072 C   0  0  2  0  0  0  0  0  0  0  0  0
   -0.0774    8.0063   32.3649 O   0  0  0  0  0  0  0  0  0  0  0  0
    0.7409    5.9600   33.4799 C   0  0  2  0  0  0  0  0  0  0  0  0
    1.2571    5.5551   34.7656 O   0  0  0  0  0  0  0  0  0  0  0  0
    1.8224    5.6926   32.4344 C   0  0  0  0  0  0  0  0  0  0  0  0
    1.3522    5.9756   31.1231 O   0  0  0  0  0  0  0  0  0  0  0  0
   -0.2978    2.1638   39.2268 C   0  0  1  0  0  0  0  0  0  0  0  0
   -0.1544    1.0654   40.1999 N   0  3  0  0  0  0  0  0  0  0  0  0
    0.9859    2.3601   38.3646 C   0  0  2  0  0  0  0  0  0  0  0  0
    2.1067    2.6446   39.1984 O   0  0  0  0  0  0  0  0  0  0  0  0
    0.8147    3.5324   37.3547 C   0  0  1  0  0  0  0  0  0  0  0  0
    1.9725    3.5567   36.4682 O   0  0  0  0  0  0  0  0  0  0  0  0
   -0.4890    3.3891   36.5031 C   0  0  1  0  0  0  0  0  0  0  0  0
   -1.7597    3.1383   37.3766 C   0  0  1  0  0  0  0  0  0  0  0  0
   -2.9585    2.9080   36.5403 N   0  3  0  0  0  0  0  0  0  0  0  0
   -1.5429    1.9288   38.3224 C   0  0  0  0  0  0  0  0  0  0  0  0
    1.9612    2.7778   35.2292 C   0  0  1  0  0  0  0  0  0  0  0  0
    3.4116    2.4089   34.8653 C   0  0  2  0  0  0  0  0  0  0  0  0
    3.5474    2.1866   33.4645 O   0  0  0  0  0  0  0  0  0  0  0  0
    3.5405    1.1102   35.6757 C   0  0  1  0  0  0  0  0  0  0  0  0
    2.2097    0.4268   35.4081 C   0  0  2  0  0  0  0  0  0  0  0  0
    1.3010    1.5168   35.4373 O   0  0  0  0  0  0  0  0  0  0  0  0
    1.8019   -0.6352   36.4375 C   0  0  0  0  0  0  0  0  0  0  0  0
    2.8150   -1.6243   36.5448 O   0  0  0  0  0  0  0  0  0  0  0  0
    7.0574   -1.2713   38.5578 C   0  0  1  0  0  0  0  0  0  0  0  0
    6.4561   -2.5646   38.5761 O   0  0  0  0  0  0  0  0  0  0  0  0
    7.7775   -1.0570   37.1972 C   0  0  2  0  0  0  0  0  0  0  0  0
    8.6696    0.0477   37.3253 O   0  0  0  0  0  0  0  0  0  0  0  0
    6.8367   -0.8045   35.9737 C   0  0  1  0  0  0  0  0  0  0  0  0
    6.3777   -2.0905   35.4039 N   0  3  0  0  0  0  0  0  0  0  0  0
    5.6641    0.1457   36.3327 C   0  0  1  0  0  0  0  0  0  0  0  0
    4.6478    0.2437   35.3048 O   0  0  0  0  0  0  0  0  0  0  0  0
    5.9806   -0.1754   38.7585 C   0  0  1  0  0  0  0  0  0  0  0  0
    5.0752   -0.2328   37.6224 O   0  0  0  0  0  0  0  0  0  0  0  0
    5.2082   -0.2965   40.0855 C   0  0  0  0  0  0  0  0  0  0  0  0
    4.1117    0.6851   40.1984 N   0  3  0  0  0  0  0  0  0  0  0  0
  1  2  1  6  0  0  0
  1  3  1  0  0  0  0
  1 10  1  0  0  0  0
  3  4  1  1  0  0  0
  3  5  1  0  0  0  0
  5  6  1  1  0  0  0
  5  7  1  0  0  0  0
  7  8  1  6  0  0  0
  7  9  1  0  0  0  0
  9 10  1  0  0  0  0
  9 11  1  6  0  0  0
 11 12  1  0  0  0  0
 13 14  1  1  0  0  0
 13 15  1  0  0  0  0
 13 22  1  0  0  0  0
 15 16  1  1  0  0  0
 15 17  1  0  0  0  0
 17 18  1  6  0  0  0
 17 19  1  0  0  0  0
 19  2  1  1  0  0  0
 19 20  1  0  0  0  0
 20 21  1  6  0  0  0
 20 22  1  0  0  0  0
 23 18  1  1  0  0  0
 23 24  1  0  0  0  0
 23 28  1  0  0  0  0
 24 25  1  6  0  0  0
 24 26  1  0  0  0  0
 26 27  1  0  0  0  0
 26 38  1  6  0  0  0
 27 28  1  0  0  0  0
 27 29  1  1  0  0  0
 29 30  1  0  0  0  0
 31 32  1  6  0  0  0
 31 33  1  0  0  0  0
 31 39  1  0  0  0  0
 33 34  1  1  0  0  0
 33 35  1  0  0  0  0
 35 36  1  1  0  0  0
 35 37  1  0  0  0  0
 37 38  1  6  0  0  0
 37 40  1  0  0  0  0
 39 40  1  0  0  0  0
 39 41  1  1  0  0  0
 41 42  1  0  0  0  0
M  CHG  5   4   1  14   1  21   1  36   1  42   1
M  END
>  <CHROM.1>
-137.47093812,2.80400099,-177.19970752,-70.15827518,-57.73653471,-65.60248071
-61.71995382,-57.49468471,55.08282765,89.27728461,-152.39688690,-71.33229185
76.10317603,112.71017872,-56.34266907,64.42251108,175.13389201,-179.90249670
25.00415230,178.42055092,-174.96952422,-179.83155322,2.24236218,2.54361451
36.32176243,2.39600473,0.53832801,-0.88350346

>  <Name>
1pbr

>  <RI>
0

>  <Rbt.Current_Directory>
/home/itssahil/PROJECTS/Mol_Feturizer/New_Systems/rnas/1pbr

>  <Rbt.Executable>
rbdock ($Id: //depot/dev/client3/rdock/2013.1/src/exe/rbdock.cxx#4 $)

>  <Rbt.Library>
libRbt.so (2013.1, Build901 2013/11/27)

>  <Rbt.Parameter_File>
/export/apps/rDock/src/rDock_2013.1_src/data/scripts/dock_solv.prm

>  <Rbt.Receptor>
prm/blind_docking_40.prm

>  <SCORE>
-19.9051

>  <SCORE.INTER>
-29.1023

>  <SCORE.INTER.CONST>
1

>  <SCORE.INTER.POLAR>
-2.69702

>  <SCORE.INTER.ROT>
9

>  <SCORE.INTER.SOLV>
30.5099

>  <SCORE.INTER.VDW>
-30.1814

>  <SCORE.INTER.norm>
-0.692912

>  <SCORE.INTRA>
5.24519

>  <SCORE.INTRA.DIHEDRAL>
2.41013

>  <SCORE.INTRA.DIHEDRAL.0>
29.7866

>  <SCORE.INTRA.POLAR>
-0.161517

>  <SCORE.INTRA.POLAR.0>
-0.984091

>  <SCORE.INTRA.REPUL>
-0.274115

>  <SCORE.INTRA.REPUL.0>
0.274115

>  <SCORE.INTRA.SOLV>
3.80715

>  <SCORE.INTRA.SOLV.lig_0>
-152.978

>  <SCORE.INTRA.VDW>
4.05628

>  <SCORE.INTRA.VDW.0>
-6.10719

>  <SCORE.INTRA.norm>
0.124885

>  <SCORE.RESTR>
3.95201

>  <SCORE.RESTR.CAVITY>
3.95201

>  <SCORE.RESTR.norm>
0.0940955

>  <SCORE.SYSTEM>
0

>  <SCORE.SYSTEM.CONST>
0

>  <SCORE.SYSTEM.DIHEDRAL>
0

>  <SCORE.SYSTEM.SOLV>
0

>  <SCORE.SYSTEM.norm>
0

>  <SCORE.heavy>
42

>  <SCORE.norm>
-0.473931

>  <RMSD>
9.468

$$$$
1pbr
 OpenBabel11021811403D
libRbt.so/2013.1/901 2013/11/27
 42 45  0  0  0  0  0  0  0  0999 V2000
   -1.1780    5.5768   34.5540 C   0  0  2  0  0  0  0  0  0  0  0  0
   -0.0216    4.8976   35.1060 O   0  0  0  0  0  0  0  0  0  0  0  0
   -0.7591    6.5142   33.3607 C   0  0  2  0  0  0  0  0  0  0  0  0
    0.2536    5.9294   32.4438 N   0  3  0  0  0  0  0  0  0  0  0  0
   -0.1674    7.8441   33.8647 C   0  0  1  0  0  0  0  0  0  0  0  0
   -0.0406    8.7791   32.7956 O   0  0  0  0  0  0  0  0  0  0  0  0
   -1.0402    8.4514   34.9734 C   0  0  2  0  0  0  0  0  0  0  0  0
   -0.5018    9.7003   35.3959 O   0  0  0  0  0  0  0  0  0  0  0  0
   -1.2124    7.4555   36.1417 C   0  0  2  0  0  0  0  0  0  0  0  0
   -1.8806    6.2935   35.6066 O   0  0  0  0  0  0  0  0  0  0  0  0
   -2.0526    7.9881   37.3013 C   0  0  0  0  0  0  0  0  0  0  0  0
   -1.4795    9.1654   37.8545 O   0  0  0  0  0  0  0  0  0  0  0  0
   -1.0456    2.5144   38.4942 C   0  0  1  0  0  0  0  0  0  0  0  0
   -1.3823    1.4359   39.4414 N   0  3  0  0  0  0  0  0  0  0  0  0
    0.4316    2.4297   38.0038 C   0  0  2  0  0  0  0  0  0  0  0  0
    1.3283    2.5090   39.1093 O   0  0  0  0  0  0  0  0  0  0  0  0
    0.7663    3.5852   37.0157 C   0  0  1  0  0  0  0  0  0  0  0  0
    2.0969    3.3561   36.4644 O   0  0  0  0  0  0  0  0  0  0  0  0
   -0.2704    3.6799   35.8489 C   0  0  1  0  0  0  0  0  0  0  0  0
   -1.7491    3.7089   36.3522 C   0  0  1  0  0  0  0  0  0  0  0  0
   -2.7080    3.6981   35.2253 N   0  3  0  0  0  0  0  0  0  0  0  0
   -2.0314    2.5063   37.2894 C   0  0  0  0  0  0  0  0  0  0  0  0
    2.2629    2.5094   35.2823 C   0  0  1  0  0  0  0  0  0  0  0  0
    3.7384    2.5585   34.8435 C   0  0  2  0  0  0  0  0  0  0  0  0
    3.8692    2.2716   33.4540 O   0  0  0  0  0  0  0  0  0  0  0  0
    4.2899    1.4282   35.7256 C   0  0  1  0  0  0  0  0  0  0  0  0
    3.2156    0.3611   35.5957 C   0  0  2  0  0  0  0  0  0  0  0  0
    2.0233    1.1310   35.6170 O   0  0  0  0  0  0  0  0  0  0  0  0
    3.1948   -0.6852   36.7176 C   0  0  0  0  0  0  0  0  0  0  0  0
    2.9409   -0.0568   37.9653 O   0  0  0  0  0  0  0  0  0  0  0  0
    7.5570   -1.4670   38.3683 C   0  0  1  0  0  0  0  0  0  0  0  0
    7.1216   -2.7252   37.8563 O   0  0  0  0  0  0  0  0  0  0  0  0
    8.4726   -0.7735   37.3212 C   0  0  2  0  0  0  0  0  0  0  0  0
    9.1893    0.2749   37.9690 O   0  0  0  0  0  0  0  0  0  0  0  0
    7.7364   -0.1835   36.0739 C   0  0  1  0  0  0  0  0  0  0  0  0
    7.5418   -1.2316   35.0480 N   0  3  0  0  0  0  0  0  0  0  0  0
    6.4136    0.5261   36.4657 C   0  0  1  0  0  0  0  0  0  0  0  0
    5.5881    0.9016   35.3358 O   0  0  0  0  0  0  0  0  0  0  0  0
    6.3380   -0.5624   38.6786 C   0  0  1  0  0  0  0  0  0  0  0  0
    5.6584   -0.2912   37.4223 O   0  0  0  0  0  0  0  0  0  0  0  0
    5.3660   -1.1599   39.7131 C   0  0  0  0  0  0  0  0  0  0  0  0
    5.4787   -0.5190   41.0379 N   0  3  0  0  0  0  0  0  0  0  0  0
  1  2  1  1  0  0  0
  1  3  1  0  0  0  0
  1 10  1  0  0  0  0
  3  4  1  1  0  0  0
  3  5  1  0  0  0  0
  5  6  1  6  0  0  0
  5  7  1  0  0  0  0
  7  8  1  1  0  0  0
  7  9  1  0  0  0  0
  9 10  1  0  0  0  0
  9 11  1  1  0  0  0
 11 12  1  0  0  0  0
 13 14  1  1  0  0  0
 13 15  1  0  0  0  0
 13 22  1  0  0  0  0
 15 16  1  1  0  0  0
 15 17  1  0  0  0  0
 17 18  1  6  0  0  0
 17 19  1  0  0  0  0
 19  2  1  1  0  0  0
 19 20  1  0  0  0  0
 20 21  1  6  0  0  0
 20 22  1  0  0  0  0
 23 18  1  1  0  0  0
 23 24  1  0  0  0  0
 23 28  1  0  0  0  0
 24 25  1  6  0  0  0
 24 26  1  0  0  0  0
 26 27  1  0  0  0  0
 26 38  1  6  0  0  0
 27 28  1  0  0  0  0
 27 29  1  1  0  0  0
 29 30  1  0  0  0  0
 31 32  1  6  0  0  0
 31 33  1  0  0  0  0
 31 39  1  0  0  0  0
 33 34  1  1  0  0  0
 33 35  1  0  0  0  0
 35 36  1  6  0  0  0
 35 37  1  0  0  0  0
 37 38  1  6  0  0  0
 37 40  1  0  0  0  0
 39 40  1  0  0  0  0
 39 41  1  1  0  0  0
 41 42  1  0  0  0  0
M  CHG  5   4   1  14   1  21   1  36   1  42   1
M  END
>  <CHROM.1>
-158.32625078,-145.48827500,-137.26742845,-71.69167818,-165.74593437,-59.34857156
-74.77658945,-179.36660747,-60.97969865,86.36402053,174.44344331,-104.31939783
-57.10564940,144.26416223,61.49488077,-64.00701718,62.43231747,179.17626327
43.96002742,173.52905797,104.90512577,-59.23004351,2.23725785,2.86606592
36.41726152,-2.47828434,-0.47988815,2.33135940

>  <Name>
1pbr

>  <RI>
0

>  <Rbt.Current_Directory>
/home/itssahil/PROJECTS/Mol_Feturizer/New_Systems/rnas/1pbr

>  <Rbt.Executable>
rbdock ($Id: //depot/dev/client3/rdock/2013.1/src/exe/rbdock.cxx#4 $)

>  <Rbt.Library>
libRbt.so (2013.1, Build901 2013/11/27)

>  <Rbt.Parameter_File>
/export/apps/rDock/src/rDock_2013.1_src/data/scripts/dock_solv.prm

>  <Rbt.Receptor>
prm/blind_docking_40.prm

>  <SCORE>
-13.733

>  <SCORE.INTER>
-27.728

>  <SCORE.INTER.CONST>
1

>  <SCORE.INTER.POLAR>
-5.85723

>  <SCORE.INTER.ROT>
9

>  <SCORE.INTER.SOLV>
42.8496

>  <SCORE.INTER.VDW>
-22.8444

>  <SCORE.INTER.norm>
-0.660191

>  <SCORE.INTRA>
9.44315

>  <SCORE.INTRA.DIHEDRAL>
-0.543546

>  <SCORE.INTRA.DIHEDRAL.0>
29.7866

>  <SCORE.INTRA.POLAR>
-0.432465

>  <SCORE.INTRA.POLAR.0>
-0.984091

>  <SCORE.INTRA.REPUL>
-0.207626

>  <SCORE.INTRA.REPUL.0>
0.274115

>  <SCORE.INTRA.SOLV>
-0.0367014

>  <SCORE.INTRA.SOLV.lig_0>
-152.978

>  <SCORE.INTRA.VDW>
12.2418

>  <SCORE.INTRA.VDW.0>
-6.10719

>  <SCORE.INTRA.norm>
0.224837

>  <SCORE.RESTR>
4.55186

>  <SCORE.RESTR.CAVITY>
4.55186

>  <SCORE.RESTR.norm>
0.108378

>  <SCORE.SYSTEM>
0

>  <SCORE.SYSTEM.CONST>
0

>  <SCORE.SYSTEM.DIHEDRAL>
0

>  <SCORE.SYSTEM.SOLV>
0

>  <SCORE.SYSTEM.norm>
0

>  <SCORE.heavy>
42

>  <SCORE.norm>
-0.326977

>  <RMSD>
9.473

$$$$
1pbr
 OpenBabel11021811403D
libRbt.so/2013.1/901 2013/11/27
 42 45  0  0  0  0  0  0  0  0999 V2000
   -0.7998    4.9244   36.9819 C   0  0  2  0  0  0  0  0  0  0  0  0
   -0.4535    4.5181   35.6336 O   0  0  0  0  0  0  0  0  0  0  0  0
    0.3870    4.6363   37.9752 C   0  0  2  0  0  0  0  0  0  0  0  0
    1.7338    4.9586   37.4361 N   0  3  0  0  0  0  0  0  0  0  0  0
    0.4323    3.1535   38.3899 C   0  0  1  0  0  0  0  0  0  0  0  0
    1.3319    2.9599   39.4792 O   0  0  0  0  0  0  0  0  0  0  0  0
   -0.9636    2.6479   38.7843 C   0  0  2  0  0  0  0  0  0  0  0  0
   -0.8947    1.2894   39.2060 O   0  0  0  0  0  0  0  0  0  0  0  0
   -1.9685    2.8592   37.6302 C   0  0  2  0  0  0  0  0  0  0  0  0
   -2.0384    4.2808   37.3906 O   0  0  0  0  0  0  0  0  0  0  0  0
   -3.3821    2.3635   37.9307 C   0  0  0  0  0  0  0  0  0  0  0  0
   -4.1843    2.3525   36.7573 O   0  0  0  0  0  0  0  0  0  0  0  0
    0.2121    6.3224   31.8245 C   0  0  1  0  0  0  0  0  0  0  0  0
    0.4911    7.2263   30.6935 N   0  3  0  0  0  0  0  0  0  0  0  0
    1.4722    6.0763   32.7083 C   0  0  2  0  0  0  0  0  0  0  0  0
    2.5227    5.5079   31.9300 O   0  0  0  0  0  0  0  0  0  0  0  0
    1.1558    5.1098   33.8871 C   0  0  1  0  0  0  0  0  0  0  0  0
    2.3167    5.0539   34.7682 O   0  0  0  0  0  0  0  0  0  0  0  0
   -0.0954    5.5694   34.7045 C   0  0  1  0  0  0  0  0  0  0  0  0
   -1.3352    5.8652   33.8011 C   0  0  1  0  0  0  0  0  0  0  0  0
   -2.4705    6.3923   34.5902 N   0  3  0  0  0  0  0  0  0  0  0  0
   -0.9671    6.8712   32.6799 C   0  0  0  0  0  0  0  0  0  0  0  0
    3.2749    3.9545   34.6465 C   0  0  1  0  0  0  0  0  0  0  0  0
    3.7013    3.5131   36.0591 C   0  0  2  0  0  0  0  0  0  0  0  0
    4.9886    2.9027   36.0380 O   0  0  0  0  0  0  0  0  0  0  0  0
    2.5817    2.5004   36.3433 C   0  0  1  0  0  0  0  0  0  0  0  0
    2.4752    1.7546   35.0235 C   0  0  2  0  0  0  0  0  0  0  0  0
    2.6386    2.7978   34.0749 O   0  0  0  0  0  0  0  0  0  0  0  0
    1.1458    1.0253   34.7904 C   0  0  0  0  0  0  0  0  0  0  0  0
    1.3885   -0.3234   34.4183 O   0  0  0  0  0  0  0  0  0  0  0  0
    5.6699   -1.6802   37.5811 C   0  0  1  0  0  0  0  0  0  0  0  0
    5.9510   -1.5492   38.9734 O   0  0  0  0  0  0  0  0  0  0  0  0
    4.1761   -2.0648   37.3908 C   0  0  2  0  0  0  0  0  0  0  0  0
    3.9987   -2.5518   36.0627 O   0  0  0  0  0  0  0  0  0  0  0  0
    3.1500   -0.9123   37.6452 C   0  0  1  0  0  0  0  0  0  0  0  0
    2.8290   -0.8181   39.0864 N   0  3  0  0  0  0  0  0  0  0  0  0
    3.6350    0.4353   37.0489 C   0  0  1  0  0  0  0  0  0  0  0  0
    2.8314    1.5763   37.4380 O   0  0  0  0  0  0  0  0  0  0  0  0
    5.9655   -0.3488   36.8458 C   0  0  1  0  0  0  0  0  0  0  0  0
    5.0510    0.6549   37.3653 O   0  0  0  0  0  0  0  0  0  0  0  0
    7.4272    0.1203   36.9701 C   0  0  0  0  0  0  0  0  0  0  0  0
    8.3813   -0.8140   36.3413 N   0  3  0  0  0  0  0  0  0  0  0  0
  1  2  1  6  0  0  0
  1  3  1  0  0  0  0
  1 10  1  0  0  0  0
  3  4  1  6  0  0  0
  3  5  1  0  0  0  0
  5  6  1  1  0  0  0
  5  7  1  0  0  0  0
  7  8  1  6  0  0  0
  7  9  1  0  0  0  0
  9 10  1  0  0  0  0
  9 11  1  1  0  0  0
 11 12  1  0  0  0  0
 13 14  1  6  0  0  0
 13 15  1  0  0  0  0
 13 22  1  0  0  0  0
 15 16  1  6  0  0  0
 15 17  1  0  0  0  0
 17 18  1  1  0  0  0
 17 19  1  0  0  0  0
 19  2  1  1  0  0  0
 19 20  1  0  0  0  0
 20 21  1  1  0  0  0
 20 22  1  0  0  0  0
 23 18  1  1  0  0  0
 23 24  1  0  0  0  0
 23 28  1  0  0  0  0
 24 25  1  6  0  0  0
 24 26  1  0  0  0  0
 26 27  1  0  0  0  0
 26 38  1  1  0  0  0
 27 28  1  0  0  0  0
 27 29  1  6  0  0  0
 29 30  1  0  0  0  0
 31 32  1  1  0  0  0
 31 33  1  0  0  0  0
 31 39  1  0  0  0  0
 33 34  1  6  0  0  0
 33 35  1  0  0  0  0
 35 36  1  1  0  0  0
 35 37  1  0  0  0  0
 37 38  1  1  0  0  0
 37 40  1  0  0  0  0
 39 40  1  0  0  0  0
 39 41  1  1  0  0  0
 41 42  1  0  0  0  0
M  CHG  5   4   1  14   1  21   1  36   1  42   1
M  END
>  <CHROM.1>
-103.22160314,136.68653930,-152.52246932,72.63064588,178.27856066,-168.91407723
80.72956942,-67.76844878,175.38278546,-97.74904893,-139.65741223,41.29214526
-51.17313131,-82.70628170,-129.06741015,-176.44144611,178.13673412,-55.51256930
-169.22622228,-138.34776543,63.63140605,71.90691354,1.77296373,2.61508356
36.08899998,2.36298283,0.39248461,-0.81660098

>  <Name>
1pbr

>  <RI>
0

>  <Rbt.Current_Directory>
/home/itssahil/PROJECTS/Mol_Feturizer/New_Systems/rnas/1pbr

>  <Rbt.Executable>
rbdock ($Id: //depot/dev/client3/rdock/2013.1/src/exe/rbdock.cxx#4 $)

>  <Rbt.Library>
libRbt.so (2013.1, Build901 2013/11/27)

>  <Rbt.Parameter_File>
/export/apps/rDock/src/rDock_2013.1_src/data/scripts/dock_solv.prm

>  <Rbt.Receptor>
prm/blind_docking_40.prm

>  <SCORE>
32.7345

>  <SCORE.INTER>
19.3015

>  <SCORE.INTER.CONST>
1

>  <SCORE.INTER.POLAR>
-4.4499

>  <SCORE.INTER.ROT>
9

>  <SCORE.INTER.SOLV>
35.3847

>  <SCORE.INTER.VDW>
6.30578

>  <SCORE.INTER.norm>
0.45956

>  <SCORE.INTRA>
10.7355

>  <SCORE.INTRA.DIHEDRAL>
12.8191

>  <SCORE.INTRA.DIHEDRAL.0>
29.7866

>  <SCORE.INTRA.POLAR>
-0.190619

>  <SCORE.INTRA.POLAR.0>
-0.984091

>  <SCORE.INTRA.REPUL>
-0.274115

>  <SCORE.INTRA.REPUL.0>
0.274115

>  <SCORE.INTRA.SOLV>
6.18921

>  <SCORE.INTRA.SOLV.lig_0>
-152.978

>  <SCORE.INTRA.VDW>
3.25007

>  <SCORE.INTRA.VDW.0>
-6.10719

>  <SCORE.INTRA.norm>
0.255608

>  <SCORE.RESTR>
2.69749

>  <SCORE.RESTR.CAVITY>
2.69749

>  <SCORE.RESTR.norm>
0.0642258

>  <SCORE.SYSTEM>
0

>  <SCORE.SYSTEM.CONST>
0

>  <SCORE.SYSTEM.DIHEDRAL>
0

>  <SCORE.SYSTEM.SOLV>
0

>  <SCORE.SYSTEM.norm>
0

>  <SCORE.heavy>
42

>  <SCORE.norm>
0.779393

>  <RMSD>
9.478

$$$$
1pbr
 OpenBabel11021811403D
libRbt.so/2013.1/901 2013/11/27
 42 45  0  0  0  0  0  0  0  0999 V2000
    3.9143   -6.1857   39.6637 C   0  0  2  0  0  0  0  0  0  0  0  0
    4.2266   -4.8187   40.0340 O   0  0  0  0  0  0  0  0  0  0  0  0
    3.1683   -6.9261   40.8356 C   0  0  2  0  0  0  0  0  0  0  0  0
    2.1447   -6.1037   41.5315 N   0  3  0  0  0  0  0  0  0  0  0  0
    4.1508   -7.4018   41.9224 C   0  0  1  0  0  0  0  0  0  0  0  0
    3.5068   -8.2904   42.8329 O   0  0  0  0  0  0  0  0  0  0  0  0
    5.3667   -8.1030   41.2984 C   0  0  2  0  0  0  0  0  0  0  0  0
    6.2415   -8.5739   42.3188 O   0  0  0  0  0  0  0  0  0  0  0  0
    6.0786   -7.1719   40.2919 C   0  0  2  0  0  0  0  0  0  0  0  0
    5.1257   -6.8756   39.2491 O   0  0  0  0  0  0  0  0  0  0  0  0
    7.3157   -7.7845   39.6374 C   0  0  0  0  0  0  0  0  0  0  0  0
    7.7069   -8.9822   40.2955 O   0  0  0  0  0  0  0  0  0  0  0  0
    4.8720   -1.1237   37.9998 C   0  0  1  0  0  0  0  0  0  0  0  0
    4.8724    0.0246   37.0750 N   0  3  0  0  0  0  0  0  0  0  0  0
    3.5134   -1.2788   38.7480 C   0  0  2  0  0  0  0  0  0  0  0  0
    3.2203   -0.1015   39.4966 O   0  0  0  0  0  0  0  0  0  0  0  0
    3.5422   -2.4890   39.7269 C   0  0  1  0  0  0  0  0  0  0  0  0
    2.2010   -2.6849   40.2652 O   0  0  0  0  0  0  0  0  0  0  0  0
    4.0170   -3.8026   39.0240 C   0  0  1  0  0  0  0  0  0  0  0  0
    5.3514   -3.6189   38.2325 C   0  0  1  0  0  0  0  0  0  0  0  0
    5.7225   -4.8487   37.4980 N   0  3  0  0  0  0  0  0  0  0  0  0
    5.2399   -2.4322   37.2407 C   0  0  0  0  0  0  0  0  0  0  0  0
    1.7309   -1.8568   41.3766 C   0  0  1  0  0  0  0  0  0  0  0  0
    0.3502   -2.3710   41.8252 C   0  0  2  0  0  0  0  0  0  0  0  0
   -0.4027   -1.3362   42.4518 O   0  0  0  0  0  0  0  0  0  0  0  0
    0.8060   -3.4454   42.8240 C   0  0  1  0  0  0  0  0  0  0  0  0
    1.9303   -2.7427   43.5667 C   0  0  2  0  0  0  0  0  0  0  0  0
    2.5803   -2.0315   42.5244 O   0  0  0  0  0  0  0  0  0  0  0  0
    2.9231   -3.6706   44.2788 C   0  0  0  0  0  0  0  0  0  0  0  0
    3.4790   -3.0144   45.4087 O   0  0  0  0  0  0  0  0  0  0  0  0
   -0.0692   -7.6582   45.9071 C   0  0  1  0  0  0  0  0  0  0  0  0
   -0.3923   -7.0925   47.1761 O   0  0  0  0  0  0  0  0  0  0  0  0
   -1.2645   -7.4578   44.9341 C   0  0  2  0  0  0  0  0  0  0  0  0
   -1.0936   -8.3308   43.8200 O   0  0  0  0  0  0  0  0  0  0  0  0
   -1.4603   -5.9993   44.4049 C   0  0  1  0  0  0  0  0  0  0  0  0
   -2.2532   -5.2045   45.3687 N   0  3  0  0  0  0  0  0  0  0  0  0
   -0.1086   -5.3295   44.0429 C   0  0  1  0  0  0  0  0  0  0  0  0
   -0.2104   -3.9137   43.7526 O   0  0  0  0  0  0  0  0  0  0  0  0
    1.1983   -6.9833   45.3252 C   0  0  1  0  0  0  0  0  0  0  0  0
    0.8853   -5.5827   45.0923 O   0  0  0  0  0  0  0  0  0  0  0  0
    2.4462   -7.1283   46.2162 C   0  0  0  0  0  0  0  0  0  0  0  0
    3.2173   -8.3521   45.9226 N   0  3  0  0  0  0  0  0  0  0  0  0
  1  2  1  1  0  0  0
  1  3  1  0  0  0  0
  1 10  1  0  0  0  0
  3  4  1  1  0  0  0
  3  5  1  0  0  0  0
  5  6  1  1  0  0  0
  5  7  1  0  0  0  0
  7  8  1  1  0  0  0
  7  9  1  0  0  0  0
  9 10  1  0  0  0  0
  9 11  1  6  0  0  0
 11 12  1  0  0  0  0
 13 14  1  6  0  0  0
 13 15  1  0  0  0  0
 13 22  1  0  0  0  0
 15 16  1  1  0  0  0
 15 17  1  0  0  0  0
 17 18  1  6  0  0  0
 17 19  1  0  0  0  0
 19  2  1  1  0  0  0
 19 20  1  0  0  0  0
 20 21  1  6  0  0  0
 20 22  1  0  0  0  0
 23 18  1  6  0  0  0
 23 24  1  0  0  0  0
 23 28  1  0  0  0  0
 24 25  1  1  0  0  0
 24 26  1  0  0  0  0
 26 27  1  0  0  0  0
 26 38  1  1  0  0  0
 27 28  1  0  0  0  0
 27 29  1  6  0  0  0
 29 30  1  0  0  0  0
 31 32  1  1  0  0  0
 31 33  1  0  0  0  0
 31 39  1  0  0  0  0
 33 34  1  6  0  0  0
 33 35  1  0  0  0  0
 35 36  1  1  0  0  0
 35 37  1  0  0  0  0
 37 38  1  1  0  0  0
 37 40  1  0  0  0  0
 39 40  1  0  0  0  0
 39 41  1  1  0  0  0
 41 42  1  0  0  0  0
M  CHG  5   4   1  14   1  21   1  36   1  42   1
M  END
>  <CHROM.1>
-138.05877460,145.51699040,65.00840425,59.79849805,-175.99071855,-11.96923430
-164.28381752,-172.31591729,66.31661818,-81.03037147,-174.47549141,65.64383637
61.27886574,143.27740890,-151.38788192,68.78373915,62.07545232,-57.98393704
77.08937123,-151.34220814,88.95712416,171.81940558,2.76053548,-4.99579964
41.96960789,-0.76755621,-0.70052189,2.59575867

>  <Name>
1pbr

>  <RI>
0

>  <Rbt.Current_Directory>
/home/itssahil/PROJECTS/Mol_Feturizer/New_Systems/rnas/1pbr

>  <Rbt.Executable>
rbdock ($Id: //depot/dev/client3/rdock/2013.1/src/exe/rbdock.cxx#4 $)

>  <Rbt.Library>
libRbt.so (2013.1, Build901 2013/11/27)

>  <Rbt.Parameter_File>
/export/apps/rDock/src/rDock_2013.1_src/data/scripts/dock_solv.prm

>  <Rbt.Receptor>
prm/pocket_docking_7.prm

>  <SCORE>
-28.2357

>  <SCORE.INTER>
-23.9733

>  <SCORE.INTER.CONST>
1

>  <SCORE.INTER.POLAR>
-4.71363

>  <SCORE.INTER.ROT>
9

>  <SCORE.INTER.SOLV>
17.7425

>  <SCORE.INTER.VDW>
-15.7843

>  <SCORE.INTER.norm>
-0.570794

>  <SCORE.INTRA>
-4.28024

>  <SCORE.INTRA.DIHEDRAL>
3.79919

>  <SCORE.INTRA.DIHEDRAL.0>
29.7866

>  <SCORE.INTRA.POLAR>
-2.08835

>  <SCORE.INTRA.POLAR.0>
-0.984091

>  <SCORE.INTRA.REPUL>
-0.274115

>  <SCORE.INTRA.REPUL.0>
0.274115

>  <SCORE.INTRA.SOLV>
6.78955

>  <SCORE.INTRA.SOLV.lig_0>
-152.978

>  <SCORE.INTRA.VDW>
-1.10364

>  <SCORE.INTRA.VDW.0>
-6.10719

>  <SCORE.INTRA.norm>
-0.10191

>  <SCORE.RESTR>
0.0179099

>  <SCORE.RESTR.CAVITY>
0.0179099

>  <SCORE.RESTR.norm>
0.000426427

>  <SCORE.SYSTEM>
0

>  <SCORE.SYSTEM.CONST>
0

>  <SCORE.SYSTEM.DIHEDRAL>
0

>  <SCORE.SYSTEM.SOLV>
0

>  <SCORE.SYSTEM.norm>
0

>  <SCORE.heavy>
42

>  <SCORE.norm>
-0.672278

>  <RMSD>
9.500

$$$$
1pbr
 OpenBabel11021811403D
libRbt.so/2013.1/901 2013/11/27
 42 45  0  0  0  0  0  0  0  0999 V2000
   -0.0822    5.6937   36.0330 C   0  0  2  0  0  0  0  0  0  0  0  0
   -0.9756    4.5861   35.7532 O   0  0  0  0  0  0  0  0  0  0  0  0
   -0.8724    7.0549   36.0664 C   0  0  2  0  0  0  0  0  0  0  0  0
   -2.1900    6.9858   36.7501 N   0  3  0  0  0  0  0  0  0  0  0  0
   -1.1504    7.5843   34.6469 C   0  0  1  0  0  0  0  0  0  0  0  0
   -1.6239    8.9286   34.6920 O   0  0  0  0  0  0  0  0  0  0  0  0
    0.1128    7.5168   33.7755 C   0  0  2  0  0  0  0  0  0  0  0  0
   -0.1519    8.0503   32.4818 O   0  0  0  0  0  0  0  0  0  0  0  0
    0.6626    6.0742   33.7196 C   0  0  2  0  0  0  0  0  0  0  0  0
    1.0088    5.7052   35.0713 O   0  0  0  0  0  0  0  0  0  0  0  0
    1.9111    5.9119   32.8540 C   0  0  0  0  0  0  0  0  0  0  0  0
    1.6617    6.3060   31.5113 O   0  0  0  0  0  0  0  0  0  0  0  0
   -0.4663    2.1076   39.1891 C   0  0  1  0  0  0  0  0  0  0  0  0
   -0.2869    1.0010   40.1468 N   0  3  0  0  0  0  0  0  0  0  0  0
    0.7907    2.3224   38.2927 C   0  0  2  0  0  0  0  0  0  0  0  0
    1.9326    2.6076   39.0971 O   0  0  0  0  0  0  0  0  0  0  0  0
    0.5818    3.5031   37.2998 C   0  0  1  0  0  0  0  0  0  0  0  0
    1.7136    3.5451   36.3810 O   0  0  0  0  0  0  0  0  0  0  0  0
   -0.7445    3.3578   36.4843 C   0  0  1  0  0  0  0  0  0  0  0  0
   -1.9878    3.0884   37.3911 C   0  0  1  0  0  0  0  0  0  0  0  0
   -3.2082    2.8569   36.5869 N   0  3  0  0  0  0  0  0  0  0  0  0
   -1.7350    1.8716   38.3183 C   0  0  0  0  0  0  0  0  0  0  0  0
    1.7436    2.6588   35.2167 C   0  0  1  0  0  0  0  0  0  0  0  0
    3.2124    2.3657   34.8578 C   0  0  2  0  0  0  0  0  0  0  0  0
    3.3452    2.0284   33.4799 O   0  0  0  0  0  0  0  0  0  0  0  0
    3.4490    1.1584   35.7778 C   0  0  1  0  0  0  0  0  0  0  0  0
    2.1695    0.3581   35.5993 C   0  0  2  0  0  0  0  0  0  0  0  0
    1.1824    1.3768   35.5498 O   0  0  0  0  0  0  0  0  0  0  0  0
    1.8562   -0.6336   36.7272 C   0  0  0  0  0  0  0  0  0  0  0  0
    2.2467   -0.0876   37.9785 O   0  0  0  0  0  0  0  0  0  0  0  0
    5.7670   -3.3187   37.4444 C   0  0  1  0  0  0  0  0  0  0  0  0
    6.0863   -4.0222   36.2453 O   0  0  0  0  0  0  0  0  0  0  0  0
    6.7279   -2.1075   37.6027 C   0  0  2  0  0  0  0  0  0  0  0  0
    6.6569   -1.6452   38.9495 O   0  0  0  0  0  0  0  0  0  0  0  0
    6.4527   -0.9040   36.6426 C   0  0  1  0  0  0  0  0  0  0  0  0
    7.1189   -1.1226   35.3398 N   0  3  0  0  0  0  0  0  0  0  0  0
    4.9354   -0.6139   36.4999 C   0  0  1  0  0  0  0  0  0  0  0  0
    4.6128    0.3453   35.4631 O   0  0  0  0  0  0  0  0  0  0  0  0
    4.3003   -2.8212   37.4010 C   0  0  1  0  0  0  0  0  0  0  0  0
    4.1908   -1.8643   36.3119 O   0  0  0  0  0  0  0  0  0  0  0  0
    3.2637   -3.9501   37.2490 C   0  0  0  0  0  0  0  0  0  0  0  0
    2.1001   -3.7794   38.1409 N   0  3  0  0  0  0  0  0  0  0  0  0
  1  2  1  6  0  0  0
  1  3  1  0  0  0  0
  1 10  1  0  0  0  0
  3  4  1  6  0  0  0
  3  5  1  0  0  0  0
  5  6  1  1  0  0  0
  5  7  1  0  0  0  0
  7  8  1  6  0  0  0
  7  9  1  0  0  0  0
  9 10  1  0  0  0  0
  9 11  1  6  0  0  0
 11 12  1  0  0  0  0
 13 14  1  1  0  0  0
 13 15  1  0  0  0  0
 13 22  1  0  0  0  0
 15 16  1  1  0  0  0
 15 17  1  0  0  0  0
 17 18  1  6  0  0  0
 17 19  1  0  0  0  0
 19  2  1  1  0  0  0
 19 20  1  0  0  0  0
 20 21  1  6  0  0  0
 20 22  1  0  0  0  0
 23 18  1  1  0  0  0
 23 24  1  0  0  0  0
 23 28  1  0  0  0  0
 24 25  1  6  0  0  0
 24 26  1  0  0  0  0
 26 27  1  0  0  0  0
 26 38  1  6  0  0  0
 27 28  1  0  0  0  0
 27 29  1  1  0  0  0
 29 30  1  0  0  0  0
 31 32  1  6  0  0  0
 31 33  1  0  0  0  0
 31 39  1  0  0  0  0
 33 34  1  1  0  0  0
 33 35  1  0  0  0  0
 35 36  1  6  0  0  0
 35 37  1  0  0  0  0
 37 38  1  6  0  0  0
 37 40  1  0  0  0  0
 39 40  1  0  0  0  0
 39 41  1  6  0  0  0
 41 42  1  0  0  0  0
M  CHG  5   4   1  14   1  21   1  36   1  42   1
M  END
>  <CHROM.1>
-140.37665587,-7.05101066,-168.28787618,-173.50194825,67.67252888,-59.14480683
61.84711115,55.56698600,-53.05940003,81.99576036,-151.53859910,-178.94950060
36.45813250,168.76095906,36.43295094,-178.78007004,-69.73609774,-178.04893301
168.45692503,-147.37303147,136.33655335,174.00681958,1.81254735,2.14619002
36.20548708,2.24416005,0.56194140,-0.65794921

>  <Name>
1pbr

>  <RI>
0

>  <Rbt.Current_Directory>
/home/itssahil/PROJECTS/Mol_Feturizer/New_Systems/rnas/1pbr

>  <Rbt.Executable>
rbdock ($Id: //depot/dev/client3/rdock/2013.1/src/exe/rbdock.cxx#4 $)

>  <Rbt.Library>
libRbt.so (2013.1, Build901 2013/11/27)

>  <Rbt.Parameter_File>
/export/apps/rDock/src/rDock_2013.1_src/data/scripts/dock_solv.prm

>  <Rbt.Receptor>
prm/blind_docking_40.prm

>  <SCORE>
-23.7421

>  <SCORE.INTER>
-35.7753

>  <SCORE.INTER.CONST>
1

>  <SCORE.INTER.POLAR>
-4.1568

>  <SCORE.INTER.ROT>
9

>  <SCORE.INTER.SOLV>
35.8711

>  <SCORE.INTER.VDW>
-31.5513

>  <SCORE.INTER.norm>
-0.851794

>  <SCORE.INTRA>
8.38216

>  <SCORE.INTRA.DIHEDRAL>
3.73595

>  <SCORE.INTRA.DIHEDRAL.0>
29.7866

>  <SCORE.INTRA.POLAR>
0.387412

>  <SCORE.INTRA.POLAR.0>
-0.984091

>  <SCORE.INTRA.REPUL>
-0.242399

>  <SCORE.INTRA.REPUL.0>
0.274115

>  <SCORE.INTRA.SOLV>
2.09958

>  <SCORE.INTRA.SOLV.lig_0>
-152.978

>  <SCORE.INTRA.VDW>
5.35919

>  <SCORE.INTRA.VDW.0>
-6.10719

>  <SCORE.INTRA.norm>
0.199575

>  <SCORE.RESTR>
3.6511

>  <SCORE.RESTR.CAVITY>
3.6511

>  <SCORE.RESTR.norm>
0.086931

>  <SCORE.SYSTEM>
0

>  <SCORE.SYSTEM.CONST>
0

>  <SCORE.SYSTEM.DIHEDRAL>
0

>  <SCORE.SYSTEM.SOLV>
0

>  <SCORE.SYSTEM.norm>
0

>  <SCORE.heavy>
42

>  <SCORE.norm>
-0.565288

>  <RMSD>
9.501

$$$$
1pbr
 OpenBabel11021811403D
libRbt.so/2013.1/901 2013/11/27
 42 45  0  0  0  0  0  0  0  0999 V2000
    1.4461    6.3261   35.9776 C   0  0  2  0  0  0  0  0  0  0  0  0
    0.0170    6.2054   36.1922 O   0  0  0  0  0  0  0  0  0  0  0  0
    1.7830    7.6415   35.1810 C   0  0  2  0  0  0  0  0  0  0  0  0
    1.0022    8.8338   35.6019 N   0  3  0  0  0  0  0  0  0  0  0  0
    1.5293    7.4711   33.6713 C   0  0  1  0  0  0  0  0  0  0  0  0
    2.0818    8.5627   32.9389 O   0  0  0  0  0  0  0  0  0  0  0  0
    2.1298    6.1544   33.1560 C   0  0  2  0  0  0  0  0  0  0  0  0
    1.9238    6.0351   31.7519 O   0  0  0  0  0  0  0  0  0  0  0  0
    1.5642    4.9505   33.9416 C   0  0  2  0  0  0  0  0  0  0  0  0
    1.9510    5.1309   35.3204 O   0  0  0  0  0  0  0  0  0  0  0  0
    2.0943    3.5945   33.4787 C   0  0  0  0  0  0  0  0  0  0  0  0
    2.6314    2.8530   34.5659 O   0  0  0  0  0  0  0  0  0  0  0  0
   -2.2794    2.8972   37.6028 C   0  0  1  0  0  0  0  0  0  0  0  0
   -2.9848    1.6164   37.7925 N   0  3  0  0  0  0  0  0  0  0  0  0
   -0.7302    2.7256   37.6154 C   0  0  2  0  0  0  0  0  0  0  0  0
   -0.3024    2.1580   38.8513 O   0  0  0  0  0  0  0  0  0  0  0  0
   -0.0086    4.0920   37.4263 C   0  0  1  0  0  0  0  0  0  0  0  0
    1.4213    3.8470   37.2763 O   0  0  0  0  0  0  0  0  0  0  0  0
   -0.5369    4.8677   36.1755 C   0  0  1  0  0  0  0  0  0  0  0  0
   -2.0945    4.9849   36.1477 C   0  0  1  0  0  0  0  0  0  0  0  0
   -2.5695    5.6346   34.9060 N   0  3  0  0  0  0  0  0  0  0  0  0
   -2.7506    3.5870   36.2892 C   0  0  0  0  0  0  0  0  0  0  0  0
    2.2010    3.3501   38.4108 C   0  0  1  0  0  0  0  0  0  0  0  0
    1.8768    1.8586   38.6166 C   0  0  2  0  0  0  0  0  0  0  0  0
    2.1085    1.4658   39.9665 O   0  0  0  0  0  0  0  0  0  0  0  0
    2.9053    1.2528   37.6496 C   0  0  1  0  0  0  0  0  0  0  0  0
    4.1467    2.0820   37.9342 C   0  0  2  0  0  0  0  0  0  0  0  0
    3.6062    3.3833   38.1045 O   0  0  0  0  0  0  0  0  0  0  0  0
    5.2008    2.0841   36.8195 C   0  0  0  0  0  0  0  0  0  0  0  0
    6.0943    3.1735   36.9957 O   0  0  0  0  0  0  0  0  0  0  0  0
    5.7111   -2.6961   35.4074 C   0  0  1  0  0  0  0  0  0  0  0  0
    6.1809   -3.4914   36.4944 O   0  0  0  0  0  0  0  0  0  0  0  0
    4.1769   -2.8902   35.2521 C   0  0  2  0  0  0  0  0  0  0  0  0
    3.7861   -2.4064   33.9692 O   0  0  0  0  0  0  0  0  0  0  0  0
    3.2995   -2.1914   36.3419 C   0  0  1  0  0  0  0  0  0  0  0  0
    3.1777   -3.0560   37.5363 N   0  3  0  0  0  0  0  0  0  0  0  0
    3.8215   -0.7702   36.6802 C   0  0  1  0  0  0  0  0  0  0  0  0
    3.1803   -0.1638   37.8292 O   0  0  0  0  0  0  0  0  0  0  0  0
    6.0267   -1.2005   35.6604 C   0  0  1  0  0  0  0  0  0  0  0  0
    5.2805   -0.7848   36.8370 O   0  0  0  0  0  0  0  0  0  0  0  0
    7.5281   -0.8997   35.8254 C   0  0  0  0  0  0  0  0  0  0  0  0
    7.9774    0.2333   34.9930 N   0  3  0  0  0  0  0  0  0  0  0  0
  1  2  1  6  0  0  0
  1  3  1  0  0  0  0
  1 10  1  0  0  0  0
  3  4  1  1  0  0  0
  3  5  1  0  0  0  0
  5  6  1  6  0  0  0
  5  7  1  0  0  0  0
  7  8  1  6  0  0  0
  7  9  1  0  0  0  0
  9 10  1  0  0  0  0
  9 11  1  6  0  0  0
 11 12  1  0  0  0  0
 13 14  1  6  0  0  0
 13 15  1  0  0  0  0
 13 22  1  0  0  0  0
 15 16  1  1  0  0  0
 15 17  1  0  0  0  0
 17 18  1  6  0  0  0
 17 19  1  0  0  0  0
 19  2  1  1  0  0  0
 19 20  1  0  0  0  0
 20 21  1  6  0  0  0
 20 22  1  0  0  0  0
 23 18  1  6  0  0  0
 23 24  1  0  0  0  0
 23 28  1  0  0  0  0
 24 25  1  1  0  0  0
 24 26  1  0  0  0  0
 26 27  1  0  0  0  0
 26 38  1  1  0  0  0
 27 28  1  0  0  0  0
 27 29  1  6  0  0  0
 29 30  1  0  0  0  0
 31 32  1  1  0  0  0
 31 33  1  0  0  0  0
 31 39  1  0  0  0  0
 33 34  1  6  0  0  0
 33 35  1  0  0  0  0
 35 36  1  1  0  0  0
 35 37  1  0  0  0  0
 37 38  1  1  0  0  0
 37 40  1  0  0  0  0
 39 40  1  0  0  0  0
 39 41  1  1  0  0  0
 41 42  1  0  0  0  0
M  CHG  5   4   1  14   1  21   1  36   1  42   1
M  END
>  <CHROM.1>
145.52948867,67.90021709,51.43332620,-59.28960147,-51.85242501,126.74448949
-61.10025999,-153.60571694,63.52696002,-68.19667678,74.63418830,57.07616505
55.44767685,162.47263485,162.31857839,-75.39836562,64.81222120,-53.57229995
-166.55704471,-139.83143545,131.11182193,100.24862385,2.29441679,2.58173332
36.16468362,-2.21501826,-0.43219211,2.68877836

>  <Name>
1pbr

>  <RI>
0

>  <Rbt.Current_Directory>
/home/itssahil/PROJECTS/Mol_Feturizer/New_Systems/rnas/1pbr

>  <Rbt.Executable>
rbdock ($Id: //depot/dev/client3/rdock/2013.1/src/exe/rbdock.cxx#4 $)

>  <Rbt.Library>
libRbt.so (2013.1, Build901 2013/11/27)

>  <Rbt.Parameter_File>
/export/apps/rDock/src/rDock_2013.1_src/data/scripts/dock_solv.prm

>  <Rbt.Receptor>
prm/blind_docking_40.prm

>  <SCORE>
41.8658

>  <SCORE.INTER>
21.2716

>  <SCORE.INTER.CONST>
1

>  <SCORE.INTER.POLAR>
-5.56027

>  <SCORE.INTER.ROT>
9

>  <SCORE.INTER.SOLV>
44.659

>  <SCORE.INTER.VDW>
8.22894

>  <SCORE.INTER.norm>
0.506467

>  <SCORE.INTRA>
18.5194

>  <SCORE.INTRA.DIHEDRAL>
1.64077

>  <SCORE.INTRA.DIHEDRAL.0>
29.7866

>  <SCORE.INTRA.POLAR>
0.984091

>  <SCORE.INTRA.POLAR.0>
-0.984091

>  <SCORE.INTRA.REPUL>
-0.0206964

>  <SCORE.INTRA.REPUL.0>
0.274115

>  <SCORE.INTRA.SOLV>
-1.53607

>  <SCORE.INTRA.SOLV.lig_0>
-152.978

>  <SCORE.INTRA.VDW>
15.2246

>  <SCORE.INTRA.VDW.0>
-6.10719

>  <SCORE.INTRA.norm>
0.440938

>  <SCORE.RESTR>
2.07483

>  <SCORE.RESTR.CAVITY>
2.07483

>  <SCORE.RESTR.norm>
0.0494007

>  <SCORE.SYSTEM>
0

>  <SCORE.SYSTEM.CONST>
0

>  <SCORE.SYSTEM.DIHEDRAL>
0

>  <SCORE.SYSTEM.SOLV>
0

>  <SCORE.SYSTEM.norm>
0

>  <SCORE.heavy>
42

>  <SCORE.norm>
0.996805

>  <RMSD>
9.540

$$$$
1pbr
 OpenBabel11021811403D
libRbt.so/2013.1/901 2013/11/27
 42 45  0  0  0  0  0  0  0  0999 V2000
    1.1759    4.9408   35.3201 C   0  0  2  0  0  0  0  0  0  0  0  0
   -0.1849    4.4694   35.1494 O   0  0  0  0  0  0  0  0  0  0  0  0
    1.2105    6.2396   36.2090 C   0  0  2  0  0  0  0  0  0  0  0  0
    0.2932    6.2111   37.3777 N   0  3  0  0  0  0  0  0  0  0  0  0
    0.8347    7.4932   35.3966 C   0  0  1  0  0  0  0  0  0  0  0  0
    1.1240    8.6793   36.1334 O   0  0  0  0  0  0  0  0  0  0  0  0
    1.5858    7.5282   34.0570 C   0  0  2  0  0  0  0  0  0  0  0  0
    1.2593    8.7146   33.3399 O   0  0  0  0  0  0  0  0  0  0  0  0
    1.3074    6.2472   33.2398 C   0  0  2  0  0  0  0  0  0  0  0  0
    1.7988    5.1372   34.0205 O   0  0  0  0  0  0  0  0  0  0  0  0
    2.0011    6.2080   31.8792 C   0  0  0  0  0  0  0  0  0  0  0  0
    1.1003    6.5426   30.8318 O   0  0  0  0  0  0  0  0  0  0  0  0
   -0.5982    2.0091   38.6111 C   0  0  1  0  0  0  0  0  0  0  0  0
   -0.9202    0.9613   39.5972 N   0  3  0  0  0  0  0  0  0  0  0  0
    0.3803    1.5018   37.5089 C   0  0  2  0  0  0  0  0  0  0  0  0
    1.5986    1.0494   38.0949 O   0  0  0  0  0  0  0  0  0  0  0  0
    0.7148    2.6286   36.4880 C   0  0  1  0  0  0  0  0  0  0  0  0
    1.4904    2.0524   35.3956 O   0  0  0  0  0  0  0  0  0  0  0  0
   -0.5737    3.3016   35.9120 C   0  0  1  0  0  0  0  0  0  0  0  0
   -1.5706    3.7559   37.0258 C   0  0  1  0  0  0  0  0  0  0  0  0
   -2.8212    4.2972   36.4494 N   0  3  0  0  0  0  0  0  0  0  0  0
   -1.9017    2.5770   37.9772 C   0  0  0  0  0  0  0  0  0  0  0  0
    2.9127    2.3703   35.2614 C   0  0  1  0  0  0  0  0  0  0  0  0
    3.5155    2.5379   36.6687 C   0  0  2  0  0  0  0  0  0  0  0  0
    4.6655    3.3784   36.6363 O   0  0  0  0  0  0  0  0  0  0  0  0
    3.8743    1.0716   36.9534 C   0  0  1  0  0  0  0  0  0  0  0  0
    4.4683    0.6194   35.6297 C   0  0  2  0  0  0  0  0  0  0  0  0
    3.6214    1.2582   34.6866 O   0  0  0  0  0  0  0  0  0  0  0  0
    4.4737   -0.8974   35.4000 C   0  0  0  0  0  0  0  0  0  0  0  0
    3.3218   -1.2831   34.6647 O   0  0  0  0  0  0  0  0  0  0  0  0
    8.3892   -1.5770   38.0381 C   0  0  1  0  0  0  0  0  0  0  0  0
    9.1137   -0.7470   38.9441 O   0  0  0  0  0  0  0  0  0  0  0  0
    7.1457   -2.1662   38.7608 C   0  0  2  0  0  0  0  0  0  0  0  0
    6.6508   -3.2605   37.9926 O   0  0  0  0  0  0  0  0  0  0  0  0
    5.9766   -1.1582   39.0116 C   0  0  1  0  0  0  0  0  0  0  0  0
    6.2088   -0.4018   40.2618 N   0  3  0  0  0  0  0  0  0  0  0  0
    5.7363   -0.2357   37.7876 C   0  0  1  0  0  0  0  0  0  0  0  0
    4.8146    0.8531   38.0409 O   0  0  0  0  0  0  0  0  0  0  0  0
    7.9375   -0.7578   36.8030 C   0  0  1  0  0  0  0  0  0  0  0  0
    7.0131    0.2647   37.2655 O   0  0  0  0  0  0  0  0  0  0  0  0
    9.1009   -0.1316   36.0114 C   0  0  0  0  0  0  0  0  0  0  0  0
    8.6398    0.7762   34.9428 N   0  3  0  0  0  0  0  0  0  0  0  0
  1  2  1  6  0  0  0
  1  3  1  0  0  0  0
  1 10  1  0  0  0  0
  3  4  1  1  0  0  0
  3  5  1  0  0  0  0
  5  6  1  1  0  0  0
  5  7  1  0  0  0  0
  7  8  1  6  0  0  0
  7  9  1  0  0  0  0
  9 10  1  0  0  0  0
  9 11  1  6  0  0  0
 11 12  1  0  0  0  0
 13 14  1  1  0  0  0
 13 15  1  0  0  0  0
 13 22  1  0  0  0  0
 15 16  1  1  0  0  0
 15 17  1  0  0  0  0
 17 18  1  6  0  0  0
 17 19  1  0  0  0  0
 19  2  1  1  0  0  0
 19 20  1  0  0  0  0
 20 21  1  6  0  0  0
 20 22  1  0  0  0  0
 23 18  1  1  0  0  0
 23 24  1  0  0  0  0
 23 28  1  0  0  0  0
 24 25  1  6  0  0  0
 24 26  1  0  0  0  0
 26 27  1  0  0  0  0
 26 38  1  1  0  0  0
 27 28  1  0  0  0  0
 27 29  1  1  0  0  0
 29 30  1  0  0  0  0
 31 32  1  1  0  0  0
 31 33  1  0  0  0  0
 31 39  1  0  0  0  0
 33 34  1  6  0  0  0
 33 35  1  0  0  0  0
 35 36  1  1  0  0  0
 35 37  1  0  0  0  0
 37 38  1  1  0  0  0
 37 40  1  0  0  0  0
 39 40  1  0  0  0  0
 39 41  1  1  0  0  0
 41 42  1  0  0  0  0
M  CHG  5   4   1  14   1  21   1  36   1  42   1
M  END
>  <CHROM.1>
-104.82130237,-13.61876012,-171.59519523,153.78347630,-175.48882400,-100.85385447
70.88673035,-120.82420830,-52.73372194,-108.94743236,34.12306727,-54.86527726
175.36471699,-143.14920836,94.63032678,62.05633723,-178.03406291,-170.87136713
-7.31705269,-137.51999792,-172.92790128,-56.73495953,3.03017656,2.47254965
36.32507113,-2.35997624,-0.32510347,2.45480349

>  <Name>
1pbr

>  <RI>
0

>  <Rbt.Current_Directory>
/home/itssahil/PROJECTS/Mol_Feturizer/New_Systems/rnas/1pbr

>  <Rbt.Executable>
rbdock ($Id: //depot/dev/client3/rdock/2013.1/src/exe/rbdock.cxx#4 $)

>  <Rbt.Library>
libRbt.so (2013.1, Build901 2013/11/27)

>  <Rbt.Parameter_File>
/export/apps/rDock/src/rDock_2013.1_src/data/scripts/dock_solv.prm

>  <Rbt.Receptor>
prm/blind_docking_40.prm

>  <SCORE>
-14.8498

>  <SCORE.INTER>
-43.1233

>  <SCORE.INTER.CONST>
1

>  <SCORE.INTER.POLAR>
-6.158

>  <SCORE.INTER.ROT>
9

>  <SCORE.INTER.SOLV>
35.0062

>  <SCORE.INTER.VDW>
-29.4909

>  <SCORE.INTER.norm>
-1.02675

>  <SCORE.INTRA>
25.015

>  <SCORE.INTRA.DIHEDRAL>
22.1306

>  <SCORE.INTRA.DIHEDRAL.0>
29.7866

>  <SCORE.INTRA.POLAR>
0.792155

>  <SCORE.INTRA.POLAR.0>
-0.984091

>  <SCORE.INTRA.REPUL>
-0.268952

>  <SCORE.INTRA.REPUL.0>
0.274115

>  <SCORE.INTRA.SOLV>
0.849934

>  <SCORE.INTRA.SOLV.lig_0>
-152.978

>  <SCORE.INTRA.VDW>
12.1762

>  <SCORE.INTRA.VDW.0>
-6.10719

>  <SCORE.INTRA.norm>
0.595595

>  <SCORE.RESTR>
3.25851

>  <SCORE.RESTR.CAVITY>
3.25851

>  <SCORE.RESTR.norm>
0.0775836

>  <SCORE.SYSTEM>
0

>  <SCORE.SYSTEM.CONST>
0

>  <SCORE.SYSTEM.DIHEDRAL>
0

>  <SCORE.SYSTEM.SOLV>
0

>  <SCORE.SYSTEM.norm>
0

>  <SCORE.heavy>
42

>  <SCORE.norm>
-0.353567

>  <RMSD>
9.549

$$$$
1pbr
 OpenBabel11021811403D
libRbt.so/2013.1/901 2013/11/27
 42 45  0  0  0  0  0  0  0  0999 V2000
   -0.6328    5.5343   34.8276 C   0  0  2  0  0  0  0  0  0  0  0  0
    0.6520    5.9189   35.3795 O   0  0  0  0  0  0  0  0  0  0  0  0
   -1.6888    6.6870   35.0131 C   0  0  2  0  0  0  0  0  0  0  0  0
   -1.1614    8.0527   34.7584 N   0  3  0  0  0  0  0  0  0  0  0  0
   -2.2625    6.7060   36.4425 C   0  0  1  0  0  0  0  0  0  0  0  0
   -3.3946    7.5694   36.5219 O   0  0  0  0  0  0  0  0  0  0  0  0
   -2.6644    5.2940   36.8946 C   0  0  2  0  0  0  0  0  0  0  0  0
   -3.2324    5.3376   38.1999 O   0  0  0  0  0  0  0  0  0  0  0  0
   -1.4627    4.3275   36.8041 C   0  0  2  0  0  0  0  0  0  0  0  0
   -1.0687    4.2779   35.4164 O   0  0  0  0  0  0  0  0  0  0  0  0
   -1.7696    2.9009   37.2565 C   0  0  0  0  0  0  0  0  0  0  0  0
   -2.8186    2.3305   36.4852 O   0  0  0  0  0  0  0  0  0  0  0  0
    2.8591    3.5575   32.5938 C   0  0  1  0  0  0  0  0  0  0  0  0
    3.8902    2.8753   31.7904 N   0  3  0  0  0  0  0  0  0  0  0  0
    2.8235    3.0463   34.0659 C   0  0  2  0  0  0  0  0  0  0  0  0
    2.5628    1.6450   34.0999 O   0  0  0  0  0  0  0  0  0  0  0  0
    1.7195    3.7717   34.8896 C   0  0  1  0  0  0  0  0  0  0  0  0
    1.8474    3.3783   36.2882 O   0  0  0  0  0  0  0  0  0  0  0  0
    1.8275    5.3274   34.7754 C   0  0  1  0  0  0  0  0  0  0  0  0
    1.9175    5.8224   33.2963 C   0  0  1  0  0  0  0  0  0  0  0  0
    2.1187    7.2865   33.2235 N   0  3  0  0  0  0  0  0  0  0  0  0
    3.0666    5.0996   32.5469 C   0  0  0  0  0  0  0  0  0  0  0  0
    1.2495    2.1261   36.7532 C   0  0  1  0  0  0  0  0  0  0  0  0
    2.2871    0.9980   36.6017 C   0  0  2  0  0  0  0  0  0  0  0  0
    1.6497   -0.2696   36.4702 O   0  0  0  0  0  0  0  0  0  0  0  0
    3.0072    1.1501   37.9500 C   0  0  1  0  0  0  0  0  0  0  0  0
    1.8511    1.3584   38.9142 C   0  0  2  0  0  0  0  0  0  0  0  0
    0.9819    2.1939   38.1651 O   0  0  0  0  0  0  0  0  0  0  0  0
    2.2214    2.0295   40.2432 C   0  0  0  0  0  0  0  0  0  0  0  0
    3.1421    1.2190   40.9585 O   0  0  0  0  0  0  0  0  0  0  0  0
    7.3737   -1.1999   36.2189 C   0  0  1  0  0  0  0  0  0  0  0  0
    8.2490   -1.0853   37.3394 O   0  0  0  0  0  0  0  0  0  0  0  0
    6.3167   -2.3038   36.5015 C   0  0  2  0  0  0  0  0  0  0  0  0
    5.7000   -2.6675   35.2685 O   0  0  0  0  0  0  0  0  0  0  0  0
    5.2011   -1.9165   37.5268 C   0  0  1  0  0  0  0  0  0  0  0  0
    5.6663   -2.1611   38.9098 N   0  3  0  0  0  0  0  0  0  0  0  0
    4.6964   -0.4655   37.3110 C   0  0  1  0  0  0  0  0  0  0  0  0
    3.8218    0.0175   38.3602 O   0  0  0  0  0  0  0  0  0  0  0  0
    6.6620    0.1505   35.9529 C   0  0  1  0  0  0  0  0  0  0  0  0
    5.8288    0.4453   37.1073 O   0  0  0  0  0  0  0  0  0  0  0  0
    7.6257    1.3149   35.6570 C   0  0  0  0  0  0  0  0  0  0  0  0
    7.9947    1.4010   34.2305 N   0  3  0  0  0  0  0  0  0  0  0  0
  1  2  1  1  0  0  0
  1  3  1  0  0  0  0
  1 10  1  0  0  0  0
  3  4  1  1  0  0  0
  3  5  1  0  0  0  0
  5  6  1  6  0  0  0
  5  7  1  0  0  0  0
  7  8  1  1  0  0  0
  7  9  1  0  0  0  0
  9 10  1  0  0  0  0
  9 11  1  6  0  0  0
 11 12  1  0  0  0  0
 13 14  1  6  0  0  0
 13 15  1  0  0  0  0
 13 22  1  0  0  0  0
 15 16  1  6  0  0  0
 15 17  1  0  0  0  0
 17 18  1  1  0  0  0
 17 19  1  0  0  0  0
 19  2  1  6  0  0  0
 19 20  1  0  0  0  0
 20 21  1  1  0  0  0
 20 22  1  0  0  0  0
 23 18  1  1  0  0  0
 23 24  1  0  0  0  0
 23 28  1  0  0  0  0
 24 25  1  1  0  0  0
 24 26  1  0  0  0  0
 26 27  1  0  0  0  0
 26 38  1  1  0  0  0
 27 28  1  0  0  0  0
 27 29  1  1  0  0  0
 29 30  1  0  0  0  0
 31 32  1  1  0  0  0
 31 33  1  0  0  0  0
 31 39  1  0  0  0  0
 33 34  1  6  0  0  0
 33 35  1  0  0  0  0
 35 36  1  1  0  0  0
 35 37  1  0  0  0  0
 37 38  1  1  0  0  0
 37 40  1  0  0  0  0
 39 40  1  0  0  0  0
 39 41  1  1  0  0  0
 41 42  1  0  0  0  0
M  CHG  5   4   1  14   1  21   1  36   1  42   1
M  END
>  <CHROM.1>
-151.42767277,-58.47305965,175.26956714,-68.63568881,-35.87378118,58.82439601
-176.98024959,-34.67386438,-59.58737697,-82.96822034,90.15969343,-160.11600724
71.36324060,47.84713171,-62.06864786,47.89161893,173.64060679,62.47009733
-179.82159641,-160.14405136,86.31091796,14.88718384,2.26282986,2.59078917
36.14830712,-2.60454081,-0.52382681,2.28238256

>  <Name>
1pbr

>  <RI>
0

>  <Rbt.Current_Directory>
/home/itssahil/PROJECTS/Mol_Feturizer/New_Systems/rnas/1pbr

>  <Rbt.Executable>
rbdock ($Id: //depot/dev/client3/rdock/2013.1/src/exe/rbdock.cxx#4 $)

>  <Rbt.Library>
libRbt.so (2013.1, Build901 2013/11/27)

>  <Rbt.Parameter_File>
/export/apps/rDock/src/rDock_2013.1_src/data/scripts/dock_solv.prm

>  <Rbt.Receptor>
prm/blind_docking_80.prm

>  <SCORE>
15.5249

>  <SCORE.INTER>
12.8793

>  <SCORE.INTER.CONST>
1

>  <SCORE.INTER.POLAR>
-4.39285

>  <SCORE.INTER.ROT>
9

>  <SCORE.INTER.SOLV>
35.3648

>  <SCORE.INTER.VDW>
1.84081

>  <SCORE.INTER.norm>
0.306651

>  <SCORE.INTRA>
-0.631737

>  <SCORE.INTRA.DIHEDRAL>
-5.53535

>  <SCORE.INTRA.DIHEDRAL.0>
29.7866

>  <SCORE.INTRA.POLAR>
0.362866

>  <SCORE.INTRA.POLAR.0>
-0.984091

>  <SCORE.INTRA.REPUL>
-0.274115

>  <SCORE.INTRA.REPUL.0>
0.274115

>  <SCORE.INTRA.SOLV>
-0.522218

>  <SCORE.INTRA.SOLV.lig_0>
-152.978

>  <SCORE.INTRA.VDW>
2.53387

>  <SCORE.INTRA.VDW.0>
-6.10719

>  <SCORE.INTRA.norm>
-0.0150414

>  <SCORE.RESTR>
3.27728

>  <SCORE.RESTR.CAVITY>
3.27728

>  <SCORE.RESTR.norm>
0.0780304

>  <SCORE.SYSTEM>
0

>  <SCORE.SYSTEM.CONST>
0

>  <SCORE.SYSTEM.DIHEDRAL>
0

>  <SCORE.SYSTEM.SOLV>
0

>  <SCORE.SYSTEM.norm>
0

>  <SCORE.heavy>
42

>  <SCORE.norm>
0.36964

>  <RMSD>
9.565

$$$$
1pbr
 OpenBabel11021811403D
libRbt.so/2013.1/901 2013/11/27
 42 45  0  0  0  0  0  0  0  0999 V2000
    4.3323   -6.0521   42.0537 C   0  0  2  0  0  0  0  0  0  0  0  0
    5.7663   -5.8374   42.0288 O   0  0  0  0  0  0  0  0  0  0  0  0
    3.9986   -7.5794   42.2388 C   0  0  2  0  0  0  0  0  0  0  0  0
    4.8619   -8.2841   43.2219 N   0  3  0  0  0  0  0  0  0  0  0  0
    4.1328   -8.3540   40.9141 C   0  0  1  0  0  0  0  0  0  0  0  0
    3.5787   -9.6623   41.0345 O   0  0  0  0  0  0  0  0  0  0  0  0
    3.4364   -7.6082   39.7658 C   0  0  2  0  0  0  0  0  0  0  0  0
    3.5332   -8.3596   38.5599 O   0  0  0  0  0  0  0  0  0  0  0  0
    4.0023   -6.1783   39.6192 C   0  0  2  0  0  0  0  0  0  0  0  0
    3.7263   -5.4895   40.8572 O   0  0  0  0  0  0  0  0  0  0  0  0
    3.3781   -5.3701   38.4829 C   0  0  0  0  0  0  0  0  0  0  0  0
    4.3542   -4.5820   37.8146 O   0  0  0  0  0  0  0  0  0  0  0  0
    8.0924   -2.3154   42.6556 C   0  0  1  0  0  0  0  0  0  0  0  0
    8.7410   -0.9930   42.5890 N   0  3  0  0  0  0  0  0  0  0  0  0
    6.5704   -2.2110   42.9755 C   0  0  2  0  0  0  0  0  0  0  0  0
    6.3681   -1.5502   44.2224 O   0  0  0  0  0  0  0  0  0  0  0  0
    5.9112   -3.6193   43.0530 C   0  0  1  0  0  0  0  0  0  0  0  0
    4.4683   -3.4518   43.1837 O   0  0  0  0  0  0  0  0  0  0  0  0
    6.2215   -4.4842   41.7878 C   0  0  1  0  0  0  0  0  0  0  0  0
    7.7453   -4.5354   41.4468 C   0  0  1  0  0  0  0  0  0  0  0  0
    7.9975   -5.2765   40.1912 N   0  3  0  0  0  0  0  0  0  0  0  0
    8.3287   -3.1032   41.3339 C   0  0  0  0  0  0  0  0  0  0  0  0
    3.9129   -2.7908   44.3654 C   0  0  1  0  0  0  0  0  0  0  0  0
    2.4105   -3.1183   44.4532 C   0  0  2  0  0  0  0  0  0  0  0  0
    1.7076   -2.1087   45.1720 O   0  0  0  0  0  0  0  0  0  0  0  0
    2.4967   -4.4371   45.2364 C   0  0  1  0  0  0  0  0  0  0  0  0
    3.5413   -4.1196   46.2935 C   0  0  2  0  0  0  0  0  0  0  0  0
    4.4823   -3.3474   45.5635 O   0  0  0  0  0  0  0  0  0  0  0  0
    4.2263   -5.3398   46.9224 C   0  0  0  0  0  0  0  0  0  0  0  0
    5.2057   -4.9192   47.8606 O   0  0  0  0  0  0  0  0  0  0  0  0
   -2.2380   -6.8036   44.1890 C   0  0  1  0  0  0  0  0  0  0  0  0
   -3.0746   -6.5557   45.3174 O   0  0  0  0  0  0  0  0  0  0  0  0
   -1.8159   -5.4497   43.5531 C   0  0  2  0  0  0  0  0  0  0  0  0
   -1.3096   -5.7017   42.2443 O   0  0  0  0  0  0  0  0  0  0  0  0
   -0.7496   -4.6356   44.3568 C   0  0  1  0  0  0  0  0  0  0  0  0
   -1.4063   -3.8163   45.3991 N   0  3  0  0  0  0  0  0  0  0  0  0
    0.3666   -5.5501   44.9267 C   0  0  1  0  0  0  0  0  0  0  0  0
    1.2587   -4.8846   45.8543 O   0  0  0  0  0  0  0  0  0  0  0  0
   -0.9777   -7.5959   44.6184 C   0  0  1  0  0  0  0  0  0  0  0  0
   -0.2163   -6.7551   45.5279 O   0  0  0  0  0  0  0  0  0  0  0  0
   -1.2885   -8.9612   45.2598 C   0  0  0  0  0  0  0  0  0  0  0  0
   -1.8905   -9.9147   44.3074 N   0  3  0  0  0  0  0  0  0  0  0  0
  1  2  1  6  0  0  0
  1  3  1  0  0  0  0
  1 10  1  0  0  0  0
  3  4  1  1  0  0  0
  3  5  1  0  0  0  0
  5  6  1  1  0  0  0
  5  7  1  0  0  0  0
  7  8  1  6  0  0  0
  7  9  1  0  0  0  0
  9 10  1  0  0  0  0
  9 11  1  6  0  0  0
 11 12  1  0  0  0  0
 13 14  1  6  0  0  0
 13 15  1  0  0  0  0
 13 22  1  0  0  0  0
 15 16  1  1  0  0  0
 15 17  1  0  0  0  0
 17 18  1  6  0  0  0
 17 19  1  0  0  0  0
 19  2  1  1  0  0  0
 19 20  1  0  0  0  0
 20 21  1  6  0  0  0
 20 22  1  0  0  0  0
 23 18  1  6  0  0  0
 23 24  1  0  0  0  0
 23 28  1  0  0  0  0
 24 25  1  1  0  0  0
 24 26  1  0  0  0  0
 26 27  1  0  0  0  0
 26 38  1  1  0  0  0
 27 28  1  0  0  0  0
 27 29  1  6  0  0  0
 29 30  1  0  0  0  0
 31 32  1  1  0  0  0
 31 33  1  0  0  0  0
 31 39  1  0  0  0  0
 33 34  1  6  0  0  0
 33 35  1  0  0  0  0
 35 36  1  1  0  0  0
 35 37  1  0  0  0  0
 37 38  1  1  0  0  0
 37 40  1  0  0  0  0
 39 40  1  0  0  0  0
 39 41  1  1  0  0  0
 41 42  1  0  0  0  0
M  CHG  5   4   1  14   1  21   1  36   1  42   1
M  END
>  <CHROM.1>
176.60342690,71.16264141,-169.53493615,174.17278345,175.94126917,-141.01830337
89.26253827,70.79251197,72.97986972,-63.42119222,-163.24273097,91.34609317
-166.68980640,80.48047144,178.22199371,-174.76297824,-59.23243100,-66.36334960
109.78663994,-97.85174064,66.48706958,-74.23287137,3.18358707,-5.29355203
43.12933837,0.05487452,-0.47760884,-2.23455586

>  <Name>
1pbr

>  <RI>
0

>  <Rbt.Current_Directory>
/home/itssahil/PROJECTS/Mol_Feturizer/New_Systems/rnas/1pbr

>  <Rbt.Executable>
rbdock ($Id: //depot/dev/client3/rdock/2013.1/src/exe/rbdock.cxx#4 $)

>  <Rbt.Library>
libRbt.so (2013.1, Build901 2013/11/27)

>  <Rbt.Parameter_File>
/export/apps/rDock/src/rDock_2013.1_src/data/scripts/dock_solv.prm

>  <Rbt.Receptor>
prm/pocket_docking_6.prm

>  <SCORE>
-30.0695

>  <SCORE.INTER>
-29.4027

>  <SCORE.INTER.CONST>
1

>  <SCORE.INTER.POLAR>
-5.16513

>  <SCORE.INTER.ROT>
9

>  <SCORE.INTER.SOLV>
17.3072

>  <SCORE.INTER.VDW>
-17.7538

>  <SCORE.INTER.norm>
-0.700064

>  <SCORE.INTRA>
-0.666842

>  <SCORE.INTRA.DIHEDRAL>
-4.56628

>  <SCORE.INTRA.DIHEDRAL.0>
29.7866

>  <SCORE.INTRA.POLAR>
0.880377

>  <SCORE.INTRA.POLAR.0>
-0.984091

>  <SCORE.INTRA.REPUL>
-0.206022

>  <SCORE.INTRA.REPUL.0>
0.274115

>  <SCORE.INTRA.SOLV>
-3.37208

>  <SCORE.INTRA.SOLV.lig_0>
-152.978

>  <SCORE.INTRA.VDW>
1.33916

>  <SCORE.INTRA.VDW.0>
-6.10719

>  <SCORE.INTRA.norm>
-0.0158772

>  <SCORE.RESTR>
0

>  <SCORE.RESTR.CAVITY>
0

>  <SCORE.RESTR.norm>
0

>  <SCORE.SYSTEM>
0

>  <SCORE.SYSTEM.CONST>
0

>  <SCORE.SYSTEM.DIHEDRAL>
0

>  <SCORE.SYSTEM.SOLV>
0

>  <SCORE.SYSTEM.norm>
0

>  <SCORE.heavy>
42

>  <SCORE.norm>
-0.715941

>  <RMSD>
9.583

$$$$
1pbr
 OpenBabel11021811403D
libRbt.so/2013.1/901 2013/11/27
 42 45  0  0  0  0  0  0  0  0999 V2000
   -0.2373    6.2704   35.0096 C   0  0  2  0  0  0  0  0  0  0  0  0
    1.0431    6.1383   35.6776 O   0  0  0  0  0  0  0  0  0  0  0  0
   -1.1697    7.2769   35.7817 C   0  0  2  0  0  0  0  0  0  0  0  0
   -0.4793    8.4912   36.2889 N   0  3  0  0  0  0  0  0  0  0  0  0
   -1.8301    6.6138   37.0051 C   0  0  1  0  0  0  0  0  0  0  0  0
   -2.8628    7.4427   37.5340 O   0  0  0  0  0  0  0  0  0  0  0  0
   -2.4141    5.2406   36.6403 C   0  0  2  0  0  0  0  0  0  0  0  0
   -3.0580    4.6627   37.7715 O   0  0  0  0  0  0  0  0  0  0  0  0
   -1.3230    4.3219   36.0470 C   0  0  2  0  0  0  0  0  0  0  0  0
   -0.8468    4.9604   34.8433 O   0  0  0  0  0  0  0  0  0  0  0  0
   -1.8144    2.9242   35.6744 C   0  0  0  0  0  0  0  0  0  0  0  0
   -0.7335    2.0821   35.2960 O   0  0  0  0  0  0  0  0  0  0  0  0
    2.7572    3.7263   32.6032 C   0  0  1  0  0  0  0  0  0  0  0  0
    3.6426    2.9913   31.6813 N   0  3  0  0  0  0  0  0  0  0  0  0
    2.7946    3.1431   34.0482 C   0  0  2  0  0  0  0  0  0  0  0  0
    2.3974    1.7739   34.0428 O   0  0  0  0  0  0  0  0  0  0  0  0
    1.8430    3.9270   34.9989 C   0  0  1  0  0  0  0  0  0  0  0  0
    2.0482    3.4491   36.3614 O   0  0  0  0  0  0  0  0  0  0  0  0
    2.0976    5.4689   34.9451 C   0  0  1  0  0  0  0  0  0  0  0  0
    2.1119    6.0310   33.4875 C   0  0  1  0  0  0  0  0  0  0  0  0
    2.4531    7.4706   33.4625 N   0  3  0  0  0  0  0  0  0  0  0  0
    3.1147    5.2414   32.6069 C   0  0  0  0  0  0  0  0  0  0  0  0
    1.3833    2.2270   36.8156 C   0  0  1  0  0  0  0  0  0  0  0  0
    2.3652    1.0491   36.6731 C   0  0  2  0  0  0  0  0  0  0  0  0
    1.6673   -0.1849   36.5303 O   0  0  0  0  0  0  0  0  0  0  0  0
    3.0758    1.1621   38.0304 C   0  0  1  0  0  0  0  0  0  0  0  0
    1.9200    1.4253   38.9814 C   0  0  2  0  0  0  0  0  0  0  0  0
    1.1024    2.3047   38.2244 O   0  0  0  0  0  0  0  0  0  0  0  0
    2.3072    2.0740   40.3166 C   0  0  0  0  0  0  0  0  0  0  0  0
    3.3724    1.3529   40.9180 O   0  0  0  0  0  0  0  0  0  0  0  0
    7.6436   -0.7768   36.5659 C   0  0  1  0  0  0  0  0  0  0  0  0
    8.4256   -0.4280   37.7068 O   0  0  0  0  0  0  0  0  0  0  0  0
    6.7690   -2.0174   36.9002 C   0  0  2  0  0  0  0  0  0  0  0  0
    6.2890   -2.5761   35.6796 O   0  0  0  0  0  0  0  0  0  0  0  0
    5.5506   -1.7439   37.8417 C   0  0  1  0  0  0  0  0  0  0  0  0
    5.9734   -1.7965   39.2586 N   0  3  0  0  0  0  0  0  0  0  0  0
    4.8263   -0.4205   37.4801 C   0  0  1  0  0  0  0  0  0  0  0  0
    3.8281   -0.0106   38.4468 O   0  0  0  0  0  0  0  0  0  0  0  0
    6.7350    0.4089   36.1546 C   0  0  1  0  0  0  0  0  0  0  0  0
    5.8027    0.6492   37.2441 O   0  0  0  0  0  0  0  0  0  0  0  0
    7.5084    1.6921   35.7979 C   0  0  0  0  0  0  0  0  0  0  0  0
    8.2755    1.5652   34.5433 N   0  3  0  0  0  0  0  0  0  0  0  0
  1  2  1  1  0  0  0
  1  3  1  0  0  0  0
  1 10  1  0  0  0  0
  3  4  1  1  0  0  0
  3  5  1  0  0  0  0
  5  6  1  6  0  0  0
  5  7  1  0  0  0  0
  7  8  1  1  0  0  0
  7  9  1  0  0  0  0
  9 10  1  0  0  0  0
  9 11  1  6  0  0  0
 11 12  1  0  0  0  0
 13 14  1  6  0  0  0
 13 15  1  0  0  0  0
 13 22  1  0  0  0  0
 15 16  1  6  0  0  0
 15 17  1  0  0  0  0
 17 18  1  1  0  0  0
 17 19  1  0  0  0  0
 19  2  1  1  0  0  0
 19 20  1  0  0  0  0
 20 21  1  1  0  0  0
 20 22  1  0  0  0  0
 23 18  1  1  0  0  0
 23 24  1  0  0  0  0
 23 28  1  0  0  0  0
 24 25  1  1  0  0  0
 24 26  1  0  0  0  0
 26 27  1  0  0  0  0
 26 38  1  1  0  0  0
 27 28  1  0  0  0  0
 27 29  1  1  0  0  0
 29 30  1  0  0  0  0
 31 32  1  1  0  0  0
 31 33  1  0  0  0  0
 31 39  1  0  0  0  0
 33 34  1  6  0  0  0
 33 35  1  0  0  0  0
 35 36  1  1  0  0  0
 35 37  1  0  0  0  0
 37 38  1  1  0  0  0
 37 40  1  0  0  0  0
 39 40  1  0  0  0  0
 39 41  1  1  0  0  0
 41 42  1  0  0  0  0
M  CHG  5   4   1  14   1  21   1  36   1  42   1
M  END
>  <CHROM.1>
-167.60459849,-77.51456426,175.69294197,-71.93383119,65.89055234,-172.62199578
-60.39100191,68.18653168,-56.87260791,-82.09573613,96.56528301,78.98948284
55.35875345,56.10706008,-50.57779314,-172.01912153,-85.71190832,-59.48009464
-179.55206689,-174.64249009,69.08107117,-13.97448508,2.49724210,2.74764214
36.24803546,-2.58218861,-0.53600992,2.25577366

>  <Name>
1pbr

>  <RI>
0

>  <Rbt.Current_Directory>
/home/itssahil/PROJECTS/Mol_Feturizer/New_Systems/rnas/1pbr

>  <Rbt.Executable>
rbdock ($Id: //depot/dev/client3/rdock/2013.1/src/exe/rbdock.cxx#4 $)

>  <Rbt.Library>
libRbt.so (2013.1, Build901 2013/11/27)

>  <Rbt.Parameter_File>
/export/apps/rDock/src/rDock_2013.1_src/data/scripts/dock_solv.prm

>  <Rbt.Receptor>
prm/blind_docking_40.prm

>  <SCORE>
16.2431

>  <SCORE.INTER>
13.6071

>  <SCORE.INTER.CONST>
1

>  <SCORE.INTER.POLAR>
-5.42219

>  <SCORE.INTER.ROT>
9

>  <SCORE.INTER.SOLV>
37.5355

>  <SCORE.INTER.VDW>
5.03351

>  <SCORE.INTER.norm>
0.323978

>  <SCORE.INTRA>
-1.0601

>  <SCORE.INTRA.DIHEDRAL>
-10.4887

>  <SCORE.INTRA.DIHEDRAL.0>
29.7866

>  <SCORE.INTRA.POLAR>
0.941229

>  <SCORE.INTRA.POLAR.0>
-0.984091

>  <SCORE.INTRA.REPUL>
-0.156532

>  <SCORE.INTRA.REPUL.0>
0.274115

>  <SCORE.INTRA.SOLV>
-0.138236

>  <SCORE.INTRA.SOLV.lig_0>
-152.978

>  <SCORE.INTRA.VDW>
1.83583

>  <SCORE.INTRA.VDW.0>
-6.10719

>  <SCORE.INTRA.norm>
-0.0252404

>  <SCORE.RESTR>
3.69613

>  <SCORE.RESTR.CAVITY>
3.69613

>  <SCORE.RESTR.norm>
0.0880032

>  <SCORE.SYSTEM>
0

>  <SCORE.SYSTEM.CONST>
0

>  <SCORE.SYSTEM.DIHEDRAL>
0

>  <SCORE.SYSTEM.SOLV>
0

>  <SCORE.SYSTEM.norm>
0

>  <SCORE.heavy>
42

>  <SCORE.norm>
0.386741

>  <RMSD>
9.585

$$$$
1pbr
 OpenBabel11021811403D
libRbt.so/2013.1/901 2013/11/27
 42 45  0  0  0  0  0  0  0  0999 V2000
    1.4615    6.7066   36.1608 C   0  0  2  0  0  0  0  0  0  0  0  0
    0.1839    6.4562   36.7999 O   0  0  0  0  0  0  0  0  0  0  0  0
    1.4406    8.0773   35.3869 C   0  0  2  0  0  0  0  0  0  0  0  0
    0.7526    9.1807   36.1062 N   0  3  0  0  0  0  0  0  0  0  0  0
    0.7373    7.9476   34.0226 C   0  0  1  0  0  0  0  0  0  0  0  0
    0.9561    9.1112   33.2279 O   0  0  0  0  0  0  0  0  0  0  0  0
    1.2334    6.7089   33.2615 C   0  0  2  0  0  0  0  0  0  0  0  0
    0.6050    6.6299   31.9859 O   0  0  0  0  0  0  0  0  0  0  0  0
    1.0266    5.4302   34.1034 C   0  0  2  0  0  0  0  0  0  0  0  0
    1.8141    5.5864   35.3028 O   0  0  0  0  0  0  0  0  0  0  0  0
    1.4751    4.1442   33.4112 C   0  0  0  0  0  0  0  0  0  0  0  0
    2.4800    4.4053   32.4404 O   0  0  0  0  0  0  0  0  0  0  0  0
   -2.2886    3.0595   37.5459 C   0  0  1  0  0  0  0  0  0  0  0  0
   -3.0686    1.8100   37.4811 N   0  3  0  0  0  0  0  0  0  0  0  0
   -0.7530    2.8012   37.4755 C   0  0  2  0  0  0  0  0  0  0  0  0
   -0.3401    1.9598   38.5498 O   0  0  0  0  0  0  0  0  0  0  0  0
    0.0485    4.1332   37.5585 C   0  0  1  0  0  0  0  0  0  0  0  0
    1.4577    3.8449   37.3174 O   0  0  0  0  0  0  0  0  0  0  0  0
   -0.4520    5.1865   36.5168 C   0  0  1  0  0  0  0  0  0  0  0  0
   -1.9996    5.3954   36.5610 C   0  0  1  0  0  0  0  0  0  0  0  0
   -2.4546    6.3209   35.4999 N   0  3  0  0  0  0  0  0  0  0  0  0
   -2.7385    4.0391   36.4228 C   0  0  0  0  0  0  0  0  0  0  0  0
    2.1265    2.7839   38.0716 C   0  0  1  0  0  0  0  0  0  0  0  0
    2.2582    1.5439   37.1676 C   0  0  2  0  0  0  0  0  0  0  0  0
    2.3440    0.3517   37.9431 O   0  0  0  0  0  0  0  0  0  0  0  0
    3.5880    1.8875   36.4796 C   0  0  1  0  0  0  0  0  0  0  0  0
    4.4265    2.4090   37.6348 C   0  0  2  0  0  0  0  0  0  0  0  0
    3.4802    3.1640   38.3760 O   0  0  0  0  0  0  0  0  0  0  0  0
    5.6156    3.2912   37.2332 C   0  0  0  0  0  0  0  0  0  0  0  0
    5.1892    4.6346   37.0603 O   0  0  0  0  0  0  0  0  0  0  0  0
    6.9611   -1.8321   37.9491 C   0  0  1  0  0  0  0  0  0  0  0  0
    6.1971   -3.0172   37.7332 O   0  0  0  0  0  0  0  0  0  0  0  0
    7.4560   -1.2819   36.5824 C   0  0  2  0  0  0  0  0  0  0  0  0
    8.5026   -0.3442   36.8231 O   0  0  0  0  0  0  0  0  0  0  0  0
    6.3612   -0.5981   35.6994 C   0  0  1  0  0  0  0  0  0  0  0  0
    5.6344   -1.6122   34.9042 N   0  3  0  0  0  0  0  0  0  0  0  0
    5.4140    0.2956   36.5425 C   0  0  1  0  0  0  0  0  0  0  0  0
    4.2580    0.7805   35.8159 O   0  0  0  0  0  0  0  0  0  0  0  0
    6.1001   -0.7606   38.6641 C   0  0  1  0  0  0  0  0  0  0  0  0
    5.0116   -0.4005   37.7700 O   0  0  0  0  0  0  0  0  0  0  0  0
    5.5615   -1.2079   40.0359 C   0  0  0  0  0  0  0  0  0  0  0  0
    4.0868   -1.2046   40.0980 N   0  3  0  0  0  0  0  0  0  0  0  0
  1  2  1  6  0  0  0
  1  3  1  0  0  0  0
  1 10  1  0  0  0  0
  3  4  1  1  0  0  0
  3  5  1  0  0  0  0
  5  6  1  6  0  0  0
  5  7  1  0  0  0  0
  7  8  1  6  0  0  0
  7  9  1  0  0  0  0
  9 10  1  0  0  0  0
  9 11  1  6  0  0  0
 11 12  1  0  0  0  0
 13 14  1  6  0  0  0
 13 15  1  0  0  0  0
 13 22  1  0  0  0  0
 15 16  1  1  0  0  0
 15 17  1  0  0  0  0
 17 18  1  6  0  0  0
 17 19  1  0  0  0  0
 19  2  1  1  0  0  0
 19 20  1  0  0  0  0
 20 21  1  6  0  0  0
 20 22  1  0  0  0  0
 23 18  1  6  0  0  0
 23 24  1  0  0  0  0
 23 28  1  0  0  0  0
 24 25  1  1  0  0  0
 24 26  1  0  0  0  0
 26 27  1  0  0  0  0
 26 38  1  1  0  0  0
 27 28  1  0  0  0  0
 27 29  1  6  0  0  0
 29 30  1  0  0  0  0
 31 32  1  6  0  0  0
 31 33  1  0  0  0  0
 31 39  1  0  0  0  0
 33 34  1  1  0  0  0
 33 35  1  0  0  0  0
 35 36  1  1  0  0  0
 35 37  1  0  0  0  0
 37 38  1  6  0  0  0
 37 40  1  0  0  0  0
 39 40  1  0  0  0  0
 39 41  1  1  0  0  0
 41 42  1  0  0  0  0
M  CHG  5   4   1  14   1  21   1  36   1  42   1
M  END
>  <CHROM.1>
126.92841412,88.86006340,-70.67336108,-178.99861202,70.75345092,25.41192007
55.70981924,-160.28558667,67.62206140,-50.94879389,102.58748310,40.14949068
-173.84121884,-105.45441542,84.61761210,53.73675660,62.33443078,-60.98786564
-44.16892247,-164.12154496,-119.85552354,-15.29697705,2.43065269,3.03649672
36.45435837,-2.27716274,-0.32957523,2.54524739

>  <Name>
1pbr

>  <RI>
0

>  <Rbt.Current_Directory>
/home/itssahil/PROJECTS/Mol_Feturizer/New_Systems/rnas/1pbr

>  <Rbt.Executable>
rbdock ($Id: //depot/dev/client3/rdock/2013.1/src/exe/rbdock.cxx#4 $)

>  <Rbt.Library>
libRbt.so (2013.1, Build901 2013/11/27)

>  <Rbt.Parameter_File>
/export/apps/rDock/src/rDock_2013.1_src/data/scripts/dock_solv.prm

>  <Rbt.Receptor>
prm/blind_docking_40.prm

>  <SCORE>
32.407

>  <SCORE.INTER>
18.2835

>  <SCORE.INTER.CONST>
1

>  <SCORE.INTER.POLAR>
-6.51207

>  <SCORE.INTER.ROT>
9

>  <SCORE.INTER.SOLV>
40.3499

>  <SCORE.INTER.VDW>
10.8459

>  <SCORE.INTER.norm>
0.435322

>  <SCORE.INTRA>
11.223

>  <SCORE.INTRA.DIHEDRAL>
12.2166

>  <SCORE.INTRA.DIHEDRAL.0>
29.7866

>  <SCORE.INTRA.POLAR>
-0.515121

>  <SCORE.INTRA.POLAR.0>
-0.984091

>  <SCORE.INTRA.REPUL>
-0.274115

>  <SCORE.INTRA.REPUL.0>
0.274115

>  <SCORE.INTRA.SOLV>
3.23055

>  <SCORE.INTRA.SOLV.lig_0>
-152.978

>  <SCORE.INTRA.VDW>
6.62146

>  <SCORE.INTRA.VDW.0>
-6.10719

>  <SCORE.INTRA.norm>
0.267215

>  <SCORE.RESTR>
2.90049

>  <SCORE.RESTR.CAVITY>
2.90049

>  <SCORE.RESTR.norm>
0.0690594

>  <SCORE.SYSTEM>
0

>  <SCORE.SYSTEM.CONST>
0

>  <SCORE.SYSTEM.DIHEDRAL>
0

>  <SCORE.SYSTEM.SOLV>
0

>  <SCORE.SYSTEM.norm>
0

>  <SCORE.heavy>
42

>  <SCORE.norm>
0.771596

>  <RMSD>
9.598

$$$$
1pbr
 OpenBabel11021811403D
libRbt.so/2013.1/901 2013/11/27
 42 45  0  0  0  0  0  0  0  0999 V2000
    0.8895    4.3730   36.5656 C   0  0  2  0  0  0  0  0  0  0  0  0
    1.4190    3.0756   36.1917 O   0  0  0  0  0  0  0  0  0  0  0  0
   -0.6750    4.4089   36.3945 C   0  0  2  0  0  0  0  0  0  0  0  0
   -1.3725    3.1759   36.8436 N   0  3  0  0  0  0  0  0  0  0  0  0
   -1.0800    4.6218   34.9237 C   0  0  1  0  0  0  0  0  0  0  0  0
   -2.4715    4.9153   34.8194 O   0  0  0  0  0  0  0  0  0  0  0  0
   -0.2689    5.7606   34.2873 C   0  0  2  0  0  0  0  0  0  0  0  0
   -0.6871    5.9717   32.9424 O   0  0  0  0  0  0  0  0  0  0  0  0
    1.2465    5.4819   34.3990 C   0  0  2  0  0  0  0  0  0  0  0  0
    1.5581    5.4183   35.8068 O   0  0  0  0  0  0  0  0  0  0  0  0
    2.1302    6.5581   33.7706 C   0  0  0  0  0  0  0  0  0  0  0  0
    1.6148    6.9791   32.5145 O   0  0  0  0  0  0  0  0  0  0  0  0
    4.7011    0.5875   37.3075 C   0  0  1  0  0  0  0  0  0  0  0  0
    5.8036   -0.1130   37.9914 N   0  3  0  0  0  0  0  0  0  0  0  0
    3.3069    0.2036   37.8891 C   0  0  2  0  0  0  0  0  0  0  0  0
    3.0872   -1.2000   37.7699 O   0  0  0  0  0  0  0  0  0  0  0  0
    2.1595    0.9456   37.1431 C   0  0  1  0  0  0  0  0  0  0  0  0
    0.9044    0.6802   37.8369 O   0  0  0  0  0  0  0  0  0  0  0  0
    2.4015    2.4891   37.0790 C   0  0  1  0  0  0  0  0  0  0  0  0
    3.8227    2.8587   36.5459 C   0  0  1  0  0  0  0  0  0  0  0  0
    4.0582    4.3189   36.5905 N   0  3  0  0  0  0  0  0  0  0  0  0
    4.9200    2.1278   37.3621 C   0  0  0  0  0  0  0  0  0  0  0  0
    0.4820    1.5438   38.9403 C   0  0  1  0  0  0  0  0  0  0  0  0
   -0.6874    0.8652   39.6780 C   0  0  2  0  0  0  0  0  0  0  0  0
   -1.5020    1.8279   40.3411 O   0  0  0  0  0  0  0  0  0  0  0  0
    0.1167    0.0050   40.6645 C   0  0  1  0  0  0  0  0  0  0  0  0
    1.2011    0.9654   41.1243 C   0  0  2  0  0  0  0  0  0  0  0  0
    1.5277    1.6470   39.9229 O   0  0  0  0  0  0  0  0  0  0  0  0
    2.4510    0.3035   41.7186 C   0  0  0  0  0  0  0  0  0  0  0  0
    3.3977    1.2948   42.0895 O   0  0  0  0  0  0  0  0  0  0  0  0
    0.3923   -0.8470   45.9879 C   0  0  1  0  0  0  0  0  0  0  0  0
   -0.8175   -1.5007   46.3668 O   0  0  0  0  0  0  0  0  0  0  0  0
    1.1815   -1.7539   45.0029 C   0  0  2  0  0  0  0  0  0  0  0  0
    2.5240   -1.2802   44.9267 O   0  0  0  0  0  0  0  0  0  0  0  0
    0.5955   -1.8399   43.5555 C   0  0  1  0  0  0  0  0  0  0  0  0
   -0.4611   -2.8734   43.4889 N   0  3  0  0  0  0  0  0  0  0  0  0
    0.1152   -0.4565   43.0434 C   0  0  1  0  0  0  0  0  0  0  0  0
   -0.6283   -0.5125   41.8011 O   0  0  0  0  0  0  0  0  0  0  0  0
    0.0798    0.5120   45.3124 C   0  0  1  0  0  0  0  0  0  0  0  0
   -0.6503    0.2374   44.0854 O   0  0  0  0  0  0  0  0  0  0  0  0
   -0.7004    1.4896   46.2110 C   0  0  0  0  0  0  0  0  0  0  0  0
    0.0346    1.8438   47.4410 N   0  3  0  0  0  0  0  0  0  0  0  0
  1  2  1  6  0  0  0
  1  3  1  0  0  0  0
  1 10  1  0  0  0  0
  3  4  1  6  0  0  0
  3  5  1  0  0  0  0
  5  6  1  1  0  0  0
  5  7  1  0  0  0  0
  7  8  1  6  0  0  0
  7  9  1  0  0  0  0
  9 10  1  0  0  0  0
  9 11  1  1  0  0  0
 11 12  1  0  0  0  0
 13 14  1  1  0  0  0
 13 15  1  0  0  0  0
 13 22  1  0  0  0  0
 15 16  1  6  0  0  0
 15 17  1  0  0  0  0
 17 18  1  1  0  0  0
 17 19  1  0  0  0  0
 19  2  1  6  0  0  0
 19 20  1  0  0  0  0
 20 21  1  1  0  0  0
 20 22  1  0  0  0  0
 23 18  1  6  0  0  0
 23 24  1  0  0  0  0
 23 28  1  0  0  0  0
 24 25  1  1  0  0  0
 24 26  1  0  0  0  0
 26 27  1  0  0  0  0
 26 38  1  1  0  0  0
 27 28  1  0  0  0  0
 27 29  1  6  0  0  0
 29 30  1  0  0  0  0
 31 32  1  6  0  0  0
 31 33  1  0  0  0  0
 31 39  1  0  0  0  0
 33 34  1  6  0  0  0
 33 35  1  0  0  0  0
 35 36  1  1  0  0  0
 35 37  1  0  0  0  0
 37 38  1  6  0  0  0
 37 40  1  0  0  0  0
 39 40  1  0  0  0  0
 39 41  1  1  0  0  0
 41 42  1  0  0  0  0
M  CHG  5   4   1  14   1  21   1  36   1  42   1
M  END
>  <CHROM.1>
-134.99966684,142.59504544,-44.57038394,-68.94193605,-171.27752448,-42.98473242
160.95555180,21.48945407,-174.09190087,88.11427861,-167.58644125,168.30230102
-62.92408311,-139.18829088,179.02596893,-60.17681390,166.60508615,-177.54054121
-75.19313595,-107.78096762,60.95412428,153.00734192,1.08793945,1.79440197
39.41131849,1.50455951,0.44804361,-1.04318834

>  <Name>
1pbr

>  <RI>
0

>  <Rbt.Current_Directory>
/home/itssahil/PROJECTS/Mol_Feturizer/New_Systems/rnas/1pbr

>  <Rbt.Executable>
rbdock ($Id: //depot/dev/client3/rdock/2013.1/src/exe/rbdock.cxx#4 $)

>  <Rbt.Library>
libRbt.so (2013.1, Build901 2013/11/27)

>  <Rbt.Parameter_File>
/export/apps/rDock/src/rDock_2013.1_src/data/scripts/dock_solv.prm

>  <Rbt.Receptor>
prm/blind_docking_60.prm

>  <SCORE>
-40.6177

>  <SCORE.INTER>
-50.1167

>  <SCORE.INTER.CONST>
1

>  <SCORE.INTER.POLAR>
-6.13396

>  <SCORE.INTER.ROT>
9

>  <SCORE.INTER.SOLV>
39.2701

>  <SCORE.INTER.VDW>
-35.6546

>  <SCORE.INTER.norm>
-1.19325

>  <SCORE.INTRA>
8.01592

>  <SCORE.INTRA.DIHEDRAL>
7.96345

>  <SCORE.INTRA.DIHEDRAL.0>
29.7866

>  <SCORE.INTRA.POLAR>
-0.754885

>  <SCORE.INTRA.POLAR.0>
-0.984091

>  <SCORE.INTRA.REPUL>
-0.274115

>  <SCORE.INTRA.REPUL.0>
0.274115

>  <SCORE.INTRA.SOLV>
2.56593

>  <SCORE.INTRA.SOLV.lig_0>
-152.978

>  <SCORE.INTRA.VDW>
6.68841

>  <SCORE.INTRA.VDW.0>
-6.10719

>  <SCORE.INTRA.norm>
0.190855

>  <SCORE.RESTR>
1.48304

>  <SCORE.RESTR.CAVITY>
1.48304

>  <SCORE.RESTR.norm>
0.0353106

>  <SCORE.SYSTEM>
0

>  <SCORE.SYSTEM.CONST>
0

>  <SCORE.SYSTEM.DIHEDRAL>
0

>  <SCORE.SYSTEM.SOLV>
0

>  <SCORE.SYSTEM.norm>
0

>  <SCORE.heavy>
42

>  <SCORE.norm>
-0.967088

>  <RMSD>
9.657

$$$$
1pbr
 OpenBabel11021811403D
libRbt.so/2013.1/901 2013/11/27
 42 45  0  0  0  0  0  0  0  0999 V2000
   -0.7304    5.9195   34.2838 C   0  0  2  0  0  0  0  0  0  0  0  0
    0.3640    5.0869   34.7443 O   0  0  0  0  0  0  0  0  0  0  0  0
   -0.2155    7.0117   33.2737 C   0  0  2  0  0  0  0  0  0  0  0  0
    0.7932    6.5224   32.2984 N   0  3  0  0  0  0  0  0  0  0  0  0
    0.4346    8.2005   34.0065 C   0  0  1  0  0  0  0  0  0  0  0  0
    0.6536    9.2884   33.1111 O   0  0  0  0  0  0  0  0  0  0  0  0
   -0.4400    8.6716   35.1781 C   0  0  2  0  0  0  0  0  0  0  0  0
    0.1551    9.7975   35.8157 O   0  0  0  0  0  0  0  0  0  0  0  0
   -0.7113    7.5103   36.1601 C   0  0  2  0  0  0  0  0  0  0  0  0
   -1.4269    6.4967   35.4227 O   0  0  0  0  0  0  0  0  0  0  0  0
   -1.5596    7.8974   37.3703 C   0  0  0  0  0  0  0  0  0  0  0  0
   -1.0531    9.0660   38.0017 O   0  0  0  0  0  0  0  0  0  0  0  0
   -0.9524    2.7991   38.0971 C   0  0  1  0  0  0  0  0  0  0  0  0
   -1.3941    1.7507   39.0350 N   0  3  0  0  0  0  0  0  0  0  0  0
    0.5392    2.6268   37.6786 C   0  0  2  0  0  0  0  0  0  0  0  0
    1.3855    2.6669   38.8252 O   0  0  0  0  0  0  0  0  0  0  0  0
    0.9851    3.7517   36.6992 C   0  0  1  0  0  0  0  0  0  0  0  0
    2.3253    3.4428   36.2140 O   0  0  0  0  0  0  0  0  0  0  0  0
    0.0119    3.8926   35.4835 C   0  0  1  0  0  0  0  0  0  0  0  0
   -1.4850    4.0096   35.9151 C   0  0  1  0  0  0  0  0  0  0  0  0
   -2.3885    4.0412   34.7437 N   0  3  0  0  0  0  0  0  0  0  0  0
   -1.8789    2.8341   36.8466 C   0  0  0  0  0  0  0  0  0  0  0  0
    2.4978    2.7102   34.9588 C   0  0  1  0  0  0  0  0  0  0  0  0
    3.9736    2.2882   34.8328 C   0  0  2  0  0  0  0  0  0  0  0  0
    4.3405    2.1103   33.4676 O   0  0  0  0  0  0  0  0  0  0  0  0
    3.9097    0.9568   35.5965 C   0  0  1  0  0  0  0  0  0  0  0  0
    2.6194    0.3453   35.0760 C   0  0  2  0  0  0  0  0  0  0  0  0
    1.7627    1.4742   34.9964 O   0  0  0  0  0  0  0  0  0  0  0  0
    1.9987   -0.7329   35.9736 C   0  0  0  0  0  0  0  0  0  0  0  0
    1.5981   -0.1649   37.2118 O   0  0  0  0  0  0  0  0  0  0  0  0
    8.8501   -0.2139   37.3872 C   0  0  1  0  0  0  0  0  0  0  0  0
    9.1800   -1.5019   36.8705 O   0  0  0  0  0  0  0  0  0  0  0  0
    8.7472    0.8009   36.2145 C   0  0  2  0  0  0  0  0  0  0  0  0
    8.7916    2.1208   36.7518 O   0  0  0  0  0  0  0  0  0  0  0  0
    7.4712    0.6645   35.3205 C   0  0  1  0  0  0  0  0  0  0  0  0
    7.6843   -0.3580   34.2727 N   0  3  0  0  0  0  0  0  0  0  0  0
    6.1981    0.4005   36.1669 C   0  0  1  0  0  0  0  0  0  0  0  0
    5.0297    0.0542   35.3833 O   0  0  0  0  0  0  0  0  0  0  0  0
    7.5030   -0.2703   38.1505 C   0  0  1  0  0  0  0  0  0  0  0  0
    6.4662   -0.6153   37.1914 O   0  0  0  0  0  0  0  0  0  0  0  0
    7.5013   -1.2490   39.3398 C   0  0  0  0  0  0  0  0  0  0  0  0
    8.1468   -2.5370   39.0190 N   0  3  0  0  0  0  0  0  0  0  0  0
  1  2  1  1  0  0  0
  1  3  1  0  0  0  0
  1 10  1  0  0  0  0
  3  4  1  6  0  0  0
  3  5  1  0  0  0  0
  5  6  1  6  0  0  0
  5  7  1  0  0  0  0
  7  8  1  1  0  0  0
  7  9  1  0  0  0  0
  9 10  1  0  0  0  0
  9 11  1  1  0  0  0
 11 12  1  0  0  0  0
 13 14  1  1  0  0  0
 13 15  1  0  0  0  0
 13 22  1  0  0  0  0
 15 16  1  1  0  0  0
 15 17  1  0  0  0  0
 17 18  1  6  0  0  0
 17 19  1  0  0  0  0
 19  2  1  1  0  0  0
 19 20  1  0  0  0  0
 20 21  1  6  0  0  0
 20 22  1  0  0  0  0
 23 18  1  1  0  0  0
 23 24  1  0  0  0  0
 23 28  1  0  0  0  0
 24 25  1  6  0  0  0
 24 26  1  0  0  0  0
 26 27  1  0  0  0  0
 26 38  1  6  0  0  0
 27 28  1  0  0  0  0
 27 29  1  1  0  0  0
 29 30  1  0  0  0  0
 31 32  1  6  0  0  0
 31 33  1  0  0  0  0
 31 39  1  0  0  0  0
 33 34  1  1  0  0  0
 33 35  1  0  0  0  0
 35 36  1  6  0  0  0
 35 37  1  0  0  0  0
 37 38  1  6  0  0  0
 37 40  1  0  0  0  0
 39 40  1  0  0  0  0
 39 41  1  1  0  0  0
 41 42  1  0  0  0  0
M  CHG  5   4   1  14   1  21   1  36   1  42   1
M  END
>  <CHROM.1>
-169.08439259,-137.56380686,-55.31078977,-161.01360912,25.91381364,-49.93944396
-55.68256344,-39.88083044,-56.59335943,93.62618502,-169.10074248,56.93069301
62.07028144,80.11089709,64.46697765,-71.80376555,-73.03900010,-79.33637847
-52.61822723,-122.09419420,-43.51023768,-36.84623441,2.58417986,3.08354262
36.03518125,-2.43267477,-0.28762675,2.63043590

>  <Name>
1pbr

>  <RI>
0

>  <Rbt.Current_Directory>
/home/itssahil/PROJECTS/Mol_Feturizer/New_Systems/rnas/1pbr

>  <Rbt.Executable>
rbdock ($Id: //depot/dev/client3/rdock/2013.1/src/exe/rbdock.cxx#4 $)

>  <Rbt.Library>
libRbt.so (2013.1, Build901 2013/11/27)

>  <Rbt.Parameter_File>
/export/apps/rDock/src/rDock_2013.1_src/data/scripts/dock_solv.prm

>  <Rbt.Receptor>
prm/blind_docking_40.prm

>  <SCORE>
-19.7127

>  <SCORE.INTER>
-47.1798

>  <SCORE.INTER.CONST>
1

>  <SCORE.INTER.POLAR>
-8.82004

>  <SCORE.INTER.ROT>
9

>  <SCORE.INTER.SOLV>
45.461

>  <SCORE.INTER.VDW>
-26.8067

>  <SCORE.INTER.norm>
-1.12333

>  <SCORE.INTRA>
23.5299

>  <SCORE.INTRA.DIHEDRAL>
4.02728

>  <SCORE.INTRA.DIHEDRAL.0>
29.7866

>  <SCORE.INTRA.POLAR>
0.706625

>  <SCORE.INTRA.POLAR.0>
-0.984091

>  <SCORE.INTRA.REPUL>
-0.205093

>  <SCORE.INTRA.REPUL.0>
0.274115

>  <SCORE.INTRA.SOLV>
3.49139

>  <SCORE.INTRA.SOLV.lig_0>
-152.978

>  <SCORE.INTRA.VDW>
18.3935

>  <SCORE.INTRA.VDW.0>
-6.10719

>  <SCORE.INTRA.norm>
0.560235

>  <SCORE.RESTR>
3.93721

>  <SCORE.RESTR.CAVITY>
3.93721

>  <SCORE.RESTR.norm>
0.093743

>  <SCORE.SYSTEM>
0

>  <SCORE.SYSTEM.CONST>
0

>  <SCORE.SYSTEM.DIHEDRAL>
0

>  <SCORE.SYSTEM.SOLV>
0

>  <SCORE.SYSTEM.norm>
0

>  <SCORE.heavy>
42

>  <SCORE.norm>
-0.46935

>  <RMSD>
9.702

$$$$
1pbr
 OpenBabel11021811403D
libRbt.so/2013.1/901 2013/11/27
 42 45  0  0  0  0  0  0  0  0999 V2000
   -0.0680    5.5487   33.6483 C   0  0  2  0  0  0  0  0  0  0  0  0
    0.4868    4.6773   34.6662 O   0  0  0  0  0  0  0  0  0  0  0  0
    1.0742    6.3293   32.8971 C   0  0  2  0  0  0  0  0  0  0  0  0
    2.2770    5.5136   32.5869 N   0  3  0  0  0  0  0  0  0  0  0  0
    1.5709    7.5352   33.7168 C   0  0  1  0  0  0  0  0  0  0  0  0
    2.4046    8.3773   32.9237 O   0  0  0  0  0  0  0  0  0  0  0  0
    0.3918    8.3535   34.2643 C   0  0  2  0  0  0  0  0  0  0  0  0
    0.8697    9.4872   34.9816 O   0  0  0  0  0  0  0  0  0  0  0  0
   -0.5424    7.4653   35.1156 C   0  0  2  0  0  0  0  0  0  0  0  0
   -1.0547    6.4375   34.2412 O   0  0  0  0  0  0  0  0  0  0  0  0
   -1.7347    8.2062   35.7185 C   0  0  0  0  0  0  0  0  0  0  0  0
   -1.3724    9.5184   36.1276 O   0  0  0  0  0  0  0  0  0  0  0  0
   -2.1826    2.7718   37.3958 C   0  0  1  0  0  0  0  0  0  0  0  0
   -3.1247    1.8784   38.0945 N   0  3  0  0  0  0  0  0  0  0  0  0
   -0.7659    2.1381   37.2500 C   0  0  2  0  0  0  0  0  0  0  0  0
   -0.2238    1.8310   38.5323 O   0  0  0  0  0  0  0  0  0  0  0  0
    0.2132    3.1045   36.5213 C   0  0  1  0  0  0  0  0  0  0  0  0
    1.4621    2.3962   36.2646 O   0  0  0  0  0  0  0  0  0  0  0  0
   -0.3744    3.6281   35.1701 C   0  0  1  0  0  0  0  0  0  0  0  0
   -1.8162    4.2105   35.3208 C   0  0  1  0  0  0  0  0  0  0  0  0
   -2.3833    4.6056   34.0124 N   0  3  0  0  0  0  0  0  0  0  0  0
   -2.7525    3.1820   36.0064 C   0  0  0  0  0  0  0  0  0  0  0  0
    2.2119    1.8097   37.3762 C   0  0  1  0  0  0  0  0  0  0  0  0
    2.5938    0.3645   37.0053 C   0  0  2  0  0  0  0  0  0  0  0  0
    2.7856   -0.4300   38.1725 O   0  0  0  0  0  0  0  0  0  0  0  0
    3.9126    0.6450   36.2692 C   0  0  1  0  0  0  0  0  0  0  0  0
    4.5698    1.6828   37.1640 C   0  0  2  0  0  0  0  0  0  0  0  0
    3.4675    2.4908   37.5468 O   0  0  0  0  0  0  0  0  0  0  0  0
    5.6491    2.5386   36.4884 C   0  0  0  0  0  0  0  0  0  0  0  0
    5.8888    3.7121   37.2512 O   0  0  0  0  0  0  0  0  0  0  0  0
    7.2952   -2.4851   38.9918 C   0  0  1  0  0  0  0  0  0  0  0  0
    8.4146   -2.6347   38.1204 O   0  0  0  0  0  0  0  0  0  0  0  0
    7.0205   -0.9729   39.2230 C   0  0  2  0  0  0  0  0  0  0  0  0
    6.1692   -0.8350   40.3583 O   0  0  0  0  0  0  0  0  0  0  0  0
    6.3751   -0.2170   38.0156 C   0  0  1  0  0  0  0  0  0  0  0  0
    7.4215    0.2296   37.0697 N   0  3  0  0  0  0  0  0  0  0  0  0
    5.2674   -1.0604   37.3311 C   0  0  1  0  0  0  0  0  0  0  0  0
    4.7866   -0.5023   36.0836 O   0  0  0  0  0  0  0  0  0  0  0  0
    6.0419   -3.1568   38.3765 C   0  0  1  0  0  0  0  0  0  0  0  0
    5.7168   -2.4456   37.1508 O   0  0  0  0  0  0  0  0  0  0  0  0
    6.2102   -4.6645   38.1107 C   0  0  0  0  0  0  0  0  0  0  0  0
    4.9229   -5.3512   37.8877 N   0  3  0  0  0  0  0  0  0  0  0  0
  1  2  1  1  0  0  0
  1  3  1  0  0  0  0
  1 10  1  0  0  0  0
  3  4  1  1  0  0  0
  3  5  1  0  0  0  0
  5  6  1  6  0  0  0
  5  7  1  0  0  0  0
  7  8  1  1  0  0  0
  7  9  1  0  0  0  0
  9 10  1  0  0  0  0
  9 11  1  6  0  0  0
 11 12  1  0  0  0  0
 13 14  1  6  0  0  0
 13 15  1  0  0  0  0
 13 22  1  0  0  0  0
 15 16  1  1  0  0  0
 15 17  1  0  0  0  0
 17 18  1  6  0  0  0
 17 19  1  0  0  0  0
 19  2  1  1  0  0  0
 19 20  1  0  0  0  0
 20 21  1  6  0  0  0
 20 22  1  0  0  0  0
 23 18  1  6  0  0  0
 23 24  1  0  0  0  0
 23 28  1  0  0  0  0
 24 25  1  1  0  0  0
 24 26  1  0  0  0  0
 26 27  1  0  0  0  0
 26 38  1  1  0  0  0
 27 28  1  0  0  0  0
 27 29  1  6  0  0  0
 29 30  1  0  0  0  0
 31 32  1  6  0  0  0
 31 33  1  0  0  0  0
 31 39  1  0  0  0  0
 33 34  1  1  0  0  0
 33 35  1  0  0  0  0
 35 36  1  6  0  0  0
 35 37  1  0  0  0  0
 37 38  1  6  0  0  0
 37 40  1  0  0  0  0
 39 40  1  0  0  0  0
 39 41  1  6  0  0  0
 41 42  1  0  0  0  0
M  CHG  5   4   1  14   1  21   1  36   1  42   1
M  END
>  <CHROM.1>
-162.76342208,-162.69264245,-94.85670599,73.78083429,-53.94526230,-37.40162111
177.63106188,103.48577842,137.79859008,-57.44087660,132.12006083,32.46094696
78.96437166,-63.59675735,161.82674745,-46.83767741,82.71365228,-171.16369466
43.79297987,-75.06216353,164.02595837,126.26775513,2.37710319,2.52982219
36.42146103,-2.18890514,-0.07061455,2.72417566

>  <Name>
1pbr

>  <RI>
0

>  <Rbt.Current_Directory>
/home/itssahil/PROJECTS/Mol_Feturizer/New_Systems/rnas/1pbr

>  <Rbt.Executable>
rbdock ($Id: //depot/dev/client3/rdock/2013.1/src/exe/rbdock.cxx#4 $)

>  <Rbt.Library>
libRbt.so (2013.1, Build901 2013/11/27)

>  <Rbt.Parameter_File>
/export/apps/rDock/src/rDock_2013.1_src/data/scripts/dock_solv.prm

>  <Rbt.Receptor>
prm/blind_docking_40.prm

>  <SCORE>
25.7158

>  <SCORE.INTER>
-0.252736

>  <SCORE.INTER.CONST>
1

>  <SCORE.INTER.POLAR>
-4.66634

>  <SCORE.INTER.ROT>
9

>  <SCORE.INTER.SOLV>
41.8932

>  <SCORE.INTER.VDW>
-8.17843

>  <SCORE.INTER.norm>
-0.00601751

>  <SCORE.INTRA>
23.282

>  <SCORE.INTRA.DIHEDRAL>
7.85382

>  <SCORE.INTRA.DIHEDRAL.0>
29.7866

>  <SCORE.INTRA.POLAR>
0.363672

>  <SCORE.INTRA.POLAR.0>
-0.984091

>  <SCORE.INTRA.REPUL>
-0.274115

>  <SCORE.INTRA.REPUL.0>
0.274115

>  <SCORE.INTRA.SOLV>
3.10032

>  <SCORE.INTRA.SOLV.lig_0>
-152.978

>  <SCORE.INTRA.VDW>
17.939

>  <SCORE.INTRA.VDW.0>
-6.10719

>  <SCORE.INTRA.norm>
0.554333

>  <SCORE.RESTR>
2.68654

>  <SCORE.RESTR.CAVITY>
2.68654

>  <SCORE.RESTR.norm>
0.0639653

>  <SCORE.SYSTEM>
0

>  <SCORE.SYSTEM.CONST>
0

>  <SCORE.SYSTEM.DIHEDRAL>
0

>  <SCORE.SYSTEM.SOLV>
0

>  <SCORE.SYSTEM.norm>
0

>  <SCORE.heavy>
42

>  <SCORE.norm>
0.612281

>  <RMSD>
9.708

$$$$
1pbr
 OpenBabel11021811403D
libRbt.so/2013.1/901 2013/11/27
 42 45  0  0  0  0  0  0  0  0999 V2000
    0.5685    6.0583   34.9336 C   0  0  2  0  0  0  0  0  0  0  0  0
    0.3078    5.7927   36.3353 O   0  0  0  0  0  0  0  0  0  0  0  0
    0.6223    7.6074   34.6586 C   0  0  2  0  0  0  0  0  0  0  0  0
    1.3362    8.3935   35.6982 N   0  3  0  0  0  0  0  0  0  0  0  0
   -0.7896    8.2142   34.5532 C   0  0  1  0  0  0  0  0  0  0  0  0
   -0.7315    9.5460   34.0469 O   0  0  0  0  0  0  0  0  0  0  0  0
   -1.6902    7.3620   33.6463 C   0  0  2  0  0  0  0  0  0  0  0  0
   -2.9765    7.9612   33.5260 O   0  0  0  0  0  0  0  0  0  0  0  0
   -1.7610    5.9060   34.1579 C   0  0  2  0  0  0  0  0  0  0  0  0
   -0.4182    5.3790   34.1089 O   0  0  0  0  0  0  0  0  0  0  0  0
   -2.6555    4.9908   33.3234 C   0  0  0  0  0  0  0  0  0  0  0  0
   -2.4936    5.2402   31.9334 O   0  0  0  0  0  0  0  0  0  0  0  0
    0.7809    2.5559   39.0752 C   0  0  1  0  0  0  0  0  0  0  0  0
    0.8567    1.2490   39.7535 N   0  3  0  0  0  0  0  0  0  0  0  0
    1.8998    2.7311   38.0042 C   0  0  2  0  0  0  0  0  0  0  0  0
    3.1871    2.6130   38.6054 O   0  0  0  0  0  0  0  0  0  0  0  0
    1.8066    4.1223   37.3117 C   0  0  1  0  0  0  0  0  0  0  0  0
    2.7632    4.1601   36.2115 O   0  0  0  0  0  0  0  0  0  0  0  0
    0.3712    4.4107   36.7626 C   0  0  1  0  0  0  0  0  0  0  0  0
   -0.7450    4.1785   37.8307 C   0  0  1  0  0  0  0  0  0  0  0  0
   -2.0958    4.3623   37.2553 N   0  3  0  0  0  0  0  0  0  0  0  0
   -0.6277    2.7593   38.4444 C   0  0  0  0  0  0  0  0  0  0  0  0
    2.6129    3.2442   35.0799 C   0  0  1  0  0  0  0  0  0  0  0  0
    3.9119    2.4309   34.9278 C   0  0  2  0  0  0  0  0  0  0  0  0
    4.0780    1.9774   33.5873 O   0  0  0  0  0  0  0  0  0  0  0  0
    3.5914    1.2816   35.8954 C   0  0  1  0  0  0  0  0  0  0  0  0
    2.1414    0.9714   35.5625 C   0  0  2  0  0  0  0  0  0  0  0  0
    1.5959    2.2661   35.3602 O   0  0  0  0  0  0  0  0  0  0  0  0
    1.3637    0.2303   36.6578 C   0  0  0  0  0  0  0  0  0  0  0  0
    2.2008   -0.7298   37.2852 O   0  0  0  0  0  0  0  0  0  0  0  0
    6.4273   -2.2633   38.7717 C   0  0  1  0  0  0  0  0  0  0  0  0
    7.5324   -2.6218   37.9440 O   0  0  0  0  0  0  0  0  0  0  0  0
    6.4184   -0.7232   38.9809 C   0  0  2  0  0  0  0  0  0  0  0  0
    5.5655   -0.4201   40.0824 O   0  0  0  0  0  0  0  0  0  0  0  0
    5.9614    0.1182   37.7444 C   0  0  1  0  0  0  0  0  0  0  0  0
    7.1035    0.3583   36.8351 N   0  3  0  0  0  0  0  0  0  0  0  0
    4.7462   -0.5243   37.0254 C   0  0  1  0  0  0  0  0  0  0  0  0
    4.4171    0.0927   35.7565 O   0  0  0  0  0  0  0  0  0  0  0  0
    5.0970   -2.7101   38.1149 C   0  0  1  0  0  0  0  0  0  0  0  0
    4.9476   -1.9698   36.8725 O   0  0  0  0  0  0  0  0  0  0  0  0
    5.0033   -4.2273   37.8671 C   0  0  0  0  0  0  0  0  0  0  0  0
    6.2615   -4.7991   37.3490 N   0  3  0  0  0  0  0  0  0  0  0  0
  1  2  1  1  0  0  0
  1  3  1  0  0  0  0
  1 10  1  0  0  0  0
  3  4  1  1  0  0  0
  3  5  1  0  0  0  0
  5  6  1  6  0  0  0
  5  7  1  0  0  0  0
  7  8  1  1  0  0  0
  7  9  1  0  0  0  0
  9 10  1  0  0  0  0
  9 11  1  6  0  0  0
 11 12  1  0  0  0  0
 13 14  1  6  0  0  0
 13 15  1  0  0  0  0
 13 22  1  0  0  0  0
 15 16  1  1  0  0  0
 15 17  1  0  0  0  0
 17 18  1  6  0  0  0
 17 19  1  0  0  0  0
 19  2  1  1  0  0  0
 19 20  1  0  0  0  0
 20 21  1  6  0  0  0
 20 22  1  0  0  0  0
 23 18  1  1  0  0  0
 23 24  1  0  0  0  0
 23 28  1  0  0  0  0
 24 25  1  6  0  0  0
 24 26  1  0  0  0  0
 26 27  1  0  0  0  0
 26 38  1  6  0  0  0
 27 28  1  0  0  0  0
 27 29  1  1  0  0  0
 29 30  1  0  0  0  0
 31 32  1  6  0  0  0
 31 33  1  0  0  0  0
 31 39  1  0  0  0  0
 33 34  1  1  0  0  0
 33 35  1  0  0  0  0
 35 36  1  6  0  0  0
 35 37  1  0  0  0  0
 37 38  1  6  0  0  0
 37 40  1  0  0  0  0
 39 40  1  0  0  0  0
 39 41  1  6  0  0  0
 41 42  1  0  0  0  0
M  CHG  5   4   1  14   1  21   1  36   1  42   1
M  END
>  <CHROM.1>
-173.65367919,94.31609393,-70.18296760,-60.14128417,-175.90548507,40.81835879
-61.80333874,-64.60323393,-175.05872751,63.29625460,-123.59077196,141.07217575
-64.21951373,141.94386279,-38.24289552,-174.79067587,68.43096042,-175.97582618
-79.73547627,-83.26487552,-41.92545404,-127.90694130,2.12079546,2.55218106
36.36863397,-2.36718539,-0.60487910,2.24716116

>  <Name>
1pbr

>  <RI>
0

>  <Rbt.Current_Directory>
/home/itssahil/PROJECTS/Mol_Feturizer/New_Systems/rnas/1pbr

>  <Rbt.Executable>
rbdock ($Id: //depot/dev/client3/rdock/2013.1/src/exe/rbdock.cxx#4 $)

>  <Rbt.Library>
libRbt.so (2013.1, Build901 2013/11/27)

>  <Rbt.Parameter_File>
/export/apps/rDock/src/rDock_2013.1_src/data/scripts/dock_solv.prm

>  <Rbt.Receptor>
prm/blind_docking_40.prm

>  <SCORE>
-10.8275

>  <SCORE.INTER>
-21.369

>  <SCORE.INTER.CONST>
1

>  <SCORE.INTER.POLAR>
-5.07438

>  <SCORE.INTER.ROT>
9

>  <SCORE.INTER.SOLV>
31.3942

>  <SCORE.INTER.VDW>
-17.3961

>  <SCORE.INTER.norm>
-0.508786

>  <SCORE.INTRA>
8.46597

>  <SCORE.INTRA.DIHEDRAL>
2.39368

>  <SCORE.INTRA.DIHEDRAL.0>
29.7866

>  <SCORE.INTRA.POLAR>
-0.0475299

>  <SCORE.INTRA.POLAR.0>
-0.984091

>  <SCORE.INTRA.REPUL>
-0.215817

>  <SCORE.INTRA.REPUL.0>
0.274115

>  <SCORE.INTRA.SOLV>
6.06465

>  <SCORE.INTRA.SOLV.lig_0>
-152.978

>  <SCORE.INTRA.VDW>
5.47749

>  <SCORE.INTRA.VDW.0>
-6.10719

>  <SCORE.INTRA.norm>
0.201571

>  <SCORE.RESTR>
2.0755

>  <SCORE.RESTR.CAVITY>
2.0755

>  <SCORE.RESTR.norm>
0.0494167

>  <SCORE.SYSTEM>
0

>  <SCORE.SYSTEM.CONST>
0

>  <SCORE.SYSTEM.DIHEDRAL>
0

>  <SCORE.SYSTEM.SOLV>
0

>  <SCORE.SYSTEM.norm>
0

>  <SCORE.heavy>
42

>  <SCORE.norm>
-0.257798

>  <RMSD>
9.714

$$$$
1pbr
 OpenBabel11021811403D
libRbt.so/2013.1/901 2013/11/27
 42 45  0  0  0  0  0  0  0  0999 V2000
    0.5028    5.9902   34.7713 C   0  0  2  0  0  0  0  0  0  0  0  0
   -0.0163    5.6969   36.0934 O   0  0  0  0  0  0  0  0  0  0  0  0
    0.7851    7.5305   34.6104 C   0  0  2  0  0  0  0  0  0  0  0  0
    1.4051    8.1709   35.7995 N   0  3  0  0  0  0  0  0  0  0  0  0
   -0.5076    8.3170   34.3221 C   0  0  1  0  0  0  0  0  0  0  0  0
   -0.2086    9.6520   33.9198 O   0  0  0  0  0  0  0  0  0  0  0  0
   -1.3402    7.6289   33.2299 C   0  0  2  0  0  0  0  0  0  0  0  0
   -2.5084    8.3925   32.9462 O   0  0  0  0  0  0  0  0  0  0  0  0
   -1.6673    6.1723   33.6272 C   0  0  2  0  0  0  0  0  0  0  0  0
   -0.4072    5.4806   33.7576 O   0  0  0  0  0  0  0  0  0  0  0  0
   -2.5134    5.4177   32.6031 C   0  0  0  0  0  0  0  0  0  0  0  0
   -3.8553    5.2738   33.0493 O   0  0  0  0  0  0  0  0  0  0  0  0
    0.1685    2.4010   38.7972 C   0  0  1  0  0  0  0  0  0  0  0  0
    0.1550    1.0813   39.4546 N   0  3  0  0  0  0  0  0  0  0  0  0
    1.3580    2.5524   37.8013 C   0  0  2  0  0  0  0  0  0  0  0  0
    2.5999    2.3777   38.4793 O   0  0  0  0  0  0  0  0  0  0  0  0
    1.3579    3.9571   37.1302 C   0  0  1  0  0  0  0  0  0  0  0  0
    2.3826    3.9778   36.0925 O   0  0  0  0  0  0  0  0  0  0  0  0
   -0.0290    4.3067   36.4981 C   0  0  1  0  0  0  0  0  0  0  0  0
   -1.2176    4.0982   37.4902 C   0  0  1  0  0  0  0  0  0  0  0  0
   -2.5222    4.3405   36.8354 N   0  3  0  0  0  0  0  0  0  0  0  0
   -1.1896    2.6659   38.0838 C   0  0  0  0  0  0  0  0  0  0  0  0
    2.2437    3.1260   34.9107 C   0  0  1  0  0  0  0  0  0  0  0  0
    3.6124    2.4947   34.5941 C   0  0  2  0  0  0  0  0  0  0  0  0
    3.7123    2.1541   33.2142 O   0  0  0  0  0  0  0  0  0  0  0  0
    3.5194    1.2536   35.4946 C   0  0  1  0  0  0  0  0  0  0  0  0
    2.0935    0.7852   35.2562 C   0  0  2  0  0  0  0  0  0  0  0  0
    1.3806    2.0111   35.1966 O   0  0  0  0  0  0  0  0  0  0  0  0
    1.5107   -0.1178   36.3510 C   0  0  0  0  0  0  0  0  0  0  0  0
    2.3009   -1.2895   36.4881 O   0  0  0  0  0  0  0  0  0  0  0  0
    6.6366   -1.5575   38.5052 C   0  0  1  0  0  0  0  0  0  0  0  0
    5.9074   -2.7835   38.5083 O   0  0  0  0  0  0  0  0  0  0  0  0
    7.4052   -1.4185   37.1615 C   0  0  2  0  0  0  0  0  0  0  0  0
    8.4013   -0.4094   37.3110 O   0  0  0  0  0  0  0  0  0  0  0  0
    6.5226   -1.0735   35.9174 C   0  0  1  0  0  0  0  0  0  0  0  0
    5.9489   -2.3070   35.3357 N   0  3  0  0  0  0  0  0  0  0  0  0
    5.4442   -0.0093   36.2511 C   0  0  1  0  0  0  0  0  0  0  0  0
    4.4665    0.1899   35.2006 O   0  0  0  0  0  0  0  0  0  0  0  0
    5.6719   -0.3582   38.6830 C   0  0  1  0  0  0  0  0  0  0  0  0
    4.7911   -0.3250   37.5267 O   0  0  0  0  0  0  0  0  0  0  0  0
    4.8615   -0.3993   39.9920 C   0  0  0  0  0  0  0  0  0  0  0  0
    5.7191   -0.4132   41.1932 N   0  3  0  0  0  0  0  0  0  0  0  0
  1  2  1  1  0  0  0
  1  3  1  0  0  0  0
  1 10  1  0  0  0  0
  3  4  1  1  0  0  0
  3  5  1  0  0  0  0
  5  6  1  6  0  0  0
  5  7  1  0  0  0  0
  7  8  1  1  0  0  0
  7  9  1  0  0  0  0
  9 10  1  0  0  0  0
  9 11  1  6  0  0  0
 11 12  1  0  0  0  0
 13 14  1  6  0  0  0
 13 15  1  0  0  0  0
 13 22  1  0  0  0  0
 15 16  1  1  0  0  0
 15 17  1  0  0  0  0
 17 18  1  6  0  0  0
 17 19  1  0  0  0  0
 19  2  1  1  0  0  0
 19 20  1  0  0  0  0
 20 21  1  6  0  0  0
 20 22  1  0  0  0  0
 23 18  1  1  0  0  0
 23 24  1  0  0  0  0
 23 28  1  0  0  0  0
 24 25  1  6  0  0  0
 24 26  1  0  0  0  0
 26 27  1  0  0  0  0
 26 38  1  6  0  0  0
 27 28  1  0  0  0  0
 27 29  1  1  0  0  0
 29 30  1  0  0  0  0
 31 32  1  6  0  0  0
 31 33  1  0  0  0  0
 31 39  1  0  0  0  0
 33 34  1  1  0  0  0
 33 35  1  0  0  0  0
 35 36  1  1  0  0  0
 35 37  1  0  0  0  0
 37 38  1  6  0  0  0
 37 40  1  0  0  0  0
 39 40  1  0  0  0  0
 39 41  1  1  0  0  0
 41 42  1  0  0  0  0
M  CHG  5   4   1  14   1  21   1  36   1  42   1
M  END
>  <CHROM.1>
-165.98055749,86.71763692,56.20206034,-4.36765419,178.23619529,-105.51430138
-178.75074359,78.09092780,-42.42339133,65.78058840,-137.47265200,-53.10201518
68.99713028,113.07841118,-59.66382534,175.96611079,-75.59171572,61.32884534
40.33872801,-176.08248839,59.19912426,-170.73219451,2.01800922,2.72521229
36.16188408,-2.39327940,-0.53307776,2.22817399

>  <Name>
1pbr

>  <RI>
0

>  <Rbt.Current_Directory>
/home/itssahil/PROJECTS/Mol_Feturizer/New_Systems/rnas/1pbr

>  <Rbt.Executable>
rbdock ($Id: //depot/dev/client3/rdock/2013.1/src/exe/rbdock.cxx#4 $)

>  <Rbt.Library>
libRbt.so (2013.1, Build901 2013/11/27)

>  <Rbt.Parameter_File>
/export/apps/rDock/src/rDock_2013.1_src/data/scripts/dock_solv.prm

>  <Rbt.Receptor>
prm/blind_docking_40.prm

>  <SCORE>
-17.9599

>  <SCORE.INTER>
-27.8933

>  <SCORE.INTER.CONST>
1

>  <SCORE.INTER.POLAR>
-4.688

>  <SCORE.INTER.ROT>
9

>  <SCORE.INTER.SOLV>
34.9255

>  <SCORE.INTER.VDW>
-24.2107

>  <SCORE.INTER.norm>
-0.664126

>  <SCORE.INTRA>
5.73423

>  <SCORE.INTRA.DIHEDRAL>
4.61399

>  <SCORE.INTRA.DIHEDRAL.0>
29.7866

>  <SCORE.INTRA.POLAR>
0.902715

>  <SCORE.INTRA.POLAR.0>
-0.984091

>  <SCORE.INTRA.REPUL>
-0.274115

>  <SCORE.INTRA.REPUL.0>
0.274115

>  <SCORE.INTRA.SOLV>
0.502247

>  <SCORE.INTRA.SOLV.lig_0>
-152.978

>  <SCORE.INTRA.VDW>
1.47745

>  <SCORE.INTRA.VDW.0>
-6.10719

>  <SCORE.INTRA.norm>
0.136529

>  <SCORE.RESTR>
4.19919

>  <SCORE.RESTR.CAVITY>
4.19919

>  <SCORE.RESTR.norm>
0.0999807

>  <SCORE.SYSTEM>
0

>  <SCORE.SYSTEM.CONST>
0

>  <SCORE.SYSTEM.DIHEDRAL>
0

>  <SCORE.SYSTEM.SOLV>
0

>  <SCORE.SYSTEM.norm>
0

>  <SCORE.heavy>
42

>  <SCORE.norm>
-0.427616

>  <RMSD>
9.715

$$$$
1pbr
 OpenBabel11021811403D
libRbt.so/2013.1/901 2013/11/27
 42 45  0  0  0  0  0  0  0  0999 V2000
    0.5813    5.2421   34.1412 C   0  0  2  0  0  0  0  0  0  0  0  0
    0.3643    5.1623   35.5729 O   0  0  0  0  0  0  0  0  0  0  0  0
    1.5420    6.4378   33.7869 C   0  0  2  0  0  0  0  0  0  0  0  0
    2.6936    6.5981   34.7124 N   0  3  0  0  0  0  0  0  0  0  0  0
    0.7956    7.7852   33.7901 C   0  0  1  0  0  0  0  0  0  0  0  0
    1.6019    8.8117   33.2161 O   0  0  0  0  0  0  0  0  0  0  0  0
   -0.5286    7.6843   33.0180 C   0  0  2  0  0  0  0  0  0  0  0  0
   -1.1829    8.9491   32.9945 O   0  0  0  0  0  0  0  0  0  0  0  0
   -1.4203    6.5675   33.6045 C   0  0  2  0  0  0  0  0  0  0  0  0
   -0.6958    5.3287   33.4506 O   0  0  0  0  0  0  0  0  0  0  0  0
   -2.7705    6.4116   32.9069 C   0  0  0  0  0  0  0  0  0  0  0  0
   -3.3947    5.1846   33.2611 O   0  0  0  0  0  0  0  0  0  0  0  0
   -0.9407    2.3239   38.4795 C   0  0  1  0  0  0  0  0  0  0  0  0
   -1.3325    1.1199   39.2348 N   0  3  0  0  0  0  0  0  0  0  0  0
    0.5886    2.3616   38.1803 C   0  0  2  0  0  0  0  0  0  0  0  0
    1.3342    2.3332   39.3951 O   0  0  0  0  0  0  0  0  0  0  0  0
    0.9793    3.6471   37.3939 C   0  0  1  0  0  0  0  0  0  0  0  0
    2.3791    3.5437   36.9978 O   0  0  0  0  0  0  0  0  0  0  0  0
    0.0929    3.8502   36.1218 C   0  0  1  0  0  0  0  0  0  0  0  0
   -1.4364    3.7557   36.4266 C   0  0  1  0  0  0  0  0  0  0  0  0
   -2.2448    3.8522   35.1910 N   0  3  0  0  0  0  0  0  0  0  0  0
   -1.7662    2.4321   37.1640 C   0  0  0  0  0  0  0  0  0  0  0  0
    2.7252    3.1987   35.6183 C   0  0  1  0  0  0  0  0  0  0  0  0
    3.9986    2.3325   35.6312 C   0  0  2  0  0  0  0  0  0  0  0  0
    4.7047    2.4419   34.3984 O   0  0  0  0  0  0  0  0  0  0  0  0
    3.3490    0.9518   35.8092 C   0  0  1  0  0  0  0  0  0  0  0  0
    2.1664    1.0239   34.8575 C   0  0  2  0  0  0  0  0  0  0  0  0
    1.7110    2.3551   35.0445 O   0  0  0  0  0  0  0  0  0  0  0  0
    1.0352    0.0280   35.1443 C   0  0  0  0  0  0  0  0  0  0  0  0
    1.4145   -0.8516   36.1925 O   0  0  0  0  0  0  0  0  0  0  0  0
    7.4578   -1.4252   38.0443 C   0  0  1  0  0  0  0  0  0  0  0  0
    6.9621   -2.7450   38.2615 O   0  0  0  0  0  0  0  0  0  0  0  0
    7.7836   -1.2388   36.5361 C   0  0  2  0  0  0  0  0  0  0  0  0
    8.6091   -0.0857   36.3896 O   0  0  0  0  0  0  0  0  0  0  0  0
    6.5426   -1.0917   35.5958 C   0  0  1  0  0  0  0  0  0  0  0  0
    6.0302   -2.4244   35.2082 N   0  3  0  0  0  0  0  0  0  0  0  0
    5.4486   -0.1861   36.2201 C   0  0  1  0  0  0  0  0  0  0  0  0
    4.1954   -0.1877   35.4932 O   0  0  0  0  0  0  0  0  0  0  0  0
    6.4059   -0.3768   38.4861 C   0  0  1  0  0  0  0  0  0  0  0  0
    5.2407   -0.5330   37.6307 O   0  0  0  0  0  0  0  0  0  0  0  0
    6.0152   -0.4745   39.9727 C   0  0  0  0  0  0  0  0  0  0  0  0
    5.9741   -1.8668   40.4611 N   0  3  0  0  0  0  0  0  0  0  0  0
  1  2  1  1  0  0  0
  1  3  1  0  0  0  0
  1 10  1  0  0  0  0
  3  4  1  1  0  0  0
  3  5  1  0  0  0  0
  5  6  1  6  0  0  0
  5  7  1  0  0  0  0
  7  8  1  1  0  0  0
  7  9  1  0  0  0  0
  9 10  1  0  0  0  0
  9 11  1  6  0  0  0
 11 12  1  0  0  0  0
 13 14  1  6  0  0  0
 13 15  1  0  0  0  0
 13 22  1  0  0  0  0
 15 16  1  1  0  0  0
 15 17  1  0  0  0  0
 17 18  1  6  0  0  0
 17 19  1  0  0  0  0
 19  2  1  1  0  0  0
 19 20  1  0  0  0  0
 20 21  1  6  0  0  0
 20 22  1  0  0  0  0
 23 18  1  1  0  0  0
 23 24  1  0  0  0  0
 23 28  1  0  0  0  0
 24 25  1  6  0  0  0
 24 26  1  0  0  0  0
 26 27  1  0  0  0  0
 26 38  1  6  0  0  0
 27 28  1  0  0  0  0
 27 29  1  1  0  0  0
 29 30  1  0  0  0  0
 31 32  1  6  0  0  0
 31 33  1  0  0  0  0
 31 39  1  0  0  0  0
 33 34  1  1  0  0  0
 33 35  1  0  0  0  0
 35 36  1  1  0  0  0
 35 37  1  0  0  0  0
 37 38  1  6  0  0  0
 37 40  1  0  0  0  0
 39 40  1  0  0  0  0
 39 41  1  1  0  0  0
 41 42  1  0  0  0  0
M  CHG  5   4   1  14   1  21   1  36   1  42   1
M  END
>  <CHROM.1>
-150.73978300,133.41511912,68.77926026,-153.12442026,62.63557775,165.64917242
-59.07665142,-45.52713764,-65.40388594,102.75251307,-144.87233620,-54.37982291
-55.52881079,54.68626931,-5.65609743,63.06980079,49.56250157,-67.75824468
43.10550025,-161.24449293,-36.14539105,-131.66429026,2.21881065,2.55962287
35.95873081,-2.30941684,-0.26750516,2.47351643

>  <Name>
1pbr

>  <RI>
0

>  <Rbt.Current_Directory>
/home/itssahil/PROJECTS/Mol_Feturizer/New_Systems/rnas/1pbr

>  <Rbt.Executable>
rbdock ($Id: //depot/dev/client3/rdock/2013.1/src/exe/rbdock.cxx#4 $)

>  <Rbt.Library>
libRbt.so (2013.1, Build901 2013/11/27)

>  <Rbt.Parameter_File>
/export/apps/rDock/src/rDock_2013.1_src/data/scripts/dock_solv.prm

>  <Rbt.Receptor>
prm/blind_docking_40.prm

>  <SCORE>
-19.3713

>  <SCORE.INTER>
-35.4683

>  <SCORE.INTER.CONST>
1

>  <SCORE.INTER.POLAR>
-6.84143

>  <SCORE.INTER.ROT>
9

>  <SCORE.INTER.SOLV>
44.7654

>  <SCORE.INTER.VDW>
-25.3625

>  <SCORE.INTER.norm>
-0.844483

>  <SCORE.INTRA>
12.8039

>  <SCORE.INTRA.DIHEDRAL>
9.29419

>  <SCORE.INTRA.DIHEDRAL.0>
29.7866

>  <SCORE.INTRA.POLAR>
-0.547962

>  <SCORE.INTRA.POLAR.0>
-0.984091

>  <SCORE.INTRA.REPUL>
-0.274115

>  <SCORE.INTRA.REPUL.0>
0.274115

>  <SCORE.INTRA.SOLV>
7.59044

>  <SCORE.INTRA.SOLV.lig_0>
-152.978

>  <SCORE.INTRA.VDW>
7.59525

>  <SCORE.INTRA.VDW.0>
-6.10719

>  <SCORE.INTRA.norm>
0.304855

>  <SCORE.RESTR>
3.29301

>  <SCORE.RESTR.CAVITY>
3.29301

>  <SCORE.RESTR.norm>
0.0784049

>  <SCORE.SYSTEM>
0

>  <SCORE.SYSTEM.CONST>
0

>  <SCORE.SYSTEM.DIHEDRAL>
0

>  <SCORE.SYSTEM.SOLV>
0

>  <SCORE.SYSTEM.norm>
0

>  <SCORE.heavy>
42

>  <SCORE.norm>
-0.461223

>  <RMSD>
9.734

$$$$
1pbr
 OpenBabel11021811403D
libRbt.so/2013.1/901 2013/11/27
 42 45  0  0  0  0  0  0  0  0999 V2000
    0.4692    5.3224   34.0838 C   0  0  2  0  0  0  0  0  0  0  0  0
    0.1955    5.2278   35.5049 O   0  0  0  0  0  0  0  0  0  0  0  0
    1.3050    6.6166   33.7601 C   0  0  2  0  0  0  0  0  0  0  0  0
    2.3865    6.9117   34.7356 N   0  3  0  0  0  0  0  0  0  0  0  0
    0.4126    7.8711   33.7133 C   0  0  1  0  0  0  0  0  0  0  0  0
    1.1244    8.9784   33.1651 O   0  0  0  0  0  0  0  0  0  0  0  0
   -0.8541    7.6165   32.8824 C   0  0  2  0  0  0  0  0  0  0  0  0
   -1.6446    8.7992   32.8141 O   0  0  0  0  0  0  0  0  0  0  0  0
   -1.6413    6.4100   33.4403 C   0  0  2  0  0  0  0  0  0  0  0  0
   -0.7756    5.2599   33.3344 O   0  0  0  0  0  0  0  0  0  0  0  0
   -2.9311    6.0983   32.6832 C   0  0  0  0  0  0  0  0  0  0  0  0
   -3.8546    7.1751   32.7737 O   0  0  0  0  0  0  0  0  0  0  0  0
   -0.9736    2.3272   38.4079 C   0  0  1  0  0  0  0  0  0  0  0  0
   -1.3307    1.1071   39.1547 N   0  3  0  0  0  0  0  0  0  0  0  0
    0.5398    2.3706   38.0369 C   0  0  2  0  0  0  0  0  0  0  0  0
    1.3425    2.3153   39.2138 O   0  0  0  0  0  0  0  0  0  0  0  0
    0.8944    3.6728   37.2609 C   0  0  1  0  0  0  0  0  0  0  0  0
    2.2735    3.5774   36.7963 O   0  0  0  0  0  0  0  0  0  0  0  0
   -0.0514    3.9042   36.0374 C   0  0  1  0  0  0  0  0  0  0  0  0
   -1.5646    3.8038   36.4128 C   0  0  1  0  0  0  0  0  0  0  0  0
   -2.4309    3.9277   35.2196 N   0  3  0  0  0  0  0  0  0  0  0  0
   -1.8607    2.4645   37.1361 C   0  0  0  0  0  0  0  0  0  0  0  0
    2.5844    2.8301   35.5770 C   0  0  1  0  0  0  0  0  0  0  0  0
    4.0983    2.5493   35.5430 C   0  0  2  0  0  0  0  0  0  0  0  0
    4.5558    2.3694   34.2057 O   0  0  0  0  0  0  0  0  0  0  0  0
    4.1186    1.2398   36.3460 C   0  0  1  0  0  0  0  0  0  0  0  0
    2.9232    0.4922   35.7788 C   0  0  2  0  0  0  0  0  0  0  0  0
    1.9689    1.5304   35.6167 O   0  0  0  0  0  0  0  0  0  0  0  0
    2.3587   -0.6154   36.6777 C   0  0  0  0  0  0  0  0  0  0  0  0
    2.1971   -0.1324   38.0032 O   0  0  0  0  0  0  0  0  0  0  0  0
    6.0471   -3.1593   38.4992 C   0  0  1  0  0  0  0  0  0  0  0  0
    6.2961   -3.9857   37.3634 O   0  0  0  0  0  0  0  0  0  0  0  0
    7.1365   -2.0539   38.5809 C   0  0  2  0  0  0  0  0  0  0  0  0
    7.1058   -1.4825   39.8867 O   0  0  0  0  0  0  0  0  0  0  0  0
    7.0068   -0.9062   37.5265 C   0  0  1  0  0  0  0  0  0  0  0  0
    7.6558   -1.2988   36.2563 N   0  3  0  0  0  0  0  0  0  0  0  0
    5.5330   -0.4611   37.3352 C   0  0  1  0  0  0  0  0  0  0  0  0
    5.3294    0.4439   36.2223 O   0  0  0  0  0  0  0  0  0  0  0  0
    4.6460   -2.5067   38.3918 C   0  0  1  0  0  0  0  0  0  0  0  0
    4.6544   -1.6318   37.2307 O   0  0  0  0  0  0  0  0  0  0  0  0
    3.4906   -3.5217   38.3087 C   0  0  0  0  0  0  0  0  0  0  0  0
    3.4666   -4.2545   37.0278 N   0  3  0  0  0  0  0  0  0  0  0  0
  1  2  1  1  0  0  0
  1  3  1  0  0  0  0
  1 10  1  0  0  0  0
  3  4  1  1  0  0  0
  3  5  1  0  0  0  0
  5  6  1  6  0  0  0
  5  7  1  0  0  0  0
  7  8  1  1  0  0  0
  7  9  1  0  0  0  0
  9 10  1  0  0  0  0
  9 11  1  6  0  0  0
 11 12  1  0  0  0  0
 13 14  1  6  0  0  0
 13 15  1  0  0  0  0
 13 22  1  0  0  0  0
 15 16  1  1  0  0  0
 15 17  1  0  0  0  0
 17 18  1  6  0  0  0
 17 19  1  0  0  0  0
 19  2  1  1  0  0  0
 19 20  1  0  0  0  0
 20 21  1  6  0  0  0
 20 22  1  0  0  0  0
 23 18  1  1  0  0  0
 23 24  1  0  0  0  0
 23 28  1  0  0  0  0
 24 25  1  6  0  0  0
 24 26  1  0  0  0  0
 26 27  1  0  0  0  0
 26 38  1  6  0  0  0
 27 28  1  0  0  0  0
 27 29  1  1  0  0  0
 29 30  1  0  0  0  0
 31 32  1  6  0  0  0
 31 33  1  0  0  0  0
 31 39  1  0  0  0  0
 33 34  1  1  0  0  0
 33 35  1  0  0  0  0
 35 36  1  6  0  0  0
 35 37  1  0  0  0  0
 37 38  1  6  0  0  0
 37 40  1  0  0  0  0
 39 40  1  0  0  0  0
 39 41  1  6  0  0  0
 41 42  1  0  0  0  0
M  CHG  5   4   1  14   1  21   1  36   1  42   1
M  END
>  <CHROM.1>
-155.23098951,127.76797360,-49.40279132,177.37137613,-66.10091360,-62.95599493
-59.58746995,-37.59470940,93.24336783,81.36815540,-163.91560536,178.13071776
-74.69077750,157.47416296,47.65463860,-179.99970119,47.74571041,-179.68529889
-60.86710637,-157.76961813,-69.85260464,58.20806468,2.00709397,2.30716426
36.11174393,-2.18606359,-0.21027429,2.57360888

>  <Name>
1pbr

>  <RI>
0

>  <Rbt.Current_Directory>
/home/itssahil/PROJECTS/Mol_Feturizer/New_Systems/rnas/1pbr

>  <Rbt.Executable>
rbdock ($Id: //depot/dev/client3/rdock/2013.1/src/exe/rbdock.cxx#4 $)

>  <Rbt.Library>
libRbt.so (2013.1, Build901 2013/11/27)

>  <Rbt.Parameter_File>
/export/apps/rDock/src/rDock_2013.1_src/data/scripts/dock_solv.prm

>  <Rbt.Receptor>
prm/blind_docking_40.prm

>  <SCORE>
-24.9578

>  <SCORE.INTER>
-32.1952

>  <SCORE.INTER.CONST>
1

>  <SCORE.INTER.POLAR>
-5.33455

>  <SCORE.INTER.ROT>
9

>  <SCORE.INTER.SOLV>
42.8367

>  <SCORE.INTER.VDW>
-27.5605

>  <SCORE.INTER.norm>
-0.766553

>  <SCORE.INTRA>
2.53331

>  <SCORE.INTRA.DIHEDRAL>
-3.51732

>  <SCORE.INTRA.DIHEDRAL.0>
29.7866

>  <SCORE.INTRA.POLAR>
-0.367627

>  <SCORE.INTRA.POLAR.0>
-0.984091

>  <SCORE.INTRA.REPUL>
-0.274115

>  <SCORE.INTRA.REPUL.0>
0.274115

>  <SCORE.INTRA.SOLV>
6.7918

>  <SCORE.INTRA.SOLV.lig_0>
-152.978

>  <SCORE.INTRA.VDW>
3.51658

>  <SCORE.INTRA.VDW.0>
-6.10719

>  <SCORE.INTRA.norm>
0.060317

>  <SCORE.RESTR>
4.70414

>  <SCORE.RESTR.CAVITY>
4.70414

>  <SCORE.RESTR.norm>
0.112003

>  <SCORE.SYSTEM>
0

>  <SCORE.SYSTEM.CONST>
0

>  <SCORE.SYSTEM.DIHEDRAL>
0

>  <SCORE.SYSTEM.SOLV>
0

>  <SCORE.SYSTEM.norm>
0

>  <SCORE.heavy>
42

>  <SCORE.norm>
-0.594233

>  <RMSD>
9.820

$$$$
1pbr
 OpenBabel11021811403D
libRbt.so/2013.1/901 2013/11/27
 42 45  0  0  0  0  0  0  0  0999 V2000
    0.4225    5.0930   36.3922 C   0  0  2  0  0  0  0  0  0  0  0  0
    0.3526    4.6499   35.0131 O   0  0  0  0  0  0  0  0  0  0  0  0
   -0.6911    4.3970   37.2604 C   0  0  2  0  0  0  0  0  0  0  0  0
   -0.8922    2.9548   36.9637 N   0  3  0  0  0  0  0  0  0  0  0  0
   -2.0627    5.0716   37.0703 C   0  0  1  0  0  0  0  0  0  0  0  0
   -2.9932    4.6107   38.0477 O   0  0  0  0  0  0  0  0  0  0  0  0
   -1.9430    6.6004   37.1603 C   0  0  2  0  0  0  0  0  0  0  0  0
   -3.2259    7.2040   37.0261 O   0  0  0  0  0  0  0  0  0  0  0  0
   -0.9276    7.1318   36.1244 C   0  0  2  0  0  0  0  0  0  0  0  0
    0.3498    6.5444   36.4505 O   0  0  0  0  0  0  0  0  0  0  0  0
   -0.7615    8.6505   36.1308 C   0  0  0  0  0  0  0  0  0  0  0  0
    0.5872    9.0201   36.3855 O   0  0  0  0  0  0  0  0  0  0  0  0
    2.7275    4.6743   31.4681 C   0  0  1  0  0  0  0  0  0  0  0  0
    3.7912    4.7917   30.4539 N   0  3  0  0  0  0  0  0  0  0  0  0
    3.0052    3.5257   32.4846 C   0  0  2  0  0  0  0  0  0  0  0  0
    3.1162    2.2767   31.8061 O   0  0  0  0  0  0  0  0  0  0  0  0
    1.8631    3.4135   33.5366 C   0  0  1  0  0  0  0  0  0  0  0  0
    2.2584    2.4442   34.5521 O   0  0  0  0  0  0  0  0  0  0  0  0
    1.5563    4.7861   34.2199 C   0  0  1  0  0  0  0  0  0  0  0  0
    1.3341    5.9400   33.1904 C   0  0  1  0  0  0  0  0  0  0  0  0
    1.1451    7.2431   33.8655 N   0  3  0  0  0  0  0  0  0  0  0  0
    2.5279    6.0310   32.2050 C   0  0  0  0  0  0  0  0  0  0  0  0
    1.9467    2.6922   35.9603 C   0  0  1  0  0  0  0  0  0  0  0  0
    1.9447    1.3464   36.7094 C   0  0  2  0  0  0  0  0  0  0  0  0
    1.1212    1.4080   37.8705 O   0  0  0  0  0  0  0  0  0  0  0  0
    3.4382    1.2630   37.0590 C   0  0  1  0  0  0  0  0  0  0  0  0
    3.7483    2.6834   37.5015 C   0  0  2  0  0  0  0  0  0  0  0  0
    2.9973    3.4565   36.5779 O   0  0  0  0  0  0  0  0  0  0  0  0
    5.2301    3.0766   37.4453 C   0  0  0  0  0  0  0  0  0  0  0  0
    5.3636    4.4875   37.5327 O   0  0  0  0  0  0  0  0  0  0  0  0
    7.8211   -1.1639   37.6027 C   0  0  1  0  0  0  0  0  0  0  0  0
    8.4396   -0.1069   38.3341 O   0  0  0  0  0  0  0  0  0  0  0  0
    6.8943   -1.9738   38.5517 C   0  0  2  0  0  0  0  0  0  0  0  0
    6.5836   -3.2181   37.9290 O   0  0  0  0  0  0  0  0  0  0  0  0
    5.5593   -1.2639   38.9509 C   0  0  1  0  0  0  0  0  0  0  0  0
    5.7789   -0.3684   40.1080 N   0  3  0  0  0  0  0  0  0  0  0  0
    4.9079   -0.5375   37.7448 C   0  0  1  0  0  0  0  0  0  0  0  0
    3.7889    0.3111   38.1009 O   0  0  0  0  0  0  0  0  0  0  0  0
    6.9925   -0.5897   36.4261 C   0  0  1  0  0  0  0  0  0  0  0  0
    5.9197    0.2122   36.9916 O   0  0  0  0  0  0  0  0  0  0  0  0
    7.8228    0.2305   35.4211 C   0  0  0  0  0  0  0  0  0  0  0  0
    7.9019   -0.4071   34.0923 N   0  3  0  0  0  0  0  0  0  0  0  0
  1  2  1  6  0  0  0
  1  3  1  0  0  0  0
  1 10  1  0  0  0  0
  3  4  1  6  0  0  0
  3  5  1  0  0  0  0
  5  6  1  1  0  0  0
  5  7  1  0  0  0  0
  7  8  1  6  0  0  0
  7  9  1  0  0  0  0
  9 10  1  0  0  0  0
  9 11  1  1  0  0  0
 11 12  1  0  0  0  0
 13 14  1  6  0  0  0
 13 15  1  0  0  0  0
 13 22  1  0  0  0  0
 15 16  1  6  0  0  0
 15 17  1  0  0  0  0
 17 18  1  1  0  0  0
 17 19  1  0  0  0  0
 19  2  1  6  0  0  0
 19 20  1  0  0  0  0
 20 21  1  1  0  0  0
 20 22  1  0  0  0  0
 23 18  1  6  0  0  0
 23 24  1  0  0  0  0
 23 28  1  0  0  0  0
 24 25  1  1  0  0  0
 24 26  1  0  0  0  0
 26 27  1  0  0  0  0
 26 38  1  1  0  0  0
 27 28  1  0  0  0  0
 27 29  1  6  0  0  0
 29 30  1  0  0  0  0
 31 32  1  1  0  0  0
 31 33  1  0  0  0  0
 31 39  1  0  0  0  0
 33 34  1  6  0  0  0
 33 35  1  0  0  0  0
 35 36  1  1  0  0  0
 35 37  1  0  0  0  0
 37 38  1  1  0  0  0
 37 40  1  0  0  0  0
 39 40  1  0  0  0  0
 39 41  1  6  0  0  0
 41 42  1  0  0  0  0
M  CHG  5   4   1  14   1  21   1  36   1  42   1
M  END
>  <CHROM.1>
-157.65340822,128.81038176,-158.75221548,-79.42477340,60.18969091,121.50603822
-177.62154975,176.30789599,-169.03786678,140.64158181,157.65479284,140.29803444
-174.46669007,132.17826065,164.69038044,-92.51434075,175.08822885,-177.15382068
-49.87053125,163.37678517,113.67424045,-29.29079145,2.76373042,3.06602238
36.07594657,2.61630029,0.62653179,-1.04004526

>  <Name>
1pbr

>  <RI>
0

>  <Rbt.Current_Directory>
/home/itssahil/PROJECTS/Mol_Feturizer/New_Systems/rnas/1pbr

>  <Rbt.Executable>
rbdock ($Id: //depot/dev/client3/rdock/2013.1/src/exe/rbdock.cxx#4 $)

>  <Rbt.Library>
libRbt.so (2013.1, Build901 2013/11/27)

>  <Rbt.Parameter_File>
/export/apps/rDock/src/rDock_2013.1_src/data/scripts/dock_solv.prm

>  <Rbt.Receptor>
prm/blind_docking_80.prm

>  <SCORE>
27.1129

>  <SCORE.INTER>
9.48025

>  <SCORE.INTER.CONST>
1

>  <SCORE.INTER.POLAR>
-4.05132

>  <SCORE.INTER.ROT>
9

>  <SCORE.INTER.SOLV>
36.0952

>  <SCORE.INTER.VDW>
-1.80717

>  <SCORE.INTER.norm>
0.22572

>  <SCORE.INTRA>
12.2197

>  <SCORE.INTRA.DIHEDRAL>
19.051

>  <SCORE.INTRA.DIHEDRAL.0>
29.7866

>  <SCORE.INTRA.POLAR>
-0.853811

>  <SCORE.INTRA.POLAR.0>
-0.984091

>  <SCORE.INTRA.REPUL>
-0.274115

>  <SCORE.INTRA.REPUL.0>
0.274115

>  <SCORE.INTRA.SOLV>
5.56952

>  <SCORE.INTRA.SOLV.lig_0>
-152.978

>  <SCORE.INTRA.VDW>
4.18297

>  <SCORE.INTRA.VDW.0>
-6.10719

>  <SCORE.INTRA.norm>
0.290946

>  <SCORE.RESTR>
5.41292

>  <SCORE.RESTR.CAVITY>
5.41292

>  <SCORE.RESTR.norm>
0.128879

>  <SCORE.SYSTEM>
0

>  <SCORE.SYSTEM.CONST>
0

>  <SCORE.SYSTEM.DIHEDRAL>
0

>  <SCORE.SYSTEM.SOLV>
0

>  <SCORE.SYSTEM.norm>
0

>  <SCORE.heavy>
42

>  <SCORE.norm>
0.645545

>  <RMSD>
9.890

$$$$
1pbr
 OpenBabel11021811403D
libRbt.so/2013.1/901 2013/11/27
 42 45  0  0  0  0  0  0  0  0999 V2000
    0.5079    5.4503   36.2040 C   0  0  2  0  0  0  0  0  0  0  0  0
    0.4539    5.3570   34.7578 O   0  0  0  0  0  0  0  0  0  0  0  0
   -0.6343    4.5904   36.8630 C   0  0  2  0  0  0  0  0  0  0  0  0
   -0.8582    3.2685   36.2221 N   0  3  0  0  0  0  0  0  0  0  0  0
   -1.9890    5.3226   36.8255 C   0  0  1  0  0  0  0  0  0  0  0  0
   -2.9454    4.6599   37.6497 O   0  0  0  0  0  0  0  0  0  0  0  0
   -1.8411    6.7806   37.2859 C   0  0  2  0  0  0  0  0  0  0  0  0
   -3.1095    7.4283   37.2863 O   0  0  0  0  0  0  0  0  0  0  0  0
   -0.7974    7.5239   36.4230 C   0  0  2  0  0  0  0  0  0  0  0  0
    0.4624    6.8454   36.6124 O   0  0  0  0  0  0  0  0  0  0  0  0
   -0.6019    8.9913   36.8004 C   0  0  0  0  0  0  0  0  0  0  0  0
   -0.0948    9.7418   35.7049 O   0  0  0  0  0  0  0  0  0  0  0  0
    2.9862    4.2242   31.5155 C   0  0  1  0  0  0  0  0  0  0  0  0
    4.1083    3.9383   30.6029 N   0  3  0  0  0  0  0  0  0  0  0  0
    2.9793    3.2809   32.7565 C   0  0  2  0  0  0  0  0  0  0  0  0
    2.8861    1.9189   32.3457 O   0  0  0  0  0  0  0  0  0  0  0  0
    1.7792    3.5936   33.6975 C   0  0  1  0  0  0  0  0  0  0  0  0
    1.9223    2.8018   34.9139 O   0  0  0  0  0  0  0  0  0  0  0  0
    1.7043    5.1103   34.0705 C   0  0  1  0  0  0  0  0  0  0  0  0
    1.7672    6.0461   32.8212 C   0  0  1  0  0  0  0  0  0  0  0  0
    1.7946    7.4733   33.2108 N   0  3  0  0  0  0  0  0  0  0  0  0
    3.0101    5.7177   31.9541 C   0  0  0  0  0  0  0  0  0  0  0  0
    1.4379    1.4212   34.9491 C   0  0  1  0  0  0  0  0  0  0  0  0
    2.5516    0.4943   34.4270 C   0  0  2  0  0  0  0  0  0  0  0  0
    2.0076   -0.7098   33.8938 O   0  0  0  0  0  0  0  0  0  0  0  0
    3.3063    0.2587   35.7441 C   0  0  1  0  0  0  0  0  0  0  0  0
    2.1732    0.0450   36.7341 C   0  0  2  0  0  0  0  0  0  0  0  0
    1.2170    1.0034   36.3078 O   0  0  0  0  0  0  0  0  0  0  0  0
    2.5393    0.2753   38.2060 C   0  0  0  0  0  0  0  0  0  0  0  0
    1.5480   -0.2924   39.0494 O   0  0  0  0  0  0  0  0  0  0  0  0
    7.1040   -1.3223   38.9401 C   0  0  1  0  0  0  0  0  0  0  0  0
    6.5293   -2.5147   39.4716 O   0  0  0  0  0  0  0  0  0  0  0  0
    7.6113   -1.5939   37.4963 C   0  0  2  0  0  0  0  0  0  0  0  0
    8.4978   -0.5420   37.1217 O   0  0  0  0  0  0  0  0  0  0  0  0
    6.4960   -1.7234   36.4076 C   0  0  1  0  0  0  0  0  0  0  0  0
    5.9746   -3.1075   36.3676 N   0  3  0  0  0  0  0  0  0  0  0  0
    5.3772   -0.6656   36.5977 C   0  0  1  0  0  0  0  0  0  0  0  0
    4.2184   -0.8738   35.7534 O   0  0  0  0  0  0  0  0  0  0  0  0
    6.0545   -0.1826   38.9205 C   0  0  1  0  0  0  0  0  0  0  0  0
    4.9913   -0.5771   38.0107 O   0  0  0  0  0  0  0  0  0  0  0  0
    5.4894    0.1678   40.3097 C   0  0  0  0  0  0  0  0  0  0  0  0
    4.6766   -0.9213   40.8858 N   0  3  0  0  0  0  0  0  0  0  0  0
  1  2  1  6  0  0  0
  1  3  1  0  0  0  0
  1 10  1  0  0  0  0
  3  4  1  6  0  0  0
  3  5  1  0  0  0  0
  5  6  1  1  0  0  0
  5  7  1  0  0  0  0
  7  8  1  6  0  0  0
  7  9  1  0  0  0  0
  9 10  1  0  0  0  0
  9 11  1  1  0  0  0
 11 12  1  0  0  0  0
 13 14  1  6  0  0  0
 13 15  1  0  0  0  0
 13 22  1  0  0  0  0
 15 16  1  6  0  0  0
 15 17  1  0  0  0  0
 17 18  1  1  0  0  0
 17 19  1  0  0  0  0
 19  2  1  6  0  0  0
 19 20  1  0  0  0  0
 20 21  1  1  0  0  0
 20 22  1  0  0  0  0
 23 18  1  1  0  0  0
 23 24  1  0  0  0  0
 23 28  1  0  0  0  0
 24 25  1  1  0  0  0
 24 26  1  0  0  0  0
 26 27  1  0  0  0  0
 26 38  1  6  0  0  0
 27 28  1  0  0  0  0
 27 29  1  1  0  0  0
 29 30  1  0  0  0  0
 31 32  1  6  0  0  0
 31 33  1  0  0  0  0
 31 39  1  0  0  0  0
 33 34  1  6  0  0  0
 33 35  1  0  0  0  0
 35 36  1  1  0  0  0
 35 37  1  0  0  0  0
 37 38  1  6  0  0  0
 37 40  1  0  0  0  0
 39 40  1  0  0  0  0
 39 41  1  1  0  0  0
 41 42  1  0  0  0  0
M  CHG  5   4   1  14   1  21   1  36   1  42   1
M  END
>  <CHROM.1>
-133.27396078,100.49143417,52.11035700,-104.94246140,90.64399538,-156.06640421
-165.13450974,41.46463347,-44.23344138,-84.44551649,86.85270748,-163.31993800
146.14210639,147.66257147,-164.14347719,-176.26607556,76.77362985,-176.35986599
-168.11235520,-168.34724066,-66.90153162,-81.40689500,2.44743161,2.56605913
36.01965480,2.54533040,0.77720712,-1.08743955

>  <Name>
1pbr

>  <RI>
0

>  <Rbt.Current_Directory>
/home/itssahil/PROJECTS/Mol_Feturizer/New_Systems/rnas/1pbr

>  <Rbt.Executable>
rbdock ($Id: //depot/dev/client3/rdock/2013.1/src/exe/rbdock.cxx#4 $)

>  <Rbt.Library>
libRbt.so (2013.1, Build901 2013/11/27)

>  <Rbt.Parameter_File>
/export/apps/rDock/src/rDock_2013.1_src/data/scripts/dock_solv.prm

>  <Rbt.Receptor>
prm/blind_docking_40.prm

>  <SCORE>
19.8275

>  <SCORE.INTER>
6.81889

>  <SCORE.INTER.CONST>
1

>  <SCORE.INTER.POLAR>
-6.44143

>  <SCORE.INTER.ROT>
9

>  <SCORE.INTER.SOLV>
35.271

>  <SCORE.INTER.VDW>
4.66035

>  <SCORE.INTER.norm>
0.162355

>  <SCORE.INTRA>
7.51655

>  <SCORE.INTRA.DIHEDRAL>
16.0103

>  <SCORE.INTRA.DIHEDRAL.0>
29.7866

>  <SCORE.INTRA.POLAR>
-1.23214

>  <SCORE.INTRA.POLAR.0>
-0.984091

>  <SCORE.INTRA.REPUL>
-0.274115

>  <SCORE.INTRA.REPUL.0>
0.274115

>  <SCORE.INTRA.SOLV>
5.35621

>  <SCORE.INTRA.SOLV.lig_0>
-152.978

>  <SCORE.INTRA.VDW>
2.39314

>  <SCORE.INTRA.VDW.0>
-6.10719

>  <SCORE.INTRA.norm>
0.178966

>  <SCORE.RESTR>
5.49208

>  <SCORE.RESTR.CAVITY>
5.49208

>  <SCORE.RESTR.norm>
0.130764

>  <SCORE.SYSTEM>
0

>  <SCORE.SYSTEM.CONST>
0

>  <SCORE.SYSTEM.DIHEDRAL>
0

>  <SCORE.SYSTEM.SOLV>
0

>  <SCORE.SYSTEM.norm>
0

>  <SCORE.heavy>
42

>  <SCORE.norm>
0.472084

>  <RMSD>
9.897

$$$$
1pbr
 OpenBabel11021811403D
libRbt.so/2013.1/901 2013/11/27
 42 45  0  0  0  0  0  0  0  0999 V2000
    1.1983    6.8484   35.5168 C   0  0  2  0  0  0  0  0  0  0  0  0
    0.0505    6.1860   36.1058 O   0  0  0  0  0  0  0  0  0  0  0  0
    0.9020    8.3765   35.2810 C   0  0  2  0  0  0  0  0  0  0  0  0
    0.1617    9.0384   36.3865 N   0  3  0  0  0  0  0  0  0  0  0  0
    0.0665    8.6022   34.0068 C   0  0  1  0  0  0  0  0  0  0  0  0
    0.0314    9.9856   33.6632 O   0  0  0  0  0  0  0  0  0  0  0  0
    0.6314    7.7971   32.8268 C   0  0  2  0  0  0  0  0  0  0  0  0
   -0.1268    8.0520   31.6485 O   0  0  0  0  0  0  0  0  0  0  0  0
    0.6993    6.2931   33.1729 C   0  0  2  0  0  0  0  0  0  0  0  0
    1.5947    6.1621   34.2974 O   0  0  0  0  0  0  0  0  0  0  0  0
    1.2319    5.4129   32.0434 C   0  0  0  0  0  0  0  0  0  0  0  0
    2.6440    5.5248   31.9254 O   0  0  0  0  0  0  0  0  0  0  0  0
   -0.5598    2.5321   38.2234 C   0  0  1  0  0  0  0  0  0  0  0  0
   -0.6056    1.1345   38.6909 N   0  3  0  0  0  0  0  0  0  0  0  0
    0.8868    3.1126   38.2384 C   0  0  2  0  0  0  0  0  0  0  0  0
    1.4291    3.0635   39.5560 O   0  0  0  0  0  0  0  0  0  0  0  0
    0.9073    4.5917   37.7533 C   0  0  1  0  0  0  0  0  0  0  0  0
    2.2952    5.0216   37.6272 O   0  0  0  0  0  0  0  0  0  0  0  0
    0.1812    4.7702   36.3800 C   0  0  1  0  0  0  0  0  0  0  0  0
   -1.2464    4.1359   36.3616 C   0  0  1  0  0  0  0  0  0  0  0  0
   -1.8679    4.2326   35.0222 N   0  3  0  0  0  0  0  0  0  0  0  0
   -1.1907    2.6511   36.8052 C   0  0  0  0  0  0  0  0  0  0  0  0
    3.1883    4.3433   36.6869 C   0  0  1  0  0  0  0  0  0  0  0  0
    4.2173    3.5236   37.4877 C   0  0  2  0  0  0  0  0  0  0  0  0
    5.4115    3.3264   36.7359 O   0  0  0  0  0  0  0  0  0  0  0  0
    3.4137    2.2251   37.6547 C   0  0  1  0  0  0  0  0  0  0  0  0
    2.8043    2.0403   36.2749 C   0  0  2  0  0  0  0  0  0  0  0  0
    2.4591    3.3701   35.9183 O   0  0  0  0  0  0  0  0  0  0  0  0
    1.5661    1.1359   36.2232 C   0  0  0  0  0  0  0  0  0  0  0  0
    1.7487    0.0108   37.0701 O   0  0  0  0  0  0  0  0  0  0  0  0
    7.1849   -0.9357   35.6464 C   0  0  1  0  0  0  0  0  0  0  0  0
    8.1046   -1.1261   36.7200 O   0  0  0  0  0  0  0  0  0  0  0  0
    5.8825   -1.7330   35.9358 C   0  0  2  0  0  0  0  0  0  0  0  0
    5.1401   -1.8442   34.7237 O   0  0  0  0  0  0  0  0  0  0  0  0
    4.9560   -1.1249   37.0392 C   0  0  1  0  0  0  0  0  0  0  0  0
    5.3952   -1.5675   38.3809 N   0  3  0  0  0  0  0  0  0  0  0  0
    4.8518    0.4184   36.9203 C   0  0  1  0  0  0  0  0  0  0  0  0
    4.1839    1.0529   38.0385 O   0  0  0  0  0  0  0  0  0  0  0  0
    6.8526    0.5690   35.4843 C   0  0  1  0  0  0  0  0  0  0  0  0
    6.1781    1.0051   36.6962 O   0  0  0  0  0  0  0  0  0  0  0  0
    8.0809    1.4501   35.1897 C   0  0  0  0  0  0  0  0  0  0  0  0
    9.1281    1.3322   36.2231 N   0  3  0  0  0  0  0  0  0  0  0  0
  1  2  1  6  0  0  0
  1  3  1  0  0  0  0
  1 10  1  0  0  0  0
  3  4  1  1  0  0  0
  3  5  1  0  0  0  0
  5  6  1  6  0  0  0
  5  7  1  0  0  0  0
  7  8  1  6  0  0  0
  7  9  1  0  0  0  0
  9 10  1  0  0  0  0
  9 11  1  6  0  0  0
 11 12  1  0  0  0  0
 13 14  1  6  0  0  0
 13 15  1  0  0  0  0
 13 22  1  0  0  0  0
 15 16  1  1  0  0  0
 15 17  1  0  0  0  0
 17 18  1  6  0  0  0
 17 19  1  0  0  0  0
 19  2  1  1  0  0  0
 19 20  1  0  0  0  0
 20 21  1  6  0  0  0
 20 22  1  0  0  0  0
 23 18  1  1  0  0  0
 23 24  1  0  0  0  0
 23 28  1  0  0  0  0
 24 25  1  6  0  0  0
 24 26  1  0  0  0  0
 26 27  1  0  0  0  0
 26 38  1  6  0  0  0
 27 28  1  0  0  0  0
 27 29  1  1  0  0  0
 29 30  1  0  0  0  0
 31 32  1  1  0  0  0
 31 33  1  0  0  0  0
 31 39  1  0  0  0  0
 33 34  1  6  0  0  0
 33 35  1  0  0  0  0
 35 36  1  1  0  0  0
 35 37  1  0  0  0  0
 37 38  1  1  0  0  0
 37 40  1  0  0  0  0
 39 40  1  0  0  0  0
 39 41  1  1  0  0  0
 41 42  1  0  0  0  0
M  CHG  5   4   1  14   1  21   1  36   1  42   1
M  END
>  <CHROM.1>
-179.96265529,82.97410022,39.33675468,-58.92768956,81.25571527,76.36556966
-171.22702734,-52.06909764,-54.40744358,61.49380381,-109.50770714,91.92708859
-177.25352419,-81.29706459,-40.84161906,-63.68027856,-54.02622480,-47.94545139
-32.14348648,-146.16558553,-57.01513368,56.78708329,2.64097651,3.35042256
36.01557061,-2.30298341,-0.42357637,2.50105267

>  <Name>
1pbr

>  <RI>
0

>  <Rbt.Current_Directory>
/home/itssahil/PROJECTS/Mol_Feturizer/New_Systems/rnas/1pbr

>  <Rbt.Executable>
rbdock ($Id: //depot/dev/client3/rdock/2013.1/src/exe/rbdock.cxx#4 $)

>  <Rbt.Library>
libRbt.so (2013.1, Build901 2013/11/27)

>  <Rbt.Parameter_File>
/export/apps/rDock/src/rDock_2013.1_src/data/scripts/dock_solv.prm

>  <Rbt.Receptor>
prm/blind_docking_80.prm

>  <SCORE>
-33.9609

>  <SCORE.INTER>
-40.0901

>  <SCORE.INTER.CONST>
1

>  <SCORE.INTER.POLAR>
-5.31957

>  <SCORE.INTER.ROT>
9

>  <SCORE.INTER.SOLV>
35.6583

>  <SCORE.INTER.VDW>
-30.4809

>  <SCORE.INTER.norm>
-0.954525

>  <SCORE.INTRA>
4.1018

>  <SCORE.INTRA.DIHEDRAL>
-3.66997

>  <SCORE.INTRA.DIHEDRAL.0>
29.7866

>  <SCORE.INTRA.POLAR>
-0.902316

>  <SCORE.INTRA.POLAR.0>
-0.984091

>  <SCORE.INTRA.REPUL>
-0.122253

>  <SCORE.INTRA.REPUL.0>
0.274115

>  <SCORE.INTRA.SOLV>
6.5137

>  <SCORE.INTRA.SOLV.lig_0>
-152.978

>  <SCORE.INTRA.VDW>
6.35907

>  <SCORE.INTRA.VDW.0>
-6.10719

>  <SCORE.INTRA.norm>
0.0976619

>  <SCORE.RESTR>
2.02738

>  <SCORE.RESTR.CAVITY>
2.02738

>  <SCORE.RESTR.norm>
0.048271

>  <SCORE.SYSTEM>
0

>  <SCORE.SYSTEM.CONST>
0

>  <SCORE.SYSTEM.DIHEDRAL>
0

>  <SCORE.SYSTEM.SOLV>
0

>  <SCORE.SYSTEM.norm>
0

>  <SCORE.heavy>
42

>  <SCORE.norm>
-0.808592

>  <RMSD>
9.926

$$$$
1pbr
 OpenBabel11021811403D
libRbt.so/2013.1/901 2013/11/27
 42 45  0  0  0  0  0  0  0  0999 V2000
    0.1169    4.9590   35.9263 C   0  0  2  0  0  0  0  0  0  0  0  0
   -0.0323    5.0534   34.4869 O   0  0  0  0  0  0  0  0  0  0  0  0
   -1.0277    4.0766   36.5505 C   0  0  2  0  0  0  0  0  0  0  0  0
   -1.3637    2.8591   35.7674 N   0  3  0  0  0  0  0  0  0  0  0  0
   -2.3396    4.8703   36.6974 C   0  0  1  0  0  0  0  0  0  0  0  0
   -3.2779    4.1536   37.4968 O   0  0  0  0  0  0  0  0  0  0  0  0
   -2.0831    6.2493   37.3239 C   0  0  2  0  0  0  0  0  0  0  0  0
   -3.3113    6.9503   37.4919 O   0  0  0  0  0  0  0  0  0  0  0  0
   -1.0558    7.0467   36.4901 C   0  0  2  0  0  0  0  0  0  0  0  0
    0.1740    6.2913   36.5068 O   0  0  0  0  0  0  0  0  0  0  0  0
   -0.7566    8.4433   37.0324 C   0  0  0  0  0  0  0  0  0  0  0  0
   -1.3478    8.6372   38.3105 O   0  0  0  0  0  0  0  0  0  0  0  0
    2.5221    4.6524   31.0924 C   0  0  1  0  0  0  0  0  0  0  0  0
    3.6143    4.7075   30.1035 N   0  3  0  0  0  0  0  0  0  0  0  0
    2.9133    3.8327   32.3592 C   0  0  2  0  0  0  0  0  0  0  0  0
    3.2598    2.4972   32.0004 O   0  0  0  0  0  0  0  0  0  0  0  0
    1.7406    3.7784   33.3817 C   0  0  1  0  0  0  0  0  0  0  0  0
    2.2199    3.1501   34.6075 O   0  0  0  0  0  0  0  0  0  0  0  0
    1.1815    5.2010   33.7112 C   0  0  1  0  0  0  0  0  0  0  0  0
    0.8449    6.0319   32.4318 C   0  0  1  0  0  0  0  0  0  0  0  0
    0.4133    7.4056   32.7726 N   0  3  0  0  0  0  0  0  0  0  0  0
    2.0678    6.0900   31.4801 C   0  0  0  0  0  0  0  0  0  0  0  0
    1.5134    1.9942   35.1613 C   0  0  1  0  0  0  0  0  0  0  0  0
    2.5509    0.9332   35.5736 C   0  0  2  0  0  0  0  0  0  0  0  0
    1.9796   -0.3721   35.5644 O   0  0  0  0  0  0  0  0  0  0  0  0
    2.8489    1.4279   36.9971 C   0  0  1  0  0  0  0  0  0  0  0  0
    1.4628    1.7657   37.5206 C   0  0  2  0  0  0  0  0  0  0  0  0
    0.8478    2.3542   36.3848 O   0  0  0  0  0  0  0  0  0  0  0  0
    1.4314    2.7374   38.7074 C   0  0  0  0  0  0  0  0  0  0  0  0
    2.3182    2.2939   39.7239 O   0  0  0  0  0  0  0  0  0  0  0  0
    7.1877   -1.6827   37.1514 C   0  0  1  0  0  0  0  0  0  0  0  0
    6.6799   -2.9511   37.5612 O   0  0  0  0  0  0  0  0  0  0  0  0
    6.4079   -1.1958   35.8982 C   0  0  2  0  0  0  0  0  0  0  0  0
    7.1476   -0.1427   35.2847 O   0  0  0  0  0  0  0  0  0  0  0  0
    4.9508   -0.6961   36.1681 C   0  0  1  0  0  0  0  0  0  0  0  0
    4.0089   -1.8371   36.1759 N   0  3  0  0  0  0  0  0  0  0  0  0
    4.8639    0.1629   37.4570 C   0  0  1  0  0  0  0  0  0  0  0  0
    3.5101    0.4716   37.8706 O   0  0  0  0  0  0  0  0  0  0  0  0
    7.0376   -0.6489   38.2957 C   0  0  1  0  0  0  0  0  0  0  0  0
    5.6166   -0.4705   38.5459 O   0  0  0  0  0  0  0  0  0  0  0  0
    7.7802   -1.0375   39.5879 C   0  0  0  0  0  0  0  0  0  0  0  0
    9.2444   -1.0907   39.4099 N   0  3  0  0  0  0  0  0  0  0  0  0
  1  2  1  6  0  0  0
  1  3  1  0  0  0  0
  1 10  1  0  0  0  0
  3  4  1  6  0  0  0
  3  5  1  0  0  0  0
  5  6  1  1  0  0  0
  5  7  1  0  0  0  0
  7  8  1  6  0  0  0
  7  9  1  0  0  0  0
  9 10  1  0  0  0  0
  9 11  1  1  0  0  0
 11 12  1  0  0  0  0
 13 14  1  6  0  0  0
 13 15  1  0  0  0  0
 13 22  1  0  0  0  0
 15 16  1  6  0  0  0
 15 17  1  0  0  0  0
 17 18  1  1  0  0  0
 17 19  1  0  0  0  0
 19  2  1  1  0  0  0
 19 20  1  0  0  0  0
 20 21  1  1  0  0  0
 20 22  1  0  0  0  0
 23 18  1  1  0  0  0
 23 24  1  0  0  0  0
 23 28  1  0  0  0  0
 24 25  1  1  0  0  0
 24 26  1  0  0  0  0
 26 27  1  0  0  0  0
 26 38  1  1  0  0  0
 27 28  1  0  0  0  0
 27 29  1  1  0  0  0
 29 30  1  0  0  0  0
 31 32  1  1  0  0  0
 31 33  1  0  0  0  0
 31 39  1  0  0  0  0
 33 34  1  1  0  0  0
 33 35  1  0  0  0  0
 35 36  1  1  0  0  0
 35 37  1  0  0  0  0
 37 38  1  1  0  0  0
 37 40  1  0  0  0  0
 39 40  1  0  0  0  0
 39 41  1  1  0  0  0
 41 42  1  0  0  0  0
M  CHG  5   4   1  14   1  21   1  36   1  42   1
M  END
>  <CHROM.1>
-149.49530367,87.86780628,-152.32123448,-161.16427559,-170.46135397,8.63572457
113.30290250,71.55469951,-171.90377223,-125.79682127,135.28637751,-68.70501252
-43.58446723,67.11811442,-50.66777929,-55.14561872,-174.29622427,-49.14353358
-141.91093818,-71.25634562,64.33306313,80.12951274,2.23520159,2.81520976
35.95597778,2.68351079,0.69152384,-1.17970944

>  <Name>
1pbr

>  <RI>
0

>  <Rbt.Current_Directory>
/home/itssahil/PROJECTS/Mol_Feturizer/New_Systems/rnas/1pbr

>  <Rbt.Executable>
rbdock ($Id: //depot/dev/client3/rdock/2013.1/src/exe/rbdock.cxx#4 $)

>  <Rbt.Library>
libRbt.so (2013.1, Build901 2013/11/27)

>  <Rbt.Parameter_File>
/export/apps/rDock/src/rDock_2013.1_src/data/scripts/dock_solv.prm

>  <Rbt.Receptor>
prm/blind_docking_80.prm

>  <SCORE>
32.1998

>  <SCORE.INTER>
17.0602

>  <SCORE.INTER.CONST>
1

>  <SCORE.INTER.POLAR>
-2.98858

>  <SCORE.INTER.ROT>
9

>  <SCORE.INTER.SOLV>
29.4188

>  <SCORE.INTER.VDW>
1.92912

>  <SCORE.INTER.norm>
0.406196

>  <SCORE.INTRA>
10.0307

>  <SCORE.INTRA.DIHEDRAL>
13.87

>  <SCORE.INTRA.DIHEDRAL.0>
29.7866

>  <SCORE.INTRA.POLAR>
-1.31036

>  <SCORE.INTRA.POLAR.0>
-0.984091

>  <SCORE.INTRA.REPUL>
-0.274115

>  <SCORE.INTRA.REPUL.0>
0.274115

>  <SCORE.INTRA.SOLV>
5.4945

>  <SCORE.INTRA.SOLV.lig_0>
-152.978

>  <SCORE.INTRA.VDW>
6.17421

>  <SCORE.INTRA.VDW.0>
-6.10719

>  <SCORE.INTRA.norm>
0.238826

>  <SCORE.RESTR>
5.10893

>  <SCORE.RESTR.CAVITY>
5.10893

>  <SCORE.RESTR.norm>
0.121641

>  <SCORE.SYSTEM>
0

>  <SCORE.SYSTEM.CONST>
0

>  <SCORE.SYSTEM.DIHEDRAL>
0

>  <SCORE.SYSTEM.SOLV>
0

>  <SCORE.SYSTEM.norm>
0

>  <SCORE.heavy>
42

>  <SCORE.norm>
0.766663

>  <RMSD>
9.937

$$$$
1pbr
 OpenBabel11021811403D
libRbt.so/2013.1/901 2013/11/27
 42 45  0  0  0  0  0  0  0  0999 V2000
   -0.9633    3.9317   36.7341 C   0  0  2  0  0  0  0  0  0  0  0  0
   -1.0152    3.8741   35.2859 O   0  0  0  0  0  0  0  0  0  0  0  0
   -2.3729    3.6114   37.3574 C   0  0  2  0  0  0  0  0  0  0  0  0
   -3.1015    2.4989   36.6942 N   0  3  0  0  0  0  0  0  0  0  0  0
   -3.3088    4.8335   37.3015 C   0  0  1  0  0  0  0  0  0  0  0  0
   -4.4724    4.6166   38.0967 O   0  0  0  0  0  0  0  0  0  0  0  0
   -2.5894    6.1019   37.7846 C   0  0  2  0  0  0  0  0  0  0  0  0
   -3.4820    7.2115   37.7673 O   0  0  0  0  0  0  0  0  0  0  0  0
   -1.3123    6.3569   36.9537 C   0  0  2  0  0  0  0  0  0  0  0  0
   -0.4447    5.2220   37.1603 O   0  0  0  0  0  0  0  0  0  0  0  0
   -0.5436    7.6147   37.3549 C   0  0  0  0  0  0  0  0  0  0  0  0
    0.3628    8.0119   36.3346 O   0  0  0  0  0  0  0  0  0  0  0  0
    0.6111    5.8786   31.8881 C   0  0  1  0  0  0  0  0  0  0  0  0
    1.2298    6.8207   30.9375 N   0  3  0  0  0  0  0  0  0  0  0  0
    1.6335    5.3375   32.9330 C   0  0  2  0  0  0  0  0  0  0  0  0
    2.7089    4.6696   32.2772 O   0  0  0  0  0  0  0  0  0  0  0  0
    0.9601    4.3361   33.9165 C   0  0  1  0  0  0  0  0  0  0  0  0
    1.9159    3.9989   34.9652 O   0  0  0  0  0  0  0  0  0  0  0  0
   -0.3342    4.9284   34.5640 C   0  0  1  0  0  0  0  0  0  0  0  0
   -1.3255    5.5166   33.5094 C   0  0  1  0  0  0  0  0  0  0  0  0
   -2.4916    6.1576   34.1565 N   0  3  0  0  0  0  0  0  0  0  0  0
   -0.6063    6.5424   32.5956 C   0  0  0  0  0  0  0  0  0  0  0  0
    2.9975    3.0517   34.6918 C   0  0  1  0  0  0  0  0  0  0  0  0
    3.6683    2.6708   36.0248 C   0  0  2  0  0  0  0  0  0  0  0  0
    5.0156    2.2550   35.8196 O   0  0  0  0  0  0  0  0  0  0  0  0
    2.7546    1.5042   36.4297 C   0  0  1  0  0  0  0  0  0  0  0  0
    2.5810    0.7569   35.1178 C   0  0  2  0  0  0  0  0  0  0  0  0
    2.4638    1.8171   34.1814 O   0  0  0  0  0  0  0  0  0  0  0  0
    1.3514   -0.1576   35.0444 C   0  0  0  0  0  0  0  0  0  0  0  0
    0.2738    0.5239   34.4194 O   0  0  0  0  0  0  0  0  0  0  0  0
    6.7265   -1.9845   37.3700 C   0  0  1  0  0  0  0  0  0  0  0  0
    6.1396   -3.0073   38.1726 O   0  0  0  0  0  0  0  0  0  0  0  0
    5.9239   -1.8438   36.0465 C   0  0  2  0  0  0  0  0  0  0  0  0
    6.7133   -1.1101   35.1132 O   0  0  0  0  0  0  0  0  0  0  0  0
    4.5284   -1.1505   36.1797 C   0  0  1  0  0  0  0  0  0  0  0  0
    3.4987   -2.1380   36.5714 N   0  3  0  0  0  0  0  0  0  0  0  0
    4.5797    0.0732   37.1320 C   0  0  1  0  0  0  0  0  0  0  0  0
    3.2792    0.6214   37.4593 O   0  0  0  0  0  0  0  0  0  0  0  0
    6.7215   -0.6350   38.1313 C   0  0  1  0  0  0  0  0  0  0  0  0
    5.3348   -0.2548   38.3467 O   0  0  0  0  0  0  0  0  0  0  0  0
    7.4971   -0.6672   39.4615 C   0  0  0  0  0  0  0  0  0  0  0  0
    8.9495   -0.8475   39.2703 N   0  3  0  0  0  0  0  0  0  0  0  0
  1  2  1  6  0  0  0
  1  3  1  0  0  0  0
  1 10  1  0  0  0  0
  3  4  1  6  0  0  0
  3  5  1  0  0  0  0
  5  6  1  1  0  0  0
  5  7  1  0  0  0  0
  7  8  1  6  0  0  0
  7  9  1  0  0  0  0
  9 10  1  0  0  0  0
  9 11  1  1  0  0  0
 11 12  1  0  0  0  0
 13 14  1  6  0  0  0
 13 15  1  0  0  0  0
 13 22  1  0  0  0  0
 15 16  1  6  0  0  0
 15 17  1  0  0  0  0
 17 18  1  1  0  0  0
 17 19  1  0  0  0  0
 19  2  1  6  0  0  0
 19 20  1  0  0  0  0
 20 21  1  1  0  0  0
 20 22  1  0  0  0  0
 23 18  1  1  0  0  0
 23 24  1  0  0  0  0
 23 28  1  0  0  0  0
 24 25  1  6  0  0  0
 24 26  1  0  0  0  0
 26 27  1  0  0  0  0
 26 38  1  1  0  0  0
 27 28  1  0  0  0  0
 27 29  1  1  0  0  0
 29 30  1  0  0  0  0
 31 32  1  1  0  0  0
 31 33  1  0  0  0  0
 31 39  1  0  0  0  0
 33 34  1  6  0  0  0
 33 35  1  0  0  0  0
 35 36  1  1  0  0  0
 35 37  1  0  0  0  0
 37 38  1  1  0  0  0
 37 40  1  0  0  0  0
 39 40  1  0  0  0  0
 39 41  1  1  0  0  0
 41 42  1  0  0  0  0
M  CHG  5   4   1  14   1  21   1  36   1  42   1
M  END
>  <CHROM.1>
136.62934448,107.50789126,34.81012174,-56.39408137,-51.13569448,-162.51875199
-164.80133259,-66.62558344,-60.61583286,-77.25231402,-168.79621634,64.59882857
165.17282761,-54.89174465,95.70667080,-47.98304081,-74.24837170,94.81672250
67.66082244,-81.22772196,67.01129259,92.46478648,1.71465016,2.78886817,35.89748612
2.59340485,0.54110317,-0.95606288

>  <Name>
1pbr

>  <RI>
0

>  <Rbt.Current_Directory>
/home/itssahil/PROJECTS/Mol_Feturizer/New_Systems/rnas/1pbr

>  <Rbt.Executable>
rbdock ($Id: //depot/dev/client3/rdock/2013.1/src/exe/rbdock.cxx#4 $)

>  <Rbt.Library>
libRbt.so (2013.1, Build901 2013/11/27)

>  <Rbt.Parameter_File>
/export/apps/rDock/src/rDock_2013.1_src/data/scripts/dock_solv.prm

>  <Rbt.Receptor>
prm/blind_docking_40.prm

>  <SCORE>
32.3271

>  <SCORE.INTER>
18.791

>  <SCORE.INTER.CONST>
1

>  <SCORE.INTER.POLAR>
-3.45886

>  <SCORE.INTER.ROT>
9

>  <SCORE.INTER.SOLV>
39.4929

>  <SCORE.INTER.VDW>
1.29258

>  <SCORE.INTER.norm>
0.447405

>  <SCORE.INTRA>
10.4083

>  <SCORE.INTRA.DIHEDRAL>
4.42601

>  <SCORE.INTRA.DIHEDRAL.0>
29.7866

>  <SCORE.INTRA.POLAR>
0.962126

>  <SCORE.INTRA.POLAR.0>
-0.984091

>  <SCORE.INTRA.REPUL>
-0.118246

>  <SCORE.INTRA.REPUL.0>
0.274115

>  <SCORE.INTRA.SOLV>
4.49339

>  <SCORE.INTRA.SOLV.lig_0>
-152.978

>  <SCORE.INTRA.VDW>
3.26856

>  <SCORE.INTRA.VDW.0>
-6.10719

>  <SCORE.INTRA.norm>
0.247816

>  <SCORE.RESTR>
3.12788

>  <SCORE.RESTR.CAVITY>
3.12788

>  <SCORE.RESTR.norm>
0.0744732

>  <SCORE.SYSTEM>
0

>  <SCORE.SYSTEM.CONST>
0

>  <SCORE.SYSTEM.DIHEDRAL>
0

>  <SCORE.SYSTEM.SOLV>
0

>  <SCORE.SYSTEM.norm>
0

>  <SCORE.heavy>
42

>  <SCORE.norm>
0.769694

>  <RMSD>
9.977

$$$$
1pbr
 OpenBabel11021811403D
libRbt.so/2013.1/901 2013/11/27
 42 45  0  0  0  0  0  0  0  0999 V2000
   -0.3838    5.8020   34.3934 C   0  0  2  0  0  0  0  0  0  0  0  0
    0.9692    5.5878   34.8695 O   0  0  0  0  0  0  0  0  0  0  0  0
   -1.0775    6.9713   35.1870 C   0  0  2  0  0  0  0  0  0  0  0  0
   -0.2004    8.1413   35.4521 N   0  3  0  0  0  0  0  0  0  0  0  0
   -1.5917    6.4983   36.5598 C   0  0  1  0  0  0  0  0  0  0  0  0
   -2.4404    7.4813   37.1485 O   0  0  0  0  0  0  0  0  0  0  0  0
   -2.3565    5.1718   36.4354 C   0  0  2  0  0  0  0  0  0  0  0  0
   -2.8612    4.7730   37.7060 O   0  0  0  0  0  0  0  0  0  0  0  0
   -1.4695    4.0877   35.7841 C   0  0  2  0  0  0  0  0  0  0  0  0
   -1.1355    4.5587   34.4613 O   0  0  0  0  0  0  0  0  0  0  0  0
   -2.1470    2.7259   35.6405 C   0  0  0  0  0  0  0  0  0  0  0  0
   -2.4407    2.1602   36.9111 O   0  0  0  0  0  0  0  0  0  0  0  0
    2.5358    3.9143   31.2706 C   0  0  1  0  0  0  0  0  0  0  0  0
    3.3569    3.5070   30.1156 N   0  3  0  0  0  0  0  0  0  0  0  0
    3.0489    3.2971   32.6068 C   0  0  2  0  0  0  0  0  0  0  0  0
    3.0415    1.8733   32.5325 O   0  0  0  0  0  0  0  0  0  0  0  0
    2.1592    3.7310   33.8083 C   0  0  1  0  0  0  0  0  0  0  0  0
    2.7830    3.2662   35.0419 O   0  0  0  0  0  0  0  0  0  0  0  0
    1.9735    5.2823   33.8722 C   0  0  1  0  0  0  0  0  0  0  0  0
    1.5117    5.8947   32.5112 C   0  0  1  0  0  0  0  0  0  0  0  0
    1.4409    7.3713   32.5747 N   0  3  0  0  0  0  0  0  0  0  0  0
    2.4666    5.4665   31.3670 C   0  0  0  0  0  0  0  0  0  0  0  0
    2.1569    3.5566   36.3324 C   0  0  1  0  0  0  0  0  0  0  0  0
    1.3196    2.3366   36.7600 C   0  0  2  0  0  0  0  0  0  0  0  0
    0.2679    2.7209   37.6411 O   0  0  0  0  0  0  0  0  0  0  0  0
    2.4145    1.5321   37.4768 C   0  0  1  0  0  0  0  0  0  0  0  0
    3.1414    2.6065   38.2687 C   0  0  2  0  0  0  0  0  0  0  0  0
    3.1594    3.6926   37.3552 O   0  0  0  0  0  0  0  0  0  0  0  0
    4.5697    2.2475   38.6986 C   0  0  0  0  0  0  0  0  0  0  0  0
    4.5900    0.9586   39.2940 O   0  0  0  0  0  0  0  0  0  0  0  0
    4.4650   -2.9336   37.5075 C   0  0  1  0  0  0  0  0  0  0  0  0
    5.6489   -2.3635   38.0627 O   0  0  0  0  0  0  0  0  0  0  0  0
    3.4043   -3.1127   38.6293 C   0  0  2  0  0  0  0  0  0  0  0  0
    2.3952   -4.0045   38.1612 O   0  0  0  0  0  0  0  0  0  0  0  0
    2.7216   -1.7949   39.1224 C   0  0  1  0  0  0  0  0  0  0  0  0
    3.5503   -1.1437   40.1608 N   0  3  0  0  0  0  0  0  0  0  0  0
    2.3798   -0.8453   37.9442 C   0  0  1  0  0  0  0  0  0  0  0  0
    1.9445    0.4737   38.3563 O   0  0  0  0  0  0  0  0  0  0  0  0
    3.8991   -2.0176   36.3934 C   0  0  1  0  0  0  0  0  0  0  0  0
    3.5092   -0.7605   37.0111 O   0  0  0  0  0  0  0  0  0  0  0  0
    4.8762   -1.7787   35.2271 C   0  0  0  0  0  0  0  0  0  0  0  0
    6.0520   -2.6695   35.2769 N   0  3  0  0  0  0  0  0  0  0  0  0
  1  2  1  1  0  0  0
  1  3  1  0  0  0  0
  1 10  1  0  0  0  0
  3  4  1  1  0  0  0
  3  5  1  0  0  0  0
  5  6  1  6  0  0  0
  5  7  1  0  0  0  0
  7  8  1  1  0  0  0
  7  9  1  0  0  0  0
  9 10  1  0  0  0  0
  9 11  1  6  0  0  0
 11 12  1  0  0  0  0
 13 14  1  6  0  0  0
 13 15  1  0  0  0  0
 13 22  1  0  0  0  0
 15 16  1  6  0  0  0
 15 17  1  0  0  0  0
 17 18  1  1  0  0  0
 17 19  1  0  0  0  0
 19  2  1  1  0  0  0
 19 20  1  0  0  0  0
 20 21  1  1  0  0  0
 20 22  1  0  0  0  0
 23 18  1  6  0  0  0
 23 24  1  0  0  0  0
 23 28  1  0  0  0  0
 24 25  1  1  0  0  0
 24 26  1  0  0  0  0
 26 27  1  0  0  0  0
 26 38  1  1  0  0  0
 27 28  1  0  0  0  0
 27 29  1  6  0  0  0
 29 30  1  0  0  0  0
 31 32  1  1  0  0  0
 31 33  1  0  0  0  0
 31 39  1  0  0  0  0
 33 34  1  6  0  0  0
 33 35  1  0  0  0  0
 35 36  1  1  0  0  0
 35 37  1  0  0  0  0
 37 38  1  1  0  0  0
 37 40  1  0  0  0  0
 39 40  1  0  0  0  0
 39 41  1  6  0  0  0
 41 42  1  0  0  0  0
M  CHG  5   4   1  14   1  21   1  36   1  42   1
M  END
>  <CHROM.1>
-141.10609131,-96.74307793,-37.32253210,62.95979457,64.46893223,-64.56748501
-56.41072529,20.90983463,-70.52236210,179.24802861,96.62540053,47.48941643
-60.17644025,117.90114117,-48.55115165,75.90416514,61.12297421,-68.46546740
-84.58832551,143.32095136,10.92103907,47.85894224,1.76115626,2.47008056,35.97641180
2.23209196,0.73739230,-0.87905143

>  <Name>
1pbr

>  <RI>
0

>  <Rbt.Current_Directory>
/home/itssahil/PROJECTS/Mol_Feturizer/New_Systems/rnas/1pbr

>  <Rbt.Executable>
rbdock ($Id: //depot/dev/client3/rdock/2013.1/src/exe/rbdock.cxx#4 $)

>  <Rbt.Library>
libRbt.so (2013.1, Build901 2013/11/27)

>  <Rbt.Parameter_File>
/export/apps/rDock/src/rDock_2013.1_src/data/scripts/dock_solv.prm

>  <Rbt.Receptor>
prm/blind_docking_80.prm

>  <SCORE>
18.6669

>  <SCORE.INTER>
7.49146

>  <SCORE.INTER.CONST>
1

>  <SCORE.INTER.POLAR>
-3.18936

>  <SCORE.INTER.ROT>
9

>  <SCORE.INTER.SOLV>
33.528

>  <SCORE.INTER.VDW>
-5.15049

>  <SCORE.INTER.norm>
0.178368

>  <SCORE.INTRA>
7.78779

>  <SCORE.INTRA.DIHEDRAL>
11.1411

>  <SCORE.INTRA.DIHEDRAL.0>
29.7866

>  <SCORE.INTRA.POLAR>
-1.75002

>  <SCORE.INTRA.POLAR.0>
-0.984091

>  <SCORE.INTRA.REPUL>
-0.274115

>  <SCORE.INTRA.REPUL.0>
0.274115

>  <SCORE.INTRA.SOLV>
9.20594

>  <SCORE.INTRA.SOLV.lig_0>
-152.978

>  <SCORE.INTRA.VDW>
4.93489

>  <SCORE.INTRA.VDW.0>
-6.10719

>  <SCORE.INTRA.norm>
0.185423

>  <SCORE.RESTR>
3.38764

>  <SCORE.RESTR.CAVITY>
3.38764

>  <SCORE.RESTR.norm>
0.0806581

>  <SCORE.SYSTEM>
0

>  <SCORE.SYSTEM.CONST>
0

>  <SCORE.SYSTEM.DIHEDRAL>
0

>  <SCORE.SYSTEM.SOLV>
0

>  <SCORE.SYSTEM.norm>
0

>  <SCORE.heavy>
42

>  <SCORE.norm>
0.44445

>  <RMSD>
9.977

$$$$
1pbr
 OpenBabel11021811403D
libRbt.so/2013.1/901 2013/11/27
 42 45  0  0  0  0  0  0  0  0999 V2000
    1.0873    5.7232   36.3886 C   0  0  2  0  0  0  0  0  0  0  0  0
    0.7905    5.1014   35.1125 O   0  0  0  0  0  0  0  0  0  0  0  0
    0.0624    5.2581   37.4893 C   0  0  2  0  0  0  0  0  0  0  0  0
   -0.2804    3.8130   37.4408 N   0  3  0  0  0  0  0  0  0  0  0  0
   -1.2711    6.0214   37.3813 C   0  0  1  0  0  0  0  0  0  0  0  0
   -2.0830    5.7867   38.5298 O   0  0  0  0  0  0  0  0  0  0  0  0
   -1.0320    7.5307   37.2249 C   0  0  2  0  0  0  0  0  0  0  0  0
   -2.2750    8.2236   37.1706 O   0  0  0  0  0  0  0  0  0  0  0  0
   -0.1396    7.8191   35.9973 C   0  0  2  0  0  0  0  0  0  0  0  0
    1.1265    7.1693   36.2379 O   0  0  0  0  0  0  0  0  0  0  0  0
    0.1327    9.3027   35.7544 C   0  0  0  0  0  0  0  0  0  0  0  0
    0.1516    9.6022   34.3650 O   0  0  0  0  0  0  0  0  0  0  0  0
    2.7247    4.0278   31.4637 C   0  0  1  0  0  0  0  0  0  0  0  0
    3.6652    3.7945   30.3524 N   0  3  0  0  0  0  0  0  0  0  0  0
    3.0564    3.1541   32.7112 C   0  0  2  0  0  0  0  0  0  0  0  0
    3.0159    1.7694   32.3740 O   0  0  0  0  0  0  0  0  0  0  0  0
    2.0430    3.4086   33.8652 C   0  0  1  0  0  0  0  0  0  0  0  0
    2.5014    2.6975   35.0532 O   0  0  0  0  0  0  0  0  0  0  0  0
    1.8970    4.9303   34.1945 C   0  0  1  0  0  0  0  0  0  0  0  0
    1.6190    5.8011   32.9276 C   0  0  1  0  0  0  0  0  0  0  0  0
    1.5849    7.2437   33.2553 N   0  3  0  0  0  0  0  0  0  0  0  0
    2.6904    5.5386   31.8378 C   0  0  0  0  0  0  0  0  0  0  0  0
    3.8962    2.8117   35.4812 C   0  0  1  0  0  0  0  0  0  0  0  0
    3.9254    3.2865   36.9461 C   0  0  2  0  0  0  0  0  0  0  0  0
    5.1467    3.9577   37.2425 O   0  0  0  0  0  0  0  0  0  0  0  0
    3.8274    1.9214   37.6438 C   0  0  1  0  0  0  0  0  0  0  0  0
    4.7793    1.0676   36.8226 C   0  0  2  0  0  0  0  0  0  0  0  0
    4.5209    1.5160   35.5009 O   0  0  0  0  0  0  0  0  0  0  0  0
    4.5535   -0.4463   36.9258 C   0  0  0  0  0  0  0  0  0  0  0  0
    5.8009   -1.1219   36.9893 O   0  0  0  0  0  0  0  0  0  0  0  0
    2.4539   -0.3393   42.3037 C   0  0  1  0  0  0  0  0  0  0  0  0
    2.5358    0.7214   43.2539 O   0  0  0  0  0  0  0  0  0  0  0  0
    1.4986    0.0750   41.1498 C   0  0  2  0  0  0  0  0  0  0  0  0
    1.1331   -1.0948   40.4215 O   0  0  0  0  0  0  0  0  0  0  0  0
    2.0744    1.1307   40.1499 C   0  0  1  0  0  0  0  0  0  0  0  0
    1.8635    2.4999   40.6695 N   0  3  0  0  0  0  0  0  0  0  0  0
    3.5578    0.8441   39.7976 C   0  0  1  0  0  0  0  0  0  0  0  0
    4.2021    1.9040   39.0488 O   0  0  0  0  0  0  0  0  0  0  0  0
    3.8583   -0.6578   41.7319 C   0  0  1  0  0  0  0  0  0  0  0  0
    4.3177    0.5174   41.0096 O   0  0  0  0  0  0  0  0  0  0  0  0
    4.8835   -1.0845   42.7991 C   0  0  0  0  0  0  0  0  0  0  0  0
    4.8015   -0.2690   44.0266 N   0  3  0  0  0  0  0  0  0  0  0  0
  1  2  1  6  0  0  0
  1  3  1  0  0  0  0
  1 10  1  0  0  0  0
  3  4  1  6  0  0  0
  3  5  1  0  0  0  0
  5  6  1  1  0  0  0
  5  7  1  0  0  0  0
  7  8  1  6  0  0  0
  7  9  1  0  0  0  0
  9 10  1  0  0  0  0
  9 11  1  1  0  0  0
 11 12  1  0  0  0  0
 13 14  1  6  0  0  0
 13 15  1  0  0  0  0
 13 22  1  0  0  0  0
 15 16  1  6  0  0  0
 15 17  1  0  0  0  0
 17 18  1  1  0  0  0
 17 19  1  0  0  0  0
 19  2  1  1  0  0  0
 19 20  1  0  0  0  0
 20 21  1  1  0  0  0
 20 22  1  0  0  0  0
 23 18  1  1  0  0  0
 23 24  1  0  0  0  0
 23 28  1  0  0  0  0
 24 25  1  1  0  0  0
 24 26  1  0  0  0  0
 26 27  1  0  0  0  0
 26 38  1  1  0  0  0
 27 28  1  0  0  0  0
 27 29  1  6  0  0  0
 29 30  1  0  0  0  0
 31 32  1  1  0  0  0
 31 33  1  0  0  0  0
 31 39  1  0  0  0  0
 33 34  1  6  0  0  0
 33 35  1  0  0  0  0
 35 36  1  1  0  0  0
 35 37  1  0  0  0  0
 37 38  1  1  0  0  0
 37 40  1  0  0  0  0
 39 40  1  0  0  0  0
 39 41  1  1  0  0  0
 41 42  1  0  0  0  0
M  CHG  5   4   1  14   1  21   1  36   1  42   1
M  END
>  <CHROM.1>
-153.36884203,121.27726186,-160.54480295,-162.19724010,76.05924826,-142.58457871
-105.61872428,50.07621696,-168.47891909,47.87786517,124.97313001,178.21876048
49.25919281,153.68173670,-139.60254840,73.26852245,64.82884555,74.91584391
-33.06442724,-76.95360115,-41.97929529,-90.26055065,2.24981515,3.36120635
37.10016517,2.00161796,0.86555882,-1.15863895

>  <Name>
1pbr

>  <RI>
0

>  <Rbt.Current_Directory>
/home/itssahil/PROJECTS/Mol_Feturizer/New_Systems/rnas/1pbr

>  <Rbt.Executable>
rbdock ($Id: //depot/dev/client3/rdock/2013.1/src/exe/rbdock.cxx#4 $)

>  <Rbt.Library>
libRbt.so (2013.1, Build901 2013/11/27)

>  <Rbt.Parameter_File>
/export/apps/rDock/src/rDock_2013.1_src/data/scripts/dock_solv.prm

>  <Rbt.Receptor>
prm/blind_docking_80.prm

>  <SCORE>
13.52

>  <SCORE.INTER>
-6.14563

>  <SCORE.INTER.CONST>
1

>  <SCORE.INTER.POLAR>
-5.80744

>  <SCORE.INTER.ROT>
9

>  <SCORE.INTER.SOLV>
34.7207

>  <SCORE.INTER.VDW>
-5.91253

>  <SCORE.INTER.norm>
-0.146324

>  <SCORE.INTRA>
12.3497

>  <SCORE.INTRA.DIHEDRAL>
17.7954

>  <SCORE.INTRA.DIHEDRAL.0>
29.7866

>  <SCORE.INTRA.POLAR>
0.163879

>  <SCORE.INTRA.POLAR.0>
-0.984091

>  <SCORE.INTRA.REPUL>
-0.211693

>  <SCORE.INTRA.REPUL.0>
0.274115

>  <SCORE.INTRA.SOLV>
6.23768

>  <SCORE.INTRA.SOLV.lig_0>
-152.978

>  <SCORE.INTRA.VDW>
0.834497

>  <SCORE.INTRA.VDW.0>
-6.10719

>  <SCORE.INTRA.norm>
0.294041

>  <SCORE.RESTR>
7.31591

>  <SCORE.RESTR.CAVITY>
7.31591

>  <SCORE.RESTR.norm>
0.174188

>  <SCORE.SYSTEM>
0

>  <SCORE.SYSTEM.CONST>
0

>  <SCORE.SYSTEM.DIHEDRAL>
0

>  <SCORE.SYSTEM.SOLV>
0

>  <SCORE.SYSTEM.norm>
0

>  <SCORE.heavy>
42

>  <SCORE.norm>
0.321905

>  <RMSD>
9.986

$$$$
1pbr
 OpenBabel11021811403D
libRbt.so/2013.1/901 2013/11/27
 42 45  0  0  0  0  0  0  0  0999 V2000
    0.8786    7.5974   36.0102 C   0  0  2  0  0  0  0  0  0  0  0  0
   -0.3345    7.0549   36.5910 O   0  0  0  0  0  0  0  0  0  0  0  0
    0.6120    9.0158   35.3816 C   0  0  2  0  0  0  0  0  0  0  0  0
   -0.2672    9.8951   36.1953 N   0  3  0  0  0  0  0  0  0  0  0  0
   -0.0513    8.9065   33.9957 C   0  0  1  0  0  0  0  0  0  0  0  0
   -0.0446   10.1678   33.3306 O   0  0  0  0  0  0  0  0  0  0  0  0
    0.6639    7.8648   33.1222 C   0  0  2  0  0  0  0  0  0  0  0  0
    0.0648    7.8091   31.8314 O   0  0  0  0  0  0  0  0  0  0  0  0
    0.6897    6.4881   33.8226 C   0  0  2  0  0  0  0  0  0  0  0  0
    1.4316    6.6560   35.0492 O   0  0  0  0  0  0  0  0  0  0  0  0
    1.3666    5.3844   33.0117 C   0  0  0  0  0  0  0  0  0  0  0  0
    2.5281    5.8691   32.3510 O   0  0  0  0  0  0  0  0  0  0  0  0
   -2.0292    3.2348   37.4526 C   0  0  1  0  0  0  0  0  0  0  0  0
   -2.4458    1.8206   37.4712 N   0  3  0  0  0  0  0  0  0  0  0  0
   -0.5095    3.4067   37.7539 C   0  0  2  0  0  0  0  0  0  0  0  0
   -0.1913    2.8633   39.0330 O   0  0  0  0  0  0  0  0  0  0  0  0
   -0.0970    4.9077   37.7413 C   0  0  1  0  0  0  0  0  0  0  0  0
    1.3542    4.9932   37.8586 O   0  0  0  0  0  0  0  0  0  0  0  0
   -0.5563    5.6327   36.4341 C   0  0  1  0  0  0  0  0  0  0  0  0
   -2.0688    5.4070   36.1147 C   0  0  1  0  0  0  0  0  0  0  0  0
   -2.4499    6.0205   34.8233 N   0  3  0  0  0  0  0  0  0  0  0  0
   -2.4029    3.8930   36.0922 C   0  0  0  0  0  0  0  0  0  0  0  0
    2.2070    4.4267   36.8128 C   0  0  1  0  0  0  0  0  0  0  0  0
    3.5555    4.0257   37.4395 C   0  0  2  0  0  0  0  0  0  0  0  0
    4.5933    4.0236   36.4632 O   0  0  0  0  0  0  0  0  0  0  0  0
    3.1925    2.6078   37.9058 C   0  0  1  0  0  0  0  0  0  0  0  0
    2.4101    2.0663   36.7208 C   0  0  2  0  0  0  0  0  0  0  0  0
    1.6469    3.1953   36.3235 O   0  0  0  0  0  0  0  0  0  0  0  0
    1.4867    0.8818   37.0337 C   0  0  0  0  0  0  0  0  0  0  0  0
    1.0690    0.9345   38.3898 O   0  0  0  0  0  0  0  0  0  0  0  0
    4.7227   -2.2275   36.5550 C   0  0  1  0  0  0  0  0  0  0  0  0
    5.9898   -1.9863   35.9460 O   0  0  0  0  0  0  0  0  0  0  0  0
    4.8600   -2.1009   38.0979 C   0  0  2  0  0  0  0  0  0  0  0  0
    3.7165   -2.6975   38.7055 O   0  0  0  0  0  0  0  0  0  0  0  0
    5.0134   -0.6417   38.6393 C   0  0  1  0  0  0  0  0  0  0  0  0
    6.4308   -0.2205   38.5883 N   0  3  0  0  0  0  0  0  0  0  0  0
    4.0664    0.3477   37.9105 C   0  0  1  0  0  0  0  0  0  0  0  0
    4.3170    1.7408   38.2196 O   0  0  0  0  0  0  0  0  0  0  0  0
    3.6754   -1.2098   36.0372 C   0  0  1  0  0  0  0  0  0  0  0  0
    4.0992    0.1145   36.4621 O   0  0  0  0  0  0  0  0  0  0  0  0
    3.4611   -1.2572   34.5128 C   0  0  0  0  0  0  0  0  0  0  0  0
    2.6271   -0.1439   34.0194 N   0  3  0  0  0  0  0  0  0  0  0  0
  1  2  1  6  0  0  0
  1  3  1  0  0  0  0
  1 10  1  0  0  0  0
  3  4  1  1  0  0  0
  3  5  1  0  0  0  0
  5  6  1  6  0  0  0
  5  7  1  0  0  0  0
  7  8  1  6  0  0  0
  7  9  1  0  0  0  0
  9 10  1  0  0  0  0
  9 11  1  6  0  0  0
 11 12  1  0  0  0  0
 13 14  1  6  0  0  0
 13 15  1  0  0  0  0
 13 22  1  0  0  0  0
 15 16  1  1  0  0  0
 15 17  1  0  0  0  0
 17 18  1  6  0  0  0
 17 19  1  0  0  0  0
 19  2  1  1  0  0  0
 19 20  1  0  0  0  0
 20 21  1  6  0  0  0
 20 22  1  0  0  0  0
 23 18  1  1  0  0  0
 23 24  1  0  0  0  0
 23 28  1  0  0  0  0
 24 25  1  6  0  0  0
 24 26  1  0  0  0  0
 26 27  1  0  0  0  0
 26 38  1  6  0  0  0
 27 28  1  0  0  0  0
 27 29  1  1  0  0  0
 29 30  1  0  0  0  0
 31 32  1  6  0  0  0
 31 33  1  0  0  0  0
 31 39  1  0  0  0  0
 33 34  1  1  0  0  0
 33 35  1  0  0  0  0
 35 36  1  6  0  0  0
 35 37  1  0  0  0  0
 37 38  1  6  0  0  0
 37 40  1  0  0  0  0
 39 40  1  0  0  0  0
 39 41  1  6  0  0  0
 41 42  1  0  0  0  0
M  CHG  5   4   1  14   1  21   1  36   1  42   1
M  END
>  <CHROM.1>
141.80350349,98.01535473,-9.19575092,51.86534654,72.86206308,40.13366724
93.63381482,-5.82617518,76.16351184,62.99848725,-152.62454071,-51.13144670
56.28061278,-146.78436245,27.66558039,-64.09555301,67.87307836,59.51001476
-56.66154130,-160.88652105,-170.86712023,46.82172332,1.66268135,3.49309820
36.22471899,-2.09567305,-0.48252801,2.57761852

>  <Name>
1pbr

>  <RI>
0

>  <Rbt.Current_Directory>
/home/itssahil/PROJECTS/Mol_Feturizer/New_Systems/rnas/1pbr

>  <Rbt.Executable>
rbdock ($Id: //depot/dev/client3/rdock/2013.1/src/exe/rbdock.cxx#4 $)

>  <Rbt.Library>
libRbt.so (2013.1, Build901 2013/11/27)

>  <Rbt.Parameter_File>
/export/apps/rDock/src/rDock_2013.1_src/data/scripts/dock_solv.prm

>  <Rbt.Receptor>
prm/blind_docking_80.prm

>  <SCORE>
-19.4001

>  <SCORE.INTER>
-36.8556

>  <SCORE.INTER.CONST>
1

>  <SCORE.INTER.POLAR>
-7.40344

>  <SCORE.INTER.ROT>
9

>  <SCORE.INTER.SOLV>
38.8855

>  <SCORE.INTER.VDW>
-22.4541

>  <SCORE.INTER.norm>
-0.877515

>  <SCORE.INTRA>
15.4934

>  <SCORE.INTRA.DIHEDRAL>
8.93283

>  <SCORE.INTRA.DIHEDRAL.0>
29.7866

>  <SCORE.INTRA.POLAR>
0.299131

>  <SCORE.INTRA.POLAR.0>
-0.984091

>  <SCORE.INTRA.REPUL>
-0.272497

>  <SCORE.INTRA.REPUL.0>
0.274115

>  <SCORE.INTRA.SOLV>
5.30059

>  <SCORE.INTRA.SOLV.lig_0>
-152.978

>  <SCORE.INTRA.VDW>
8.72215

>  <SCORE.INTRA.VDW.0>
-6.10719

>  <SCORE.INTRA.norm>
0.368891

>  <SCORE.RESTR>
1.96214

>  <SCORE.RESTR.CAVITY>
1.96214

>  <SCORE.RESTR.norm>
0.0467175

>  <SCORE.SYSTEM>
0

>  <SCORE.SYSTEM.CONST>
0

>  <SCORE.SYSTEM.DIHEDRAL>
0

>  <SCORE.SYSTEM.SOLV>
0

>  <SCORE.SYSTEM.norm>
0

>  <SCORE.heavy>
42

>  <SCORE.norm>
-0.461906

>  <RMSD>
10.025

$$$$
1pbr
 OpenBabel11021811403D
libRbt.so/2013.1/901 2013/11/27
 42 45  0  0  0  0  0  0  0  0999 V2000
   -0.5176    5.2626   34.3902 C   0  0  2  0  0  0  0  0  0  0  0  0
    0.7977    5.5780   34.9132 O   0  0  0  0  0  0  0  0  0  0  0  0
   -1.5022    6.4756   34.5841 C   0  0  2  0  0  0  0  0  0  0  0  0
   -0.9029    7.8064   34.3052 N   0  3  0  0  0  0  0  0  0  0  0  0
   -2.0454    6.5406   36.0240 C   0  0  1  0  0  0  0  0  0  0  0  0
   -3.1245    7.4681   36.1164 O   0  0  0  0  0  0  0  0  0  0  0  0
   -2.5183    5.1582   36.4984 C   0  0  2  0  0  0  0  0  0  0  0  0
   -3.0568    5.2462   37.8139 O   0  0  0  0  0  0  0  0  0  0  0  0
   -1.3757    4.1236   36.3946 C   0  0  2  0  0  0  0  0  0  0  0  0
   -1.0129    4.0387   35.0002 O   0  0  0  0  0  0  0  0  0  0  0  0
   -1.7546    2.7211   36.8675 C   0  0  0  0  0  0  0  0  0  0  0  0
   -2.9810    2.2959   36.2880 O   0  0  0  0  0  0  0  0  0  0  0  0
    2.8179    4.1148   31.4512 C   0  0  1  0  0  0  0  0  0  0  0  0
    3.7914    3.7298   30.4129 N   0  3  0  0  0  0  0  0  0  0  0  0
    2.9952    3.2899   32.7618 C   0  0  2  0  0  0  0  0  0  0  0  0
    2.8407    1.8974   32.4980 O   0  0  0  0  0  0  0  0  0  0  0  0
    1.9489    3.7053   33.8371 C   0  0  1  0  0  0  0  0  0  0  0  0
    2.2709    3.0268   35.0872 O   0  0  0  0  0  0  0  0  0  0  0  0
    1.9316    5.2509   34.0742 C   0  0  1  0  0  0  0  0  0  0  0  0
    1.8085    6.0668   32.7476 C   0  0  1  0  0  0  0  0  0  0  0  0
    1.8949    7.5232   32.9943 N   0  3  0  0  0  0  0  0  0  0  0  0
    2.9081    5.6418   31.7403 C   0  0  0  0  0  0  0  0  0  0  0  0
    1.5345    1.8236   35.4769 C   0  0  1  0  0  0  0  0  0  0  0  0
    2.5471    0.7128   35.8132 C   0  0  2  0  0  0  0  0  0  0  0  0
    1.9702   -0.5775   35.6332 O   0  0  0  0  0  0  0  0  0  0  0  0
    2.7836    1.0429   37.2947 C   0  0  1  0  0  0  0  0  0  0  0  0
    1.3772    1.3342   37.7914 C   0  0  2  0  0  0  0  0  0  0  0  0
    0.8167    2.0517   36.7025 O   0  0  0  0  0  0  0  0  0  0  0  0
    1.2977    2.1679   39.0768 C   0  0  0  0  0  0  0  0  0  0  0  0
    2.3479    1.8030   39.9600 O   0  0  0  0  0  0  0  0  0  0  0  0
    5.9934   -3.2816   36.9601 C   0  0  1  0  0  0  0  0  0  0  0  0
    5.8280   -4.0057   38.1779 O   0  0  0  0  0  0  0  0  0  0  0  0
    4.6270   -3.1904   36.2251 C   0  0  2  0  0  0  0  0  0  0  0  0
    4.8645   -2.8099   34.8718 O   0  0  0  0  0  0  0  0  0  0  0  0
    3.5936   -2.1984   36.8526 C   0  0  1  0  0  0  0  0  0  0  0  0
    2.8404   -2.8603   37.9405 N   0  3  0  0  0  0  0  0  0  0  0  0
    4.2646   -0.8750   37.3057 C   0  0  1  0  0  0  0  0  0  0  0  0
    3.4002   -0.0113   38.0841 O   0  0  0  0  0  0  0  0  0  0  0  0
    6.5276   -1.8565   37.2508 C   0  0  1  0  0  0  0  0  0  0  0  0
    5.5147   -1.1541   38.0218 O   0  0  0  0  0  0  0  0  0  0  0  0
    7.8855   -1.8363   37.9772 C   0  0  0  0  0  0  0  0  0  0  0  0
    8.4874   -0.4894   38.0232 N   0  3  0  0  0  0  0  0  0  0  0  0
  1  2  1  1  0  0  0
  1  3  1  0  0  0  0
  1 10  1  0  0  0  0
  3  4  1  1  0  0  0
  3  5  1  0  0  0  0
  5  6  1  6  0  0  0
  5  7  1  0  0  0  0
  7  8  1  1  0  0  0
  7  9  1  0  0  0  0
  9 10  1  0  0  0  0
  9 11  1  6  0  0  0
 11 12  1  0  0  0  0
 13 14  1  6  0  0  0
 13 15  1  0  0  0  0
 13 22  1  0  0  0  0
 15 16  1  6  0  0  0
 15 17  1  0  0  0  0
 17 18  1  1  0  0  0
 17 19  1  0  0  0  0
 19  2  1  1  0  0  0
 19 20  1  0  0  0  0
 20 21  1  1  0  0  0
 20 22  1  0  0  0  0
 23 18  1  1  0  0  0
 23 24  1  0  0  0  0
 23 28  1  0  0  0  0
 24 25  1  1  0  0  0
 24 26  1  0  0  0  0
 26 27  1  0  0  0  0
 26 38  1  1  0  0  0
 27 28  1  0  0  0  0
 27 29  1  1  0  0  0
 29 30  1  0  0  0  0
 31 32  1  1  0  0  0
 31 33  1  0  0  0  0
 31 39  1  0  0  0  0
 33 34  1  6  0  0  0
 33 35  1  0  0  0  0
 35 36  1  1  0  0  0
 35 37  1  0  0  0  0
 37 38  1  1  0  0  0
 37 40  1  0  0  0  0
 39 40  1  0  0  0  0
 39 41  1  1  0  0  0
 41 42  1  0  0  0  0
M  CHG  5   4   1  14   1  21   1  36   1  42   1
M  END
>  <CHROM.1>
-133.56343482,-61.42473618,63.18576610,-173.72850588,153.71645310,48.85972766
-164.22277076,32.94178910,-38.73298449,-100.03489501,128.23682737,-42.80394497
67.11779600,28.99574701,-37.22956269,-178.70161940,-74.43383811,-58.91762555
-53.93255383,-97.95009734,169.52654639,174.13825562,1.98760720,2.20327377
35.78971066,-2.36326545,-0.58025093,2.31789822

>  <Name>
1pbr

>  <RI>
0

>  <Rbt.Current_Directory>
/home/itssahil/PROJECTS/Mol_Feturizer/New_Systems/rnas/1pbr

>  <Rbt.Executable>
rbdock ($Id: //depot/dev/client3/rdock/2013.1/src/exe/rbdock.cxx#4 $)

>  <Rbt.Library>
libRbt.so (2013.1, Build901 2013/11/27)

>  <Rbt.Parameter_File>
/export/apps/rDock/src/rDock_2013.1_src/data/scripts/dock_solv.prm

>  <Rbt.Receptor>
prm/blind_docking_40.prm

>  <SCORE>
27.2426

>  <SCORE.INTER>
10.6752

>  <SCORE.INTER.CONST>
1

>  <SCORE.INTER.POLAR>
-3.16293

>  <SCORE.INTER.ROT>
9

>  <SCORE.INTER.SOLV>
33.1571

>  <SCORE.INTER.VDW>
-2.99246

>  <SCORE.INTER.norm>
0.254171

>  <SCORE.INTRA>
13.9457

>  <SCORE.INTRA.DIHEDRAL>
10.4469

>  <SCORE.INTRA.DIHEDRAL.0>
29.7866

>  <SCORE.INTRA.POLAR>
0.952153

>  <SCORE.INTRA.POLAR.0>
-0.984091

>  <SCORE.INTRA.REPUL>
-0.124803

>  <SCORE.INTRA.REPUL.0>
0.274115

>  <SCORE.INTRA.SOLV>
3.87513

>  <SCORE.INTRA.SOLV.lig_0>
-152.978

>  <SCORE.INTRA.VDW>
4.17131

>  <SCORE.INTRA.VDW.0>
-6.10719

>  <SCORE.INTRA.norm>
0.332039

>  <SCORE.RESTR>
2.62174

>  <SCORE.RESTR.CAVITY>
2.62174

>  <SCORE.RESTR.norm>
0.0624223

>  <SCORE.SYSTEM>
0

>  <SCORE.SYSTEM.CONST>
0

>  <SCORE.SYSTEM.DIHEDRAL>
0

>  <SCORE.SYSTEM.SOLV>
0

>  <SCORE.SYSTEM.norm>
0

>  <SCORE.heavy>
42

>  <SCORE.norm>
0.648633

>  <RMSD>
10.027

$$$$
1pbr
 OpenBabel11021811403D
libRbt.so/2013.1/901 2013/11/27
 42 45  0  0  0  0  0  0  0  0999 V2000
   -0.5187    6.2168   37.0340 C   0  0  2  0  0  0  0  0  0  0  0  0
    0.8706    6.2538   36.6198 O   0  0  0  0  0  0  0  0  0  0  0  0
   -0.7596    5.0668   38.0817 C   0  0  2  0  0  0  0  0  0  0  0  0
    0.3126    4.9273   39.1011 N   0  3  0  0  0  0  0  0  0  0  0  0
   -0.8847    3.6927   37.3969 C   0  0  1  0  0  0  0  0  0  0  0  0
   -1.3612    2.7112   38.3150 O   0  0  0  0  0  0  0  0  0  0  0  0
   -1.8299    3.7627   36.1880 C   0  0  2  0  0  0  0  0  0  0  0  0
   -1.9673    2.4753   35.5947 O   0  0  0  0  0  0  0  0  0  0  0  0
   -1.3511    4.8309   35.1799 C   0  0  2  0  0  0  0  0  0  0  0  0
   -1.3803    6.0992   35.8682 O   0  0  0  0  0  0  0  0  0  0  0  0
   -2.2252    4.9530   33.9329 C   0  0  0  0  0  0  0  0  0  0  0  0
   -2.3790    6.3112   33.5427 O   0  0  0  0  0  0  0  0  0  0  0  0
    0.0828    7.1780   32.5292 C   0  0  1  0  0  0  0  0  0  0  0  0
    0.1097    7.6570   31.1350 N   0  3  0  0  0  0  0  0  0  0  0  0
    1.1673    6.0921   32.8016 C   0  0  2  0  0  0  0  0  0  0  0  0
    0.9774    4.9721   31.9401 O   0  0  0  0  0  0  0  0  0  0  0  0
    1.1105    5.5936   34.2753 C   0  0  1  0  0  0  0  0  0  0  0  0
    2.2481    4.7126   34.5134 O   0  0  0  0  0  0  0  0  0  0  0  0
    1.1459    6.7761   35.2977 C   0  0  1  0  0  0  0  0  0  0  0  0
    0.0906    7.8837   34.9812 C   0  0  1  0  0  0  0  0  0  0  0  0
    0.2145    9.0336   35.9042 N   0  3  0  0  0  0  0  0  0  0  0  0
    0.2333    8.3723   33.5165 C   0  0  0  0  0  0  0  0  0  0  0  0
    2.0273    3.3417   34.9756 C   0  0  1  0  0  0  0  0  0  0  0  0
    3.0209    2.4120   34.2543 C   0  0  2  0  0  0  0  0  0  0  0  0
    2.5205    1.0795   34.1893 O   0  0  0  0  0  0  0  0  0  0  0  0
    4.2121    2.5399   35.2159 C   0  0  1  0  0  0  0  0  0  0  0  0
    3.5404    2.4660   36.5771 C   0  0  2  0  0  0  0  0  0  0  0  0
    2.3589    3.2249   36.3706 O   0  0  0  0  0  0  0  0  0  0  0  0
    4.3533    3.0506   37.7394 C   0  0  0  0  0  0  0  0  0  0  0  0
    4.8448    4.3367   37.3921 O   0  0  0  0  0  0  0  0  0  0  0  0
    5.4770   -2.0877   37.4674 C   0  0  1  0  0  0  0  0  0  0  0  0
    5.7107   -2.9594   36.3627 O   0  0  0  0  0  0  0  0  0  0  0  0
    6.6600   -1.0877   37.5941 C   0  0  2  0  0  0  0  0  0  0  0  0
    6.6093   -0.4866   38.8859 O   0  0  0  0  0  0  0  0  0  0  0  0
    6.7001    0.0429   36.5144 C   0  0  1  0  0  0  0  0  0  0  0  0
    7.3803   -0.4376   35.2915 N   0  3  0  0  0  0  0  0  0  0  0  0
    5.2885    0.6197   36.2289 C   0  0  1  0  0  0  0  0  0  0  0  0
    5.2355    1.5144   35.0906 O   0  0  0  0  0  0  0  0  0  0  0  0
    4.1526   -1.3092   37.2665 C   0  0  1  0  0  0  0  0  0  0  0  0
    4.3101   -0.4655   36.0930 O   0  0  0  0  0  0  0  0  0  0  0  0
    2.9126   -2.2130   37.1331 C   0  0  0  0  0  0  0  0  0  0  0  0
    2.6548   -3.0101   38.3482 N   0  3  0  0  0  0  0  0  0  0  0  0
  1  2  1  6  0  0  0
  1  3  1  0  0  0  0
  1 10  1  0  0  0  0
  3  4  1  1  0  0  0
  3  5  1  0  0  0  0
  5  6  1  1  0  0  0
  5  7  1  0  0  0  0
  7  8  1  6  0  0  0
  7  9  1  0  0  0  0
  9 10  1  0  0  0  0
  9 11  1  6  0  0  0
 11 12  1  0  0  0  0
 13 14  1  6  0  0  0
 13 15  1  0  0  0  0
 13 22  1  0  0  0  0
 15 16  1  6  0  0  0
 15 17  1  0  0  0  0
 17 18  1  1  0  0  0
 17 19  1  0  0  0  0
 19  2  1  1  0  0  0
 19 20  1  0  0  0  0
 20 21  1  1  0  0  0
 20 22  1  0  0  0  0
 23 18  1  6  0  0  0
 23 24  1  0  0  0  0
 23 28  1  0  0  0  0
 24 25  1  1  0  0  0
 24 26  1  0  0  0  0
 26 27  1  0  0  0  0
 26 38  1  6  0  0  0
 27 28  1  0  0  0  0
 27 29  1  1  0  0  0
 29 30  1  0  0  0  0
 31 32  1  6  0  0  0
 31 33  1  0  0  0  0
 31 39  1  0  0  0  0
 33 34  1  1  0  0  0
 33 35  1  0  0  0  0
 35 36  1  6  0  0  0
 35 37  1  0  0  0  0
 37 38  1  6  0  0  0
 37 40  1  0  0  0  0
 39 40  1  0  0  0  0
 39 41  1  6  0  0  0
 41 42  1  0  0  0  0
M  CHG  5   4   1  14   1  21   1  36   1  42   1
M  END
>  <CHROM.1>
152.51668388,-90.07707704,10.57597496,-167.49706881,-142.59323916,140.68204505
-51.56018381,-123.82913333,175.97882815,-122.81168314,140.30667024,-157.39894889
168.25578334,-111.10192700,48.57414866,-169.28701642,58.54473630,-164.31330734
144.78748238,-149.90116643,62.84522306,-45.98056178,2.00553760,3.21591680
35.78365127,2.29997774,0.46577561,-0.68966170

>  <Name>
1pbr

>  <RI>
0

>  <Rbt.Current_Directory>
/home/itssahil/PROJECTS/Mol_Feturizer/New_Systems/rnas/1pbr

>  <Rbt.Executable>
rbdock ($Id: //depot/dev/client3/rdock/2013.1/src/exe/rbdock.cxx#4 $)

>  <Rbt.Library>
libRbt.so (2013.1, Build901 2013/11/27)

>  <Rbt.Parameter_File>
/export/apps/rDock/src/rDock_2013.1_src/data/scripts/dock_solv.prm

>  <Rbt.Receptor>
prm/blind_docking_40.prm

>  <SCORE>
28.1458

>  <SCORE.INTER>
1.40718

>  <SCORE.INTER.CONST>
1

>  <SCORE.INTER.POLAR>
-6.45774

>  <SCORE.INTER.ROT>
9

>  <SCORE.INTER.SOLV>
44.1659

>  <SCORE.INTER.VDW>
-1.85803

>  <SCORE.INTER.norm>
0.0335042

>  <SCORE.INTRA>
25.0914

>  <SCORE.INTRA.DIHEDRAL>
23.9238

>  <SCORE.INTRA.DIHEDRAL.0>
29.7866

>  <SCORE.INTRA.POLAR>
0.803826

>  <SCORE.INTRA.POLAR.0>
-0.984091

>  <SCORE.INTRA.REPUL>
-0.222564

>  <SCORE.INTRA.REPUL.0>
0.274115

>  <SCORE.INTRA.SOLV>
-0.181816

>  <SCORE.INTRA.SOLV.lig_0>
-152.978

>  <SCORE.INTRA.VDW>
11.6002

>  <SCORE.INTRA.VDW.0>
-6.10719

>  <SCORE.INTRA.norm>
0.597413

>  <SCORE.RESTR>
1.64724

>  <SCORE.RESTR.CAVITY>
1.64724

>  <SCORE.RESTR.norm>
0.03922

>  <SCORE.SYSTEM>
0

>  <SCORE.SYSTEM.CONST>
0

>  <SCORE.SYSTEM.DIHEDRAL>
0

>  <SCORE.SYSTEM.SOLV>
0

>  <SCORE.SYSTEM.norm>
0

>  <SCORE.heavy>
42

>  <SCORE.norm>
0.670137

>  <RMSD>
10.036

$$$$
1pbr
 OpenBabel11021811403D
libRbt.so/2013.1/901 2013/11/27
 42 45  0  0  0  0  0  0  0  0999 V2000
   -0.6713    6.1851   35.3168 C   0  0  2  0  0  0  0  0  0  0  0  0
    0.7161    6.3060   35.7212 O   0  0  0  0  0  0  0  0  0  0  0  0
   -1.6241    6.8438   36.3830 C   0  0  2  0  0  0  0  0  0  0  0  0
   -1.1320    8.1320   36.9367 N   0  3  0  0  0  0  0  0  0  0  0  0
   -1.8524    5.9148   37.5903 C   0  0  1  0  0  0  0  0  0  0  0  0
   -2.9115    6.4027   38.4110 O   0  0  0  0  0  0  0  0  0  0  0  0
   -2.1782    4.4851   37.1326 C   0  0  2  0  0  0  0  0  0  0  0  0
   -2.4289    3.6519   38.2601 O   0  0  0  0  0  0  0  0  0  0  0  0
   -1.0568    3.9319   36.2256 C   0  0  2  0  0  0  0  0  0  0  0  0
   -0.9944    4.7894   35.0662 O   0  0  0  0  0  0  0  0  0  0  0  0
   -1.2905    2.5022   35.7403 C   0  0  0  0  0  0  0  0  0  0  0  0
   -2.5172    2.3933   35.0304 O   0  0  0  0  0  0  0  0  0  0  0  0
    2.2925    5.2284   31.9053 C   0  0  1  0  0  0  0  0  0  0  0  0
    3.1096    5.0278   30.6945 N   0  3  0  0  0  0  0  0  0  0  0  0
    2.8634    4.4617   33.1365 C   0  0  2  0  0  0  0  0  0  0  0  0
    2.9271    3.0633   32.8663 O   0  0  0  0  0  0  0  0  0  0  0  0
    1.9773    4.6785   34.3980 C   0  0  1  0  0  0  0  0  0  0  0  0
    2.6490    4.0827   35.5473 O   0  0  0  0  0  0  0  0  0  0  0  0
    1.7142    6.1943   34.6782 C   0  0  1  0  0  0  0  0  0  0  0  0
    1.1942    6.9622   33.4210 C   0  0  1  0  0  0  0  0  0  0  0  0
    1.0497    8.4103   33.6889 N   0  3  0  0  0  0  0  0  0  0  0  0
    2.1463    6.7467   32.2162 C   0  0  0  0  0  0  0  0  0  0  0  0
    3.6199    3.0056   35.3494 C   0  0  1  0  0  0  0  0  0  0  0  0
    4.0975    2.5126   36.7282 C   0  0  2  0  0  0  0  0  0  0  0  0
    5.3928    1.9255   36.6415 O   0  0  0  0  0  0  0  0  0  0  0  0
    3.0033    1.4702   37.0037 C   0  0  1  0  0  0  0  0  0  0  0  0
    2.8669    0.7786   35.6573 C   0  0  2  0  0  0  0  0  0  0  0  0
    2.9839    1.8633   34.7493 O   0  0  0  0  0  0  0  0  0  0  0  0
    1.5422    0.0374   35.4347 C   0  0  0  0  0  0  0  0  0  0  0  0
    1.1604    0.1211   34.0696 O   0  0  0  0  0  0  0  0  0  0  0  0
    6.1245   -2.7597   37.8159 C   0  0  1  0  0  0  0  0  0  0  0  0
    6.6389   -2.5843   39.1347 O   0  0  0  0  0  0  0  0  0  0  0  0
    4.6203   -3.1424   37.8960 C   0  0  2  0  0  0  0  0  0  0  0  0
    4.2193   -3.6720   36.6345 O   0  0  0  0  0  0  0  0  0  0  0  0
    3.6522   -1.9767   38.2828 C   0  0  1  0  0  0  0  0  0  0  0  0
    3.5816   -1.8333   39.7537 N   0  3  0  0  0  0  0  0  0  0  0  0
    4.0278   -0.6521   37.5679 C   0  0  1  0  0  0  0  0  0  0  0  0
    3.3019    0.5054   38.0500 O   0  0  0  0  0  0  0  0  0  0  0  0
    6.2899   -1.4548   36.9969 C   0  0  1  0  0  0  0  0  0  0  0  0
    5.4769   -0.4297   37.6309 O   0  0  0  0  0  0  0  0  0  0  0  0
    7.7512   -0.9896   36.8545 C   0  0  0  0  0  0  0  0  0  0  0  0
    8.3402   -0.5598   38.1379 N   0  3  0  0  0  0  0  0  0  0  0  0
  1  2  1  1  0  0  0
  1  3  1  0  0  0  0
  1 10  1  0  0  0  0
  3  4  1  1  0  0  0
  3  5  1  0  0  0  0
  5  6  1  6  0  0  0
  5  7  1  0  0  0  0
  7  8  1  1  0  0  0
  7  9  1  0  0  0  0
  9 10  1  0  0  0  0
  9 11  1  6  0  0  0
 11 12  1  0  0  0  0
 13 14  1  6  0  0  0
 13 15  1  0  0  0  0
 13 22  1  0  0  0  0
 15 16  1  6  0  0  0
 15 17  1  0  0  0  0
 17 18  1  1  0  0  0
 17 19  1  0  0  0  0
 19  2  1  1  0  0  0
 19 20  1  0  0  0  0
 20 21  1  1  0  0  0
 20 22  1  0  0  0  0
 23 18  1  1  0  0  0
 23 24  1  0  0  0  0
 23 28  1  0  0  0  0
 24 25  1  6  0  0  0
 24 26  1  0  0  0  0
 26 27  1  0  0  0  0
 26 38  1  1  0  0  0
 27 28  1  0  0  0  0
 27 29  1  1  0  0  0
 29 30  1  0  0  0  0
 31 32  1  1  0  0  0
 31 33  1  0  0  0  0
 31 39  1  0  0  0  0
 33 34  1  6  0  0  0
 33 35  1  0  0  0  0
 35 36  1  1  0  0  0
 35 37  1  0  0  0  0
 37 38  1  1  0  0  0
 37 40  1  0  0  0  0
 39 40  1  0  0  0  0
 39 41  1  1  0  0  0
 41 42  1  0  0  0  0
M  CHG  5   4   1  14   1  21   1  36   1  42   1
M  END
>  <CHROM.1>
-158.67787044,-82.21979569,67.41831589,147.83548464,173.99241823,57.66238818
73.42324835,81.73390129,-51.34589435,-24.09274862,-176.43303017,-70.70465440
83.54569262,-86.89694684,145.79884338,61.19539339,-48.34022191,74.08829250
-127.08699790,-145.03182358,-67.11552483,-59.62013906,2.20665996,2.57057385
35.98679994,2.30479208,0.49548980,-0.72133466

>  <Name>
1pbr

>  <RI>
0

>  <Rbt.Current_Directory>
/home/itssahil/PROJECTS/Mol_Feturizer/New_Systems/rnas/1pbr

>  <Rbt.Executable>
rbdock ($Id: //depot/dev/client3/rdock/2013.1/src/exe/rbdock.cxx#4 $)

>  <Rbt.Library>
libRbt.so (2013.1, Build901 2013/11/27)

>  <Rbt.Parameter_File>
/export/apps/rDock/src/rDock_2013.1_src/data/scripts/dock_solv.prm

>  <Rbt.Receptor>
prm/blind_docking_40.prm

>  <SCORE>
20.7131

>  <SCORE.INTER>
3.05817

>  <SCORE.INTER.CONST>
1

>  <SCORE.INTER.POLAR>
-5.73013

>  <SCORE.INTER.ROT>
9

>  <SCORE.INTER.SOLV>
33.9253

>  <SCORE.INTER.VDW>
0.230772

>  <SCORE.INTER.norm>
0.0728136

>  <SCORE.INTRA>
14.8336

>  <SCORE.INTRA.DIHEDRAL>
4.77373

>  <SCORE.INTRA.DIHEDRAL.0>
29.7866

>  <SCORE.INTRA.POLAR>
0.478241

>  <SCORE.INTRA.POLAR.0>
-0.984091

>  <SCORE.INTRA.REPUL>
-0.189727

>  <SCORE.INTRA.REPUL.0>
0.274115

>  <SCORE.INTRA.SOLV>
2.6963

>  <SCORE.INTRA.SOLV.lig_0>
-152.978

>  <SCORE.INTRA.VDW>
10.4212

>  <SCORE.INTRA.VDW.0>
-6.10719

>  <SCORE.INTRA.norm>
0.353182

>  <SCORE.RESTR>
2.82127

>  <SCORE.RESTR.CAVITY>
2.82127

>  <SCORE.RESTR.norm>
0.0671731

>  <SCORE.SYSTEM>
0

>  <SCORE.SYSTEM.CONST>
0

>  <SCORE.SYSTEM.DIHEDRAL>
0

>  <SCORE.SYSTEM.SOLV>
0

>  <SCORE.SYSTEM.norm>
0

>  <SCORE.heavy>
42

>  <SCORE.norm>
0.493169

>  <RMSD>
10.068

$$$$
1pbr
 OpenBabel11021811403D
libRbt.so/2013.1/901 2013/11/27
 42 45  0  0  0  0  0  0  0  0999 V2000
    0.8002    5.7066   35.9639 C   0  0  2  0  0  0  0  0  0  0  0  0
    0.5930    5.3119   34.5839 O   0  0  0  0  0  0  0  0  0  0  0  0
   -0.3188    5.1030   36.8923 C   0  0  2  0  0  0  0  0  0  0  0  0
   -0.6870    3.6976   36.5796 N   0  3  0  0  0  0  0  0  0  0  0  0
   -1.6231    5.9184   36.8121 C   0  0  1  0  0  0  0  0  0  0  0  0
   -2.5288    5.5269   37.8415 O   0  0  0  0  0  0  0  0  0  0  0  0
   -1.3406    7.4240   36.9260 C   0  0  2  0  0  0  0  0  0  0  0  0
   -2.5605    8.1582   36.8938 O   0  0  0  0  0  0  0  0  0  0  0  0
   -0.3473    7.8786   35.8337 C   0  0  2  0  0  0  0  0  0  0  0  0
    0.8817    7.1556   36.0579 O   0  0  0  0  0  0  0  0  0  0  0  0
   -0.0253    9.3718   35.8608 C   0  0  0  0  0  0  0  0  0  0  0  0
    0.1222    9.8909   34.5458 O   0  0  0  0  0  0  0  0  0  0  0  0
    2.8459    4.0724   31.1786 C   0  0  1  0  0  0  0  0  0  0  0  0
    3.8824    3.7881   30.1693 N   0  3  0  0  0  0  0  0  0  0  0  0
    3.0581    3.2556   32.4892 C   0  0  2  0  0  0  0  0  0  0  0  0
    3.0412    1.8572   32.2122 O   0  0  0  0  0  0  0  0  0  0  0  0
    1.9452    3.5631   33.5334 C   0  0  1  0  0  0  0  0  0  0  0  0
    2.2898    2.9060   34.7890 O   0  0  0  0  0  0  0  0  0  0  0  0
    1.7776    5.0983   33.7792 C   0  0  1  0  0  0  0  0  0  0  0  0
    1.6206    5.9112   32.4543 C   0  0  1  0  0  0  0  0  0  0  0  0
    1.5643    7.3672   32.7124 N   0  3  0  0  0  0  0  0  0  0  0  0
    2.7855    5.5985   31.4797 C   0  0  0  0  0  0  0  0  0  0  0  0
    1.7500    1.5800   35.0925 C   0  0  1  0  0  0  0  0  0  0  0  0
    2.8961    0.6853   35.6004 C   0  0  2  0  0  0  0  0  0  0  0  0
    2.6132   -0.6914   35.3663 O   0  0  0  0  0  0  0  0  0  0  0  0
    2.8398    1.0454   37.0927 C   0  0  1  0  0  0  0  0  0  0  0  0
    1.3454    1.0542   37.3687 C   0  0  2  0  0  0  0  0  0  0  0  0
    0.8263    1.6562   36.1928 O   0  0  0  0  0  0  0  0  0  0  0  0
    0.9147    1.8481   38.6088 C   0  0  0  0  0  0  0  0  0  0  0  0
   -0.5022    1.8934   38.6906 O   0  0  0  0  0  0  0  0  0  0  0  0
    7.4170   -1.6935   37.5289 C   0  0  1  0  0  0  0  0  0  0  0  0
    7.0100   -2.9885   37.9673 O   0  0  0  0  0  0  0  0  0  0  0  0
    6.6583   -1.3297   36.2221 C   0  0  2  0  0  0  0  0  0  0  0  0
    7.3260   -0.2344   35.6000 O   0  0  0  0  0  0  0  0  0  0  0  0
    5.1493   -0.9614   36.4039 C   0  0  1  0  0  0  0  0  0  0  0  0
    4.3188   -2.1857   36.4158 N   0  3  0  0  0  0  0  0  0  0  0  0
    4.9188   -0.0674   37.6507 C   0  0  1  0  0  0  0  0  0  0  0  0
    3.5233    0.1261   37.9885 O   0  0  0  0  0  0  0  0  0  0  0  0
    7.1145   -0.6371   38.6212 C   0  0  1  0  0  0  0  0  0  0  0  0
    5.6724   -0.5856   38.7983 O   0  0  0  0  0  0  0  0  0  0  0  0
    7.8251   -0.9052   39.9611 C   0  0  0  0  0  0  0  0  0  0  0  0
    7.2993   -2.0961   40.6568 N   0  3  0  0  0  0  0  0  0  0  0  0
  1  2  1  6  0  0  0
  1  3  1  0  0  0  0
  1 10  1  0  0  0  0
  3  4  1  6  0  0  0
  3  5  1  0  0  0  0
  5  6  1  1  0  0  0
  5  7  1  0  0  0  0
  7  8  1  6  0  0  0
  7  9  1  0  0  0  0
  9 10  1  0  0  0  0
  9 11  1  1  0  0  0
 11 12  1  0  0  0  0
 13 14  1  6  0  0  0
 13 15  1  0  0  0  0
 13 22  1  0  0  0  0
 15 16  1  6  0  0  0
 15 17  1  0  0  0  0
 17 18  1  1  0  0  0
 17 19  1  0  0  0  0
 19  2  1  1  0  0  0
 19 20  1  0  0  0  0
 20 21  1  1  0  0  0
 20 22  1  0  0  0  0
 23 18  1  1  0  0  0
 23 24  1  0  0  0  0
 23 28  1  0  0  0  0
 24 25  1  1  0  0  0
 24 26  1  0  0  0  0
 26 27  1  0  0  0  0
 26 38  1  1  0  0  0
 27 28  1  0  0  0  0
 27 29  1  1  0  0  0
 29 30  1  0  0  0  0
 31 32  1  1  0  0  0
 31 33  1  0  0  0  0
 31 39  1  0  0  0  0
 33 34  1  1  0  0  0
 33 35  1  0  0  0  0
 35 36  1  1  0  0  0
 35 37  1  0  0  0  0
 37 38  1  1  0  0  0
 37 40  1  0  0  0  0
 39 40  1  0  0  0  0
 39 41  1  1  0  0  0
 41 42  1  0  0  0  0
M  CHG  5   4   1  14   1  21   1  36   1  42   1
M  END
>  <CHROM.1>
-146.10460058,107.68919812,159.19565702,82.97280331,-58.25908925,-143.09498787
-95.39343276,158.04145875,-175.35807608,-94.48360121,133.17100743,59.18201748
68.01453316,55.98920038,174.35489349,66.99144864,-53.17128798,179.00718431
-21.42579092,-74.71512148,-68.83932614,60.70450830,2.47763815,2.83822323
35.90141614,2.50107447,0.76601572,-1.06557830

>  <Name>
1pbr

>  <RI>
0

>  <Rbt.Current_Directory>
/home/itssahil/PROJECTS/Mol_Feturizer/New_Systems/rnas/1pbr

>  <Rbt.Executable>
rbdock ($Id: //depot/dev/client3/rdock/2013.1/src/exe/rbdock.cxx#4 $)

>  <Rbt.Library>
libRbt.so (2013.1, Build901 2013/11/27)

>  <Rbt.Parameter_File>
/export/apps/rDock/src/rDock_2013.1_src/data/scripts/dock_solv.prm

>  <Rbt.Receptor>
prm/blind_docking_40.prm

>  <SCORE>
11.7085

>  <SCORE.INTER>
2.44677

>  <SCORE.INTER.CONST>
1

>  <SCORE.INTER.POLAR>
-4.27892

>  <SCORE.INTER.ROT>
9

>  <SCORE.INTER.SOLV>
25.1357

>  <SCORE.INTER.VDW>
-2.08434

>  <SCORE.INTER.norm>
0.0582563

>  <SCORE.INTRA>
4.39983

>  <SCORE.INTRA.DIHEDRAL>
10.0743

>  <SCORE.INTRA.DIHEDRAL.0>
29.7866

>  <SCORE.INTRA.POLAR>
-2.03699

>  <SCORE.INTRA.POLAR.0>
-0.984091

>  <SCORE.INTRA.REPUL>
-0.274115

>  <SCORE.INTRA.REPUL.0>
0.274115

>  <SCORE.INTRA.SOLV>
12.4838

>  <SCORE.INTRA.SOLV.lig_0>
-152.978

>  <SCORE.INTRA.VDW>
1.41715

>  <SCORE.INTRA.VDW.0>
-6.10719

>  <SCORE.INTRA.norm>
0.104758

>  <SCORE.RESTR>
4.86194

>  <SCORE.RESTR.CAVITY>
4.86194

>  <SCORE.RESTR.norm>
0.115761

>  <SCORE.SYSTEM>
0

>  <SCORE.SYSTEM.CONST>
0

>  <SCORE.SYSTEM.DIHEDRAL>
0

>  <SCORE.SYSTEM.SOLV>
0

>  <SCORE.SYSTEM.norm>
0

>  <SCORE.heavy>
42

>  <SCORE.norm>
0.278775

>  <RMSD>
10.123

$$$$
1pbr
 OpenBabel11021811403D
libRbt.so/2013.1/901 2013/11/27
 42 45  0  0  0  0  0  0  0  0999 V2000
   -0.1398    6.1647   34.7741 C   0  0  2  0  0  0  0  0  0  0  0  0
    1.1542    5.5577   35.0194 O   0  0  0  0  0  0  0  0  0  0  0  0
   -0.4369    7.2942   35.8296 C   0  0  2  0  0  0  0  0  0  0  0  0
    0.7283    8.1584   36.1518 N   0  3  0  0  0  0  0  0  0  0  0  0
   -0.9209    6.7063   37.1685 C   0  0  1  0  0  0  0  0  0  0  0  0
   -1.4339    7.7321   38.0158 O   0  0  0  0  0  0  0  0  0  0  0  0
   -2.0041    5.6405   36.9438 C   0  0  2  0  0  0  0  0  0  0  0  0
   -2.4699    5.1402   38.1931 O   0  0  0  0  0  0  0  0  0  0  0  0
   -1.4857    4.5209   36.0141 C   0  0  2  0  0  0  0  0  0  0  0  0
   -1.1711    5.1394   34.7485 O   0  0  0  0  0  0  0  0  0  0  0  0
   -2.4956    3.4046   35.7530 C   0  0  0  0  0  0  0  0  0  0  0  0
   -1.8779    2.2867   35.1291 O   0  0  0  0  0  0  0  0  0  0  0  0
    2.2271    4.6231   30.9966 C   0  0  1  0  0  0  0  0  0  0  0  0
    2.9003    4.4231   29.7001 N   0  3  0  0  0  0  0  0  0  0  0  0
    2.7857    3.6788   32.1038 C   0  0  2  0  0  0  0  0  0  0  0  0
    2.6249    2.3146   31.7219 O   0  0  0  0  0  0  0  0  0  0  0  0
    2.0512    3.8997   33.4585 C   0  0  1  0  0  0  0  0  0  0  0  0
    2.7265    3.1175   34.4877 O   0  0  0  0  0  0  0  0  0  0  0  0
    2.0329    5.4057   33.8786 C   0  0  1  0  0  0  0  0  0  0  0  0
    1.5226    6.3468   32.7408 C   0  0  1  0  0  0  0  0  0  0  0  0
    1.6105    7.7712   33.1320 N   0  3  0  0  0  0  0  0  0  0  0  0
    2.3272    6.1132   31.4360 C   0  0  0  0  0  0  0  0  0  0  0  0
    2.1847    1.8199   34.8933 C   0  0  1  0  0  0  0  0  0  0  0  0
    3.0856    0.7089   34.3222 C   0  0  2  0  0  0  0  0  0  0  0  0
    2.3607   -0.5075   34.1644 O   0  0  0  0  0  0  0  0  0  0  0  0
    4.1176    0.6282   35.4573 C   0  0  1  0  0  0  0  0  0  0  0  0
    3.2429    0.7040   36.6978 C   0  0  2  0  0  0  0  0  0  0  0  0
    2.2702    1.6667   36.3211 O   0  0  0  0  0  0  0  0  0  0  0  0
    3.9624    1.1459   37.9786 C   0  0  0  0  0  0  0  0  0  0  0  0
    4.6207    2.3858   37.7648 O   0  0  0  0  0  0  0  0  0  0  0  0
    7.3038   -2.1139   38.7509 C   0  0  1  0  0  0  0  0  0  0  0  0
    8.4707   -2.3565   37.9672 O   0  0  0  0  0  0  0  0  0  0  0  0
    7.0011   -0.5895   38.7664 C   0  0  2  0  0  0  0  0  0  0  0  0
    6.0875   -0.3193   39.8270 O   0  0  0  0  0  0  0  0  0  0  0  0
    6.4151   -0.0093   37.4376 C   0  0  1  0  0  0  0  0  0  0  0  0
    7.5070    0.3280   36.4979 N   0  3  0  0  0  0  0  0  0  0  0  0
    5.3554   -0.9542   36.8122 C   0  0  1  0  0  0  0  0  0  0  0  0
    4.9378   -0.5723   35.4784 O   0  0  0  0  0  0  0  0  0  0  0  0
    6.0931   -2.8821   38.1636 C   0  0  1  0  0  0  0  0  0  0  0  0
    5.8283   -2.3430   36.8396 O   0  0  0  0  0  0  0  0  0  0  0  0
    6.2913   -4.4084   38.1077 C   0  0  0  0  0  0  0  0  0  0  0  0
    6.3559   -5.0244   39.4474 N   0  3  0  0  0  0  0  0  0  0  0  0
  1  2  1  1  0  0  0
  1  3  1  0  0  0  0
  1 10  1  0  0  0  0
  3  4  1  1  0  0  0
  3  5  1  0  0  0  0
  5  6  1  1  0  0  0
  5  7  1  0  0  0  0
  7  8  1  1  0  0  0
  7  9  1  0  0  0  0
  9 10  1  0  0  0  0
  9 11  1  6  0  0  0
 11 12  1  0  0  0  0
 13 14  1  6  0  0  0
 13 15  1  0  0  0  0
 13 22  1  0  0  0  0
 15 16  1  6  0  0  0
 15 17  1  0  0  0  0
 17 18  1  1  0  0  0
 17 19  1  0  0  0  0
 19  2  1  1  0  0  0
 19 20  1  0  0  0  0
 20 21  1  1  0  0  0
 20 22  1  0  0  0  0
 23 18  1  1  0  0  0
 23 24  1  0  0  0  0
 23 28  1  0  0  0  0
 24 25  1  1  0  0  0
 24 26  1  0  0  0  0
 26 27  1  0  0  0  0
 26 38  1  1  0  0  0
 27 28  1  0  0  0  0
 27 29  1  1  0  0  0
 29 30  1  0  0  0  0
 31 32  1  6  0  0  0
 31 33  1  0  0  0  0
 31 39  1  0  0  0  0
 33 34  1  1  0  0  0
 33 35  1  0  0  0  0
 35 36  1  6  0  0  0
 35 37  1  0  0  0  0
 37 38  1  6  0  0  0
 37 40  1  0  0  0  0
 39 40  1  0  0  0  0
 39 41  1  6  0  0  0
 41 42  1  0  0  0  0
M  CHG  5   4   1  14   1  21   1  36   1  42   1
M  END
>  <CHROM.1>
-131.96133829,-105.33125272,-157.81192464,57.65937165,65.81509557,-167.95847412
68.51566095,-52.38854385,166.96659233,-99.14237259,106.71764476,-85.19354723
-55.34236297,-149.94603716,54.59375364,-155.83283080,62.08999023,174.62566489
-64.76583457,-71.09808088,67.15153761,60.64641630,2.72476314,2.43833914,35.71599164
2.53369473,0.74752797,-1.14784760

>  <Name>
1pbr

>  <RI>
0

>  <Rbt.Current_Directory>
/home/itssahil/PROJECTS/Mol_Feturizer/New_Systems/rnas/1pbr

>  <Rbt.Executable>
rbdock ($Id: //depot/dev/client3/rdock/2013.1/src/exe/rbdock.cxx#4 $)

>  <Rbt.Library>
libRbt.so (2013.1, Build901 2013/11/27)

>  <Rbt.Parameter_File>
/export/apps/rDock/src/rDock_2013.1_src/data/scripts/dock_solv.prm

>  <Rbt.Receptor>
prm/blind_docking_40.prm

>  <SCORE>
25.592

>  <SCORE.INTER>
3.23332

>  <SCORE.INTER.CONST>
1

>  <SCORE.INTER.POLAR>
-5.36494

>  <SCORE.INTER.ROT>
9

>  <SCORE.INTER.SOLV>
34.0604

>  <SCORE.INTER.VDW>
-0.914805

>  <SCORE.INTER.norm>
0.0769837

>  <SCORE.INTRA>
19.2992

>  <SCORE.INTRA.DIHEDRAL>
6.96053

>  <SCORE.INTRA.DIHEDRAL.0>
29.7866

>  <SCORE.INTRA.POLAR>
0.941657

>  <SCORE.INTRA.POLAR.0>
-0.984091

>  <SCORE.INTRA.REPUL>
-0.109122

>  <SCORE.INTRA.REPUL.0>
0.274115

>  <SCORE.INTRA.SOLV>
3.89369

>  <SCORE.INTRA.SOLV.lig_0>
-152.978

>  <SCORE.INTRA.VDW>
11.2161

>  <SCORE.INTRA.VDW.0>
-6.10719

>  <SCORE.INTRA.norm>
0.459505

>  <SCORE.RESTR>
3.05951

>  <SCORE.RESTR.CAVITY>
3.05951

>  <SCORE.RESTR.norm>
0.0728454

>  <SCORE.SYSTEM>
0

>  <SCORE.SYSTEM.CONST>
0

>  <SCORE.SYSTEM.DIHEDRAL>
0

>  <SCORE.SYSTEM.SOLV>
0

>  <SCORE.SYSTEM.norm>
0

>  <SCORE.heavy>
42

>  <SCORE.norm>
0.609334

>  <RMSD>
10.158

$$$$
1pbr
 OpenBabel11021811403D
libRbt.so/2013.1/901 2013/11/27
 42 45  0  0  0  0  0  0  0  0999 V2000
    0.8043    7.7266   35.9405 C   0  0  2  0  0  0  0  0  0  0  0  0
   -0.3951    7.1499   36.5167 O   0  0  0  0  0  0  0  0  0  0  0  0
    0.4729    9.0676   35.1853 C   0  0  2  0  0  0  0  0  0  0  0  0
   -0.4981    9.9465   35.8874 N   0  3  0  0  0  0  0  0  0  0  0  0
   -0.1189    8.8005   33.7885 C   0  0  1  0  0  0  0  0  0  0  0  0
   -0.1659   10.0012   33.0208 O   0  0  0  0  0  0  0  0  0  0  0  0
    0.7020    7.7438   33.0341 C   0  0  2  0  0  0  0  0  0  0  0  0
    0.1663    7.5422   31.7301 O   0  0  0  0  0  0  0  0  0  0  0  0
    0.7873    6.4335   33.8479 C   0  0  2  0  0  0  0  0  0  0  0  0
    1.4608    6.7514   35.0843 O   0  0  0  0  0  0  0  0  0  0  0  0
    1.5713    5.3175   33.1595 C   0  0  0  0  0  0  0  0  0  0  0  0
    1.4355    5.3886   31.7464 O   0  0  0  0  0  0  0  0  0  0  0  0
   -1.8508    3.2711   37.5384 C   0  0  1  0  0  0  0  0  0  0  0  0
   -2.1950    1.8390   37.6056 N   0  3  0  0  0  0  0  0  0  0  0  0
   -0.3279    3.5231   37.7556 C   0  0  2  0  0  0  0  0  0  0  0  0
    0.0829    3.0233   39.0260 O   0  0  0  0  0  0  0  0  0  0  0  0
    0.0083    5.0419   37.6930 C   0  0  1  0  0  0  0  0  0  0  0  0
    1.4576    5.2003   37.7317 O   0  0  0  0  0  0  0  0  0  0  0  0
   -0.5538    5.7155   36.3986 C   0  0  1  0  0  0  0  0  0  0  0  0
   -2.0678    5.4098   36.1640 C   0  0  1  0  0  0  0  0  0  0  0  0
   -2.5455    5.9763   34.8832 N   0  3  0  0  0  0  0  0  0  0  0  0
   -2.3269    3.8811   36.1876 C   0  0  0  0  0  0  0  0  0  0  0  0
    2.2949    4.5124   36.7481 C   0  0  1  0  0  0  0  0  0  0  0  0
    3.6543    4.1907   37.3965 C   0  0  2  0  0  0  0  0  0  0  0  0
    4.6763    4.0715   36.4109 O   0  0  0  0  0  0  0  0  0  0  0  0
    3.3024    2.8391   38.0362 C   0  0  1  0  0  0  0  0  0  0  0  0
    2.5025    2.1582   36.9380 C   0  0  2  0  0  0  0  0  0  0  0  0
    1.7302    3.2306   36.4200 O   0  0  0  0  0  0  0  0  0  0  0  0
    1.5872    1.0196   37.4063 C   0  0  0  0  0  0  0  0  0  0  0  0
    2.2547   -0.2270   37.2763 O   0  0  0  0  0  0  0  0  0  0  0  0
    6.9879   -0.5187   36.0398 C   0  0  1  0  0  0  0  0  0  0  0  0
    8.0815   -0.5068   36.9556 O   0  0  0  0  0  0  0  0  0  0  0  0
    5.7614   -1.1981   36.7105 C   0  0  2  0  0  0  0  0  0  0  0  0
    4.8204   -1.5392   35.6953 O   0  0  0  0  0  0  0  0  0  0  0  0
    5.0364   -0.3443   37.8020 C   0  0  1  0  0  0  0  0  0  0  0  0
    5.7053   -0.5080   39.1115 N   0  3  0  0  0  0  0  0  0  0  0  0
    4.9020    1.1420   37.3781 C   0  0  1  0  0  0  0  0  0  0  0  0
    4.4340    2.0169   38.4339 O   0  0  0  0  0  0  0  0  0  0  0  0
    6.6216    0.9276   35.6217 C   0  0  1  0  0  0  0  0  0  0  0  0
    6.1649    1.6285   36.8108 O   0  0  0  0  0  0  0  0  0  0  0  0
    7.7736    1.6900   34.9409 C   0  0  0  0  0  0  0  0  0  0  0  0
    8.2253    1.0444   33.6928 N   0  3  0  0  0  0  0  0  0  0  0  0
  1  2  1  6  0  0  0
  1  3  1  0  0  0  0
  1 10  1  0  0  0  0
  3  4  1  1  0  0  0
  3  5  1  0  0  0  0
  5  6  1  6  0  0  0
  5  7  1  0  0  0  0
  7  8  1  6  0  0  0
  7  9  1  0  0  0  0
  9 10  1  0  0  0  0
  9 11  1  6  0  0  0
 11 12  1  0  0  0  0
 13 14  1  6  0  0  0
 13 15  1  0  0  0  0
 13 22  1  0  0  0  0
 15 16  1  1  0  0  0
 15 17  1  0  0  0  0
 17 18  1  6  0  0  0
 17 19  1  0  0  0  0
 19  2  1  1  0  0  0
 19 20  1  0  0  0  0
 20 21  1  6  0  0  0
 20 22  1  0  0  0  0
 23 18  1  1  0  0  0
 23 24  1  0  0  0  0
 23 28  1  0  0  0  0
 24 25  1  6  0  0  0
 24 26  1  0  0  0  0
 26 27  1  0  0  0  0
 26 38  1  6  0  0  0
 27 28  1  0  0  0  0
 27 29  1  1  0  0  0
 29 30  1  0  0  0  0
 31 32  1  1  0  0  0
 31 33  1  0  0  0  0
 31 39  1  0  0  0  0
 33 34  1  6  0  0  0
 33 35  1  0  0  0  0
 35 36  1  1  0  0  0
 35 37  1  0  0  0  0
 37 38  1  1  0  0  0
 37 40  1  0  0  0  0
 39 40  1  0  0  0  0
 39 41  1  1  0  0  0
 41 42  1  0  0  0  0
M  CHG  5   4   1  14   1  21   1  36   1  42   1
M  END
>  <CHROM.1>
138.14111649,93.95619309,-132.93376634,-60.81708633,79.12426697,-32.06282323
179.77134506,112.98747762,55.95242739,55.26989601,-149.30064228,177.25131253
-51.32262187,-88.85846868,-94.44417804,-174.17996936,178.35785934,175.26315912
92.60259538,-128.56855150,61.02023414,161.17006640,2.21484176,3.80100334
36.06522144,-2.35973827,-0.40536814,2.49593364

>  <Name>
1pbr

>  <RI>
0

>  <Rbt.Current_Directory>
/home/itssahil/PROJECTS/Mol_Feturizer/New_Systems/rnas/1pbr

>  <Rbt.Executable>
rbdock ($Id: //depot/dev/client3/rdock/2013.1/src/exe/rbdock.cxx#4 $)

>  <Rbt.Library>
libRbt.so (2013.1, Build901 2013/11/27)

>  <Rbt.Parameter_File>
/export/apps/rDock/src/rDock_2013.1_src/data/scripts/dock_solv.prm

>  <Rbt.Receptor>
prm/blind_docking_80.prm

>  <SCORE>
-14.7617

>  <SCORE.INTER>
-33.455

>  <SCORE.INTER.CONST>
1

>  <SCORE.INTER.POLAR>
-5.2816

>  <SCORE.INTER.ROT>
9

>  <SCORE.INTER.SOLV>
30.5226

>  <SCORE.INTER.VDW>
-24.4722

>  <SCORE.INTER.norm>
-0.796547

>  <SCORE.INTRA>
16.8845

>  <SCORE.INTRA.DIHEDRAL>
11.8928

>  <SCORE.INTRA.DIHEDRAL.0>
29.7866

>  <SCORE.INTRA.POLAR>
0.887102

>  <SCORE.INTRA.POLAR.0>
-0.984091

>  <SCORE.INTRA.REPUL>
-0.274115

>  <SCORE.INTRA.REPUL.0>
0.274115

>  <SCORE.INTRA.SOLV>
3.23505

>  <SCORE.INTRA.SOLV.lig_0>
-152.978

>  <SCORE.INTRA.VDW>
7.67497

>  <SCORE.INTRA.VDW.0>
-6.10719

>  <SCORE.INTRA.norm>
0.402011

>  <SCORE.RESTR>
1.80886

>  <SCORE.RESTR.CAVITY>
1.80886

>  <SCORE.RESTR.norm>
0.0430682

>  <SCORE.SYSTEM>
0

>  <SCORE.SYSTEM.CONST>
0

>  <SCORE.SYSTEM.DIHEDRAL>
0

>  <SCORE.SYSTEM.SOLV>
0

>  <SCORE.SYSTEM.norm>
0

>  <SCORE.heavy>
42

>  <SCORE.norm>
-0.351468

>  <RMSD>
10.162

$$$$
1pbr
 OpenBabel11021811403D
libRbt.so/2013.1/901 2013/11/27
 42 45  0  0  0  0  0  0  0  0999 V2000
    0.3571    5.1529   35.6376 C   0  0  2  0  0  0  0  0  0  0  0  0
    0.0802    5.3354   34.2258 O   0  0  0  0  0  0  0  0  0  0  0  0
   -0.6183    4.0888   36.2658 C   0  0  2  0  0  0  0  0  0  0  0  0
   -0.8687    2.9008   35.4089 N   0  3  0  0  0  0  0  0  0  0  0  0
   -1.9995    4.6973   36.5735 C   0  0  1  0  0  0  0  0  0  0  0  0
   -2.7762    3.8099   37.3750 O   0  0  0  0  0  0  0  0  0  0  0  0
   -1.8599    6.0467   37.2942 C   0  0  2  0  0  0  0  0  0  0  0  0
   -3.1454    6.5725   37.6090 O   0  0  0  0  0  0  0  0  0  0  0  0
   -1.0075    7.0277   36.4589 C   0  0  2  0  0  0  0  0  0  0  0  0
    0.3012    6.4345   36.3230 O   0  0  0  0  0  0  0  0  0  0  0  0
   -0.8346    8.4062   37.0944 C   0  0  0  0  0  0  0  0  0  0  0  0
   -0.3559    9.3530   36.1484 O   0  0  0  0  0  0  0  0  0  0  0  0
    2.4061    4.6676   30.7112 C   0  0  1  0  0  0  0  0  0  0  0  0
    3.4188    4.6633   29.6396 N   0  3  0  0  0  0  0  0  0  0  0  0
    2.9402    4.0331   32.0309 C   0  0  2  0  0  0  0  0  0  0  0  0
    3.3477    2.6855   31.8059 O   0  0  0  0  0  0  0  0  0  0  0  0
    1.8499    4.0377   33.1421 C   0  0  1  0  0  0  0  0  0  0  0  0
    2.4561    3.5927   34.3917 O   0  0  0  0  0  0  0  0  0  0  0  0
    1.2229    5.4558   33.3447 C   0  0  1  0  0  0  0  0  0  0  0  0
    0.7415    6.1030   32.0068 C   0  0  1  0  0  0  0  0  0  0  0  0
    0.2455    7.4813   32.2164 N   0  3  0  0  0  0  0  0  0  0  0  0
    1.8867    6.1137   30.9614 C   0  0  0  0  0  0  0  0  0  0  0  0
    2.4478    2.1721   34.7433 C   0  0  1  0  0  0  0  0  0  0  0  0
    3.7908    1.8214   35.4109 C   0  0  2  0  0  0  0  0  0  0  0  0
    4.0948    0.4383   35.2539 O   0  0  0  0  0  0  0  0  0  0  0  0
    3.4386    2.1786   36.8629 C   0  0  1  0  0  0  0  0  0  0  0  0
    2.0392    1.6042   37.0086 C   0  0  2  0  0  0  0  0  0  0  0  0
    1.4556    1.9125   35.7520 O   0  0  0  0  0  0  0  0  0  0  0  0
    1.2023    2.2030   38.1465 C   0  0  0  0  0  0  0  0  0  0  0  0
   -0.0348    1.5145   38.2560 O   0  0  0  0  0  0  0  0  0  0  0  0
    7.5016   -1.2260   37.2330 C   0  0  1  0  0  0  0  0  0  0  0  0
    8.4443   -0.5699   38.0790 O   0  0  0  0  0  0  0  0  0  0  0  0
    6.2924   -1.7058   38.0836 C   0  0  2  0  0  0  0  0  0  0  0  0
    5.5567   -2.6635   37.3260 O   0  0  0  0  0  0  0  0  0  0  0  0
    5.3155   -0.5790   38.5545 C   0  0  1  0  0  0  0  0  0  0  0  0
    5.8089    0.0403   39.8043 N   0  3  0  0  0  0  0  0  0  0  0  0
    5.0489    0.4603   37.4340 C   0  0  1  0  0  0  0  0  0  0  0  0
    4.3264    1.6350   37.8782 O   0  0  0  0  0  0  0  0  0  0  0  0
    7.0118   -0.2607   36.1245 C   0  0  1  0  0  0  0  0  0  0  0  0
    6.3044    0.8322   36.7717 O   0  0  0  0  0  0  0  0  0  0  0  0
    8.1384    0.2714   35.2192 C   0  0  0  0  0  0  0  0  0  0  0  0
    9.1519    1.0434   35.9645 N   0  3  0  0  0  0  0  0  0  0  0  0
  1  2  1  6  0  0  0
  1  3  1  0  0  0  0
  1 10  1  0  0  0  0
  3  4  1  6  0  0  0
  3  5  1  0  0  0  0
  5  6  1  1  0  0  0
  5  7  1  0  0  0  0
  7  8  1  6  0  0  0
  7  9  1  0  0  0  0
  9 10  1  0  0  0  0
  9 11  1  1  0  0  0
 11 12  1  0  0  0  0
 13 14  1  6  0  0  0
 13 15  1  0  0  0  0
 13 22  1  0  0  0  0
 15 16  1  6  0  0  0
 15 17  1  0  0  0  0
 17 18  1  1  0  0  0
 17 19  1  0  0  0  0
 19  2  1  1  0  0  0
 19 20  1  0  0  0  0
 20 21  1  1  0  0  0
 20 22  1  0  0  0  0
 23 18  1  1  0  0  0
 23 24  1  0  0  0  0
 23 28  1  0  0  0  0
 24 25  1  1  0  0  0
 24 26  1  0  0  0  0
 26 27  1  0  0  0  0
 26 38  1  1  0  0  0
 27 28  1  0  0  0  0
 27 29  1  1  0  0  0
 29 30  1  0  0  0  0
 31 32  1  1  0  0  0
 31 33  1  0  0  0  0
 31 39  1  0  0  0  0
 33 34  1  6  0  0  0
 33 35  1  0  0  0  0
 35 36  1  1  0  0  0
 35 37  1  0  0  0  0
 37 38  1  1  0  0  0
 37 40  1  0  0  0  0
 39 40  1  0  0  0  0
 39 41  1  1  0  0  0
 41 42  1  0  0  0  0
M  CHG  5   4   1  14   1  21   1  36   1  42   1
M  END
>  <CHROM.1>
-138.80088528,75.66994591,178.58149258,14.32443447,70.45468267,-164.72971363
74.90015700,70.53447087,-54.99931659,-90.89979876,141.62089769,97.07636431
84.87001225,-22.95985769,-175.10038020,179.71087552,65.90567405,-53.62404970
72.77496926,-146.40685439,-61.01881712,-69.86533295,2.50559331,3.08441418
35.64845030,2.61598129,0.58948430,-1.08542966

>  <Name>
1pbr

>  <RI>
0

>  <Rbt.Current_Directory>
/home/itssahil/PROJECTS/Mol_Feturizer/New_Systems/rnas/1pbr

>  <Rbt.Executable>
rbdock ($Id: //depot/dev/client3/rdock/2013.1/src/exe/rbdock.cxx#4 $)

>  <Rbt.Library>
libRbt.so (2013.1, Build901 2013/11/27)

>  <Rbt.Parameter_File>
/export/apps/rDock/src/rDock_2013.1_src/data/scripts/dock_solv.prm

>  <Rbt.Receptor>
prm/blind_docking_40.prm

>  <SCORE>
6.89111

>  <SCORE.INTER>
-4.08353

>  <SCORE.INTER.CONST>
1

>  <SCORE.INTER.POLAR>
-3.49295

>  <SCORE.INTER.ROT>
9

>  <SCORE.INTER.SOLV>
27.6468

>  <SCORE.INTER.VDW>
-9.89478

>  <SCORE.INTER.norm>
-0.0972269

>  <SCORE.INTRA>
9.54925

>  <SCORE.INTRA.DIHEDRAL>
10.2107

>  <SCORE.INTRA.DIHEDRAL.0>
29.7866

>  <SCORE.INTRA.POLAR>
-0.650673

>  <SCORE.INTRA.POLAR.0>
-0.984091

>  <SCORE.INTRA.REPUL>
-0.274115

>  <SCORE.INTRA.REPUL.0>
0.274115

>  <SCORE.INTRA.SOLV>
5.51337

>  <SCORE.INTRA.SOLV.lig_0>
-152.978

>  <SCORE.INTRA.VDW>
5.27009

>  <SCORE.INTRA.VDW.0>
-6.10719

>  <SCORE.INTRA.norm>
0.227363

>  <SCORE.RESTR>
1.42539

>  <SCORE.RESTR.CAVITY>
1.42539

>  <SCORE.RESTR.norm>
0.0339379

>  <SCORE.SYSTEM>
0

>  <SCORE.SYSTEM.CONST>
0

>  <SCORE.SYSTEM.DIHEDRAL>
0

>  <SCORE.SYSTEM.SOLV>
0

>  <SCORE.SYSTEM.norm>
0

>  <SCORE.heavy>
42

>  <SCORE.norm>
0.164074

>  <RMSD>
10.182

$$$$
1pbr
 OpenBabel11021811403D
libRbt.so/2013.1/901 2013/11/27
 42 45  0  0  0  0  0  0  0  0999 V2000
   -0.4835    5.7149   34.3832 C   0  0  2  0  0  0  0  0  0  0  0  0
    0.8847    5.3348   34.6773 O   0  0  0  0  0  0  0  0  0  0  0  0
   -0.9479    6.8970   35.3134 C   0  0  2  0  0  0  0  0  0  0  0  0
    0.0762    7.9527   35.5258 N   0  3  0  0  0  0  0  0  0  0  0  0
   -1.3455    6.3941   36.7139 C   0  0  1  0  0  0  0  0  0  0  0  0
   -2.0072    7.4198   37.4510 O   0  0  0  0  0  0  0  0  0  0  0  0
   -2.2592    5.1628   36.6193 C   0  0  2  0  0  0  0  0  0  0  0  0
   -2.6514    4.7390   37.9211 O   0  0  0  0  0  0  0  0  0  0  0  0
   -1.5780    4.0367   35.8105 C   0  0  2  0  0  0  0  0  0  0  0  0
   -1.3526    4.5528   34.4815 O   0  0  0  0  0  0  0  0  0  0  0  0
   -2.4116    2.7626   35.6843 C   0  0  0  0  0  0  0  0  0  0  0  0
   -2.7582    2.2452   36.9620 O   0  0  0  0  0  0  0  0  0  0  0  0
    2.1839    4.6514   30.6707 C   0  0  1  0  0  0  0  0  0  0  0  0
    2.9172    4.5664   29.3944 N   0  3  0  0  0  0  0  0  0  0  0  0
    2.8032    3.7356   31.7695 C   0  0  2  0  0  0  0  0  0  0  0  0
    2.8017    2.3753   31.3425 O   0  0  0  0  0  0  0  0  0  0  0  0
    2.0048    3.8330   33.1024 C   0  0  1  0  0  0  0  0  0  0  0  0
    2.7253    3.0932   34.1323 O   0  0  0  0  0  0  0  0  0  0  0  0
    1.8119    5.3141   33.5653 C   0  0  1  0  0  0  0  0  0  0  0  0
    1.2420    6.2328   32.4376 C   0  0  1  0  0  0  0  0  0  0  0  0
    1.1642    7.6448   32.8731 N   0  3  0  0  0  0  0  0  0  0  0  0
    2.1096    6.1285   31.1567 C   0  0  0  0  0  0  0  0  0  0  0  0
    2.1729    2.9953   35.4840 C   0  0  1  0  0  0  0  0  0  0  0  0
    2.5412    1.6189   36.0688 C   0  0  2  0  0  0  0  0  0  0  0  0
    1.6082    1.2215   37.0697 O   0  0  0  0  0  0  0  0  0  0  0  0
    3.9154    1.9681   36.6601 C   0  0  1  0  0  0  0  0  0  0  0  0
    3.6582    3.3209   37.3031 C   0  0  2  0  0  0  0  0  0  0  0  0
    2.8090    3.9479   36.3543 O   0  0  0  0  0  0  0  0  0  0  0  0
    4.9080    4.1764   37.5476 C   0  0  0  0  0  0  0  0  0  0  0  0
    6.0720    3.4595   37.1635 O   0  0  0  0  0  0  0  0  0  0  0  0
    6.0358   -2.9435   37.0200 C   0  0  1  0  0  0  0  0  0  0  0  0
    5.4541   -3.5037   38.1958 O   0  0  0  0  0  0  0  0  0  0  0  0
    4.9072   -2.4879   36.0535 C   0  0  2  0  0  0  0  0  0  0  0  0
    5.4721   -2.2849   34.7603 O   0  0  0  0  0  0  0  0  0  0  0  0
    4.1444   -1.1905   36.4785 C   0  0  1  0  0  0  0  0  0  0  0  0
    3.0534   -1.5209   37.4217 N   0  3  0  0  0  0  0  0  0  0  0  0
    5.1086   -0.1081   37.0312 C   0  0  1  0  0  0  0  0  0  0  0  0
    4.4390    1.0256   37.6359 O   0  0  0  0  0  0  0  0  0  0  0  0
    6.9305   -1.7331   37.3877 C   0  0  1  0  0  0  0  0  0  0  0  0
    6.0731   -0.7081   37.9602 O   0  0  0  0  0  0  0  0  0  0  0  0
    8.0873   -2.0809   38.3432 C   0  0  0  0  0  0  0  0  0  0  0  0
    8.9647   -0.9267   38.6199 N   0  3  0  0  0  0  0  0  0  0  0  0
  1  2  1  1  0  0  0
  1  3  1  0  0  0  0
  1 10  1  0  0  0  0
  3  4  1  1  0  0  0
  3  5  1  0  0  0  0
  5  6  1  6  0  0  0
  5  7  1  0  0  0  0
  7  8  1  1  0  0  0
  7  9  1  0  0  0  0
  9 10  1  0  0  0  0
  9 11  1  6  0  0  0
 11 12  1  0  0  0  0
 13 14  1  6  0  0  0
 13 15  1  0  0  0  0
 13 22  1  0  0  0  0
 15 16  1  6  0  0  0
 15 17  1  0  0  0  0
 17 18  1  1  0  0  0
 17 19  1  0  0  0  0
 19  2  1  1  0  0  0
 19 20  1  0  0  0  0
 20 21  1  1  0  0  0
 20 22  1  0  0  0  0
 23 18  1  6  0  0  0
 23 24  1  0  0  0  0
 23 28  1  0  0  0  0
 24 25  1  1  0  0  0
 24 26  1  0  0  0  0
 26 27  1  0  0  0  0
 26 38  1  1  0  0  0
 27 28  1  0  0  0  0
 27 29  1  6  0  0  0
 29 30  1  0  0  0  0
 31 32  1  1  0  0  0
 31 33  1  0  0  0  0
 31 39  1  0  0  0  0
 33 34  1  6  0  0  0
 33 35  1  0  0  0  0
 35 36  1  1  0  0  0
 35 37  1  0  0  0  0
 37 38  1  1  0  0  0
 37 40  1  0  0  0  0
 39 40  1  0  0  0  0
 39 41  1  1  0  0  0
 41 42  1  0  0  0  0
M  CHG  5   4   1  14   1  21   1  36   1  42   1
M  END
>  <CHROM.1>
-126.22855885,-100.91306387,-17.82625288,-68.25473178,68.96701043,-57.10035513
171.88403326,-173.96386586,-42.53719386,-178.50402716,145.90515753,-88.45553211
-47.58213554,83.37703887,-2.90510036,-65.62045122,67.67078513,45.22315854
-165.41386639,-78.24887427,176.95806927,-55.36212200,2.41411890,2.73063447
35.56671144,2.45604439,0.60298887,-0.97651091

>  <Name>
1pbr

>  <RI>
0

>  <Rbt.Current_Directory>
/home/itssahil/PROJECTS/Mol_Feturizer/New_Systems/rnas/1pbr

>  <Rbt.Executable>
rbdock ($Id: //depot/dev/client3/rdock/2013.1/src/exe/rbdock.cxx#4 $)

>  <Rbt.Library>
libRbt.so (2013.1, Build901 2013/11/27)

>  <Rbt.Parameter_File>
/export/apps/rDock/src/rDock_2013.1_src/data/scripts/dock_solv.prm

>  <Rbt.Receptor>
prm/blind_docking_40.prm

>  <SCORE>
15.3445

>  <SCORE.INTER>
1.24104

>  <SCORE.INTER.CONST>
1

>  <SCORE.INTER.POLAR>
-3.17081

>  <SCORE.INTER.ROT>
9

>  <SCORE.INTER.SOLV>
31.1997

>  <SCORE.INTER.VDW>
-8.60318

>  <SCORE.INTER.norm>
0.0295486

>  <SCORE.INTRA>
11.7511

>  <SCORE.INTRA.DIHEDRAL>
6.56482

>  <SCORE.INTRA.DIHEDRAL.0>
29.7866

>  <SCORE.INTRA.POLAR>
-0.25002

>  <SCORE.INTRA.POLAR.0>
-0.984091

>  <SCORE.INTRA.REPUL>
-0.0890246

>  <SCORE.INTRA.REPUL.0>
0.274115

>  <SCORE.INTRA.SOLV>
6.23374

>  <SCORE.INTRA.SOLV.lig_0>
-152.978

>  <SCORE.INTRA.VDW>
6.64697

>  <SCORE.INTRA.VDW.0>
-6.10719

>  <SCORE.INTRA.norm>
0.279787

>  <SCORE.RESTR>
2.35243

>  <SCORE.RESTR.CAVITY>
2.35243

>  <SCORE.RESTR.norm>
0.0560101

>  <SCORE.SYSTEM>
0

>  <SCORE.SYSTEM.CONST>
0

>  <SCORE.SYSTEM.DIHEDRAL>
0

>  <SCORE.SYSTEM.SOLV>
0

>  <SCORE.SYSTEM.norm>
0

>  <SCORE.heavy>
42

>  <SCORE.norm>
0.365346

>  <RMSD>
10.194

$$$$
1pbr
 OpenBabel11021811403D
libRbt.so/2013.1/901 2013/11/27
 42 45  0  0  0  0  0  0  0  0999 V2000
    0.5361    5.4194   35.9173 C   0  0  2  0  0  0  0  0  0  0  0  0
    0.2794    5.2464   34.5005 O   0  0  0  0  0  0  0  0  0  0  0  0
   -0.6518    4.8442   36.7752 C   0  0  2  0  0  0  0  0  0  0  0  0
   -1.1996    3.5537   36.2823 N   0  3  0  0  0  0  0  0  0  0  0  0
   -1.8391    5.8240   36.8290 C   0  0  1  0  0  0  0  0  0  0  0  0
   -2.7880    5.4159   37.8120 O   0  0  0  0  0  0  0  0  0  0  0  0
   -1.3633    7.2511   37.1402 C   0  0  2  0  0  0  0  0  0  0  0  0
   -2.4774    8.1337   37.2290 O   0  0  0  0  0  0  0  0  0  0  0  0
   -0.3193    7.7185   36.1018 C   0  0  2  0  0  0  0  0  0  0  0  0
    0.8053    6.8196   36.2046 O   0  0  0  0  0  0  0  0  0  0  0  0
    0.1940    9.1401   36.3246 C   0  0  0  0  0  0  0  0  0  0  0  0
   -0.0964    9.9732   35.2101 O   0  0  0  0  0  0  0  0  0  0  0  0
    2.4804    4.7024   30.8856 C   0  0  1  0  0  0  0  0  0  0  0  0
    3.4764    4.6980   29.7985 N   0  3  0  0  0  0  0  0  0  0  0  0
    2.9472    3.8691   32.1174 C   0  0  2  0  0  0  0  0  0  0  0  0
    3.1909    2.5162   31.7395 O   0  0  0  0  0  0  0  0  0  0  0  0
    1.8744    3.8785   33.2455 C   0  0  1  0  0  0  0  0  0  0  0  0
    2.4345    3.2315   34.4266 O   0  0  0  0  0  0  0  0  0  0  0  0
    1.4209    5.3290   33.6134 C   0  0  1  0  0  0  0  0  0  0  0  0
    1.0078    6.1708   32.3639 C   0  0  1  0  0  0  0  0  0  0  0  0
    0.6797    7.5660   32.7316 N   0  3  0  0  0  0  0  0  0  0  0  0
    2.1374    6.1628   31.3016 C   0  0  0  0  0  0  0  0  0  0  0  0
    1.7264    2.1146   35.0535 C   0  0  1  0  0  0  0  0  0  0  0  0
    2.7571    1.0484   35.4694 C   0  0  2  0  0  0  0  0  0  0  0  0
    2.1594   -0.2433   35.5352 O   0  0  0  0  0  0  0  0  0  0  0  0
    3.1199    1.5932   36.8592 C   0  0  1  0  0  0  0  0  0  0  0  0
    1.7622    1.9821   37.4204 C   0  0  2  0  0  0  0  0  0  0  0  0
    1.1161    2.5380   36.2855 O   0  0  0  0  0  0  0  0  0  0  0  0
    1.7966    3.0011   38.5668 C   0  0  0  0  0  0  0  0  0  0  0  0
    0.4752    3.3035   38.9897 O   0  0  0  0  0  0  0  0  0  0  0  0
    6.3347   -2.7314   36.8852 C   0  0  1  0  0  0  0  0  0  0  0  0
    6.0997   -3.3912   38.1279 O   0  0  0  0  0  0  0  0  0  0  0  0
    5.0021   -2.6388   36.0907 C   0  0  2  0  0  0  0  0  0  0  0  0
    5.3046   -2.3306   34.7320 O   0  0  0  0  0  0  0  0  0  0  0  0
    3.9736   -1.5900   36.6275 C   0  0  1  0  0  0  0  0  0  0  0  0
    3.1585   -2.1779   37.7133 N   0  3  0  0  0  0  0  0  0  0  0  0
    4.6641   -0.2650   37.0452 C   0  0  1  0  0  0  0  0  0  0  0  0
    3.7947    0.6585   37.7455 O   0  0  0  0  0  0  0  0  0  0  0  0
    6.8980   -1.3090   37.1303 C   0  0  1  0  0  0  0  0  0  0  0  0
    5.8758   -0.5430   37.8248 O   0  0  0  0  0  0  0  0  0  0  0  0
    8.2258   -1.2906   37.9106 C   0  0  0  0  0  0  0  0  0  0  0  0
    8.1101   -1.9063   39.2471 N   0  3  0  0  0  0  0  0  0  0  0  0
  1  2  1  6  0  0  0
  1  3  1  0  0  0  0
  1 10  1  0  0  0  0
  3  4  1  6  0  0  0
  3  5  1  0  0  0  0
  5  6  1  1  0  0  0
  5  7  1  0  0  0  0
  7  8  1  6  0  0  0
  7  9  1  0  0  0  0
  9 10  1  0  0  0  0
  9 11  1  1  0  0  0
 11 12  1  0  0  0  0
 13 14  1  6  0  0  0
 13 15  1  0  0  0  0
 13 22  1  0  0  0  0
 15 16  1  6  0  0  0
 15 17  1  0  0  0  0
 17 18  1  1  0  0  0
 17 19  1  0  0  0  0
 19  2  1  1  0  0  0
 19 20  1  0  0  0  0
 20 21  1  1  0  0  0
 20 22  1  0  0  0  0
 23 18  1  1  0  0  0
 23 24  1  0  0  0  0
 23 28  1  0  0  0  0
 24 25  1  1  0  0  0
 24 26  1  0  0  0  0
 26 27  1  0  0  0  0
 26 38  1  1  0  0  0
 27 28  1  0  0  0  0
 27 29  1  1  0  0  0
 29 30  1  0  0  0  0
 31 32  1  1  0  0  0
 31 33  1  0  0  0  0
 31 39  1  0  0  0  0
 33 34  1  6  0  0  0
 33 35  1  0  0  0  0
 35 36  1  1  0  0  0
 35 37  1  0  0  0  0
 37 38  1  1  0  0  0
 37 40  1  0  0  0  0
 39 40  1  0  0  0  0
 39 41  1  1  0  0  0
 41 42  1  0  0  0  0
M  CHG  5   4   1  14   1  21   1  36   1  42   1
M  END
>  <CHROM.1>
-161.13466468,99.85007453,-176.90253267,-75.58626911,-179.00755927,-119.42494838
-93.90953945,-56.63301679,-175.86306133,-125.74848154,139.36671069,154.82918033
-51.16002378,33.37072529,178.93428888,-165.29591776,-63.38557226,50.85455394
147.90699047,-91.23162777,-59.79560733,170.09292951,2.25062224,2.92511505
35.73414620,2.53897336,0.83937697,-1.06754534

>  <Name>
1pbr

>  <RI>
0

>  <Rbt.Current_Directory>
/home/itssahil/PROJECTS/Mol_Feturizer/New_Systems/rnas/1pbr

>  <Rbt.Executable>
rbdock ($Id: //depot/dev/client3/rdock/2013.1/src/exe/rbdock.cxx#4 $)

>  <Rbt.Library>
libRbt.so (2013.1, Build901 2013/11/27)

>  <Rbt.Parameter_File>
/export/apps/rDock/src/rDock_2013.1_src/data/scripts/dock_solv.prm

>  <Rbt.Receptor>
prm/blind_docking_40.prm

>  <SCORE>
15.1783

>  <SCORE.INTER>
1.51424

>  <SCORE.INTER.CONST>
1

>  <SCORE.INTER.POLAR>
-4.3596

>  <SCORE.INTER.ROT>
9

>  <SCORE.INTER.SOLV>
24.1584

>  <SCORE.INTER.VDW>
-2.11131

>  <SCORE.INTER.norm>
0.0360534

>  <SCORE.INTRA>
11.09

>  <SCORE.INTRA.DIHEDRAL>
13.6283

>  <SCORE.INTRA.DIHEDRAL.0>
29.7866

>  <SCORE.INTRA.POLAR>
-0.45187

>  <SCORE.INTRA.POLAR.0>
-0.984091

>  <SCORE.INTRA.REPUL>
-0.274115

>  <SCORE.INTRA.REPUL.0>
0.274115

>  <SCORE.INTRA.SOLV>
9.3338

>  <SCORE.INTRA.SOLV.lig_0>
-152.978

>  <SCORE.INTRA.VDW>
2.51591

>  <SCORE.INTRA.VDW.0>
-6.10719

>  <SCORE.INTRA.norm>
0.264048

>  <SCORE.RESTR>
2.57408

>  <SCORE.RESTR.CAVITY>
2.57408

>  <SCORE.RESTR.norm>
0.0612877

>  <SCORE.SYSTEM>
0

>  <SCORE.SYSTEM.CONST>
0

>  <SCORE.SYSTEM.DIHEDRAL>
0

>  <SCORE.SYSTEM.SOLV>
0

>  <SCORE.SYSTEM.norm>
0

>  <SCORE.heavy>
42

>  <SCORE.norm>
0.361389

>  <RMSD>
10.236

$$$$
1pbr
 OpenBabel11021811403D
libRbt.so/2013.1/901 2013/11/27
 42 45  0  0  0  0  0  0  0  0999 V2000
    0.0422    5.4214   35.6511 C   0  0  2  0  0  0  0  0  0  0  0  0
   -0.2675    5.5613   34.2412 O   0  0  0  0  0  0  0  0  0  0  0  0
   -0.9916    4.4683   36.3589 C   0  0  2  0  0  0  0  0  0  0  0  0
   -1.3635    3.2665   35.5679 N   0  3  0  0  0  0  0  0  0  0  0  0
   -2.3095    5.1985   36.6790 C   0  0  1  0  0  0  0  0  0  0  0  0
   -3.1257    4.4133   37.5453 O   0  0  0  0  0  0  0  0  0  0  0  0
   -2.0400    6.5637   37.3297 C   0  0  2  0  0  0  0  0  0  0  0  0
   -3.2688    7.2044   37.6579 O   0  0  0  0  0  0  0  0  0  0  0  0
   -1.1423    7.4345   36.4229 C   0  0  2  0  0  0  0  0  0  0  0  0
    0.1105    6.7331   36.2758 O   0  0  0  0  0  0  0  0  0  0  0  0
   -0.8402    8.8222   36.9860 C   0  0  0  0  0  0  0  0  0  0  0  0
   -0.6230    9.7647   35.9444 O   0  0  0  0  0  0  0  0  0  0  0  0
    2.1154    4.8955   30.7647 C   0  0  1  0  0  0  0  0  0  0  0  0
    3.1194    4.9259   29.6854 N   0  3  0  0  0  0  0  0  0  0  0  0
    2.7242    4.4375   32.1246 C   0  0  2  0  0  0  0  0  0  0  0  0
    3.2899    3.1345   32.0030 O   0  0  0  0  0  0  0  0  0  0  0  0
    1.6431    4.4012   33.2442 C   0  0  1  0  0  0  0  0  0  0  0  0
    2.3006    4.1337   34.5183 O   0  0  0  0  0  0  0  0  0  0  0  0
    0.8510    5.7460   33.3404 C   0  0  1  0  0  0  0  0  0  0  0  0
    0.2930    6.2214   31.9608 C   0  0  1  0  0  0  0  0  0  0  0  0
   -0.3643    7.5430   32.0656 N   0  3  0  0  0  0  0  0  0  0  0  0
    1.4268    6.2846   30.9049 C   0  0  0  0  0  0  0  0  0  0  0  0
    1.7484    3.1306   35.4297 C   0  0  1  0  0  0  0  0  0  0  0  0
    2.0655    1.7302   34.8726 C   0  0  2  0  0  0  0  0  0  0  0  0
    1.1207    0.7692   35.3349 O   0  0  0  0  0  0  0  0  0  0  0  0
    3.4535    1.5300   35.4997 C   0  0  1  0  0  0  0  0  0  0  0  0
    3.2497    2.0503   36.9130 C   0  0  2  0  0  0  0  0  0  0  0  0
    2.4225    3.1838   36.6995 O   0  0  0  0  0  0  0  0  0  0  0  0
    4.5318    2.4571   37.6507 C   0  0  0  0  0  0  0  0  0  0  0  0
    4.9739    3.7274   37.1953 O   0  0  0  0  0  0  0  0  0  0  0  0
    7.2443   -1.4591   37.7929 C   0  0  1  0  0  0  0  0  0  0  0  0
    6.6591   -2.7471   37.9756 O   0  0  0  0  0  0  0  0  0  0  0  0
    7.4928   -1.2162   36.2780 C   0  0  2  0  0  0  0  0  0  0  0  0
    8.3972   -0.1232   36.1363 O   0  0  0  0  0  0  0  0  0  0  0  0
    6.2133   -0.9238   35.4277 C   0  0  1  0  0  0  0  0  0  0  0  0
    5.5740   -2.1904   35.0080 N   0  3  0  0  0  0  0  0  0  0  0  0
    5.2343    0.0273   36.1651 C   0  0  1  0  0  0  0  0  0  0  0  0
    3.9435    0.1610   35.5208 O   0  0  0  0  0  0  0  0  0  0  0  0
    6.3076   -0.3592   38.3528 C   0  0  1  0  0  0  0  0  0  0  0  0
    5.0845   -0.3791   37.5671 O   0  0  0  0  0  0  0  0  0  0  0  0
    6.0004   -0.5077   39.8546 C   0  0  0  0  0  0  0  0  0  0  0  0
    5.2427    0.6368   40.3974 N   0  3  0  0  0  0  0  0  0  0  0  0
  1  2  1  6  0  0  0
  1  3  1  0  0  0  0
  1 10  1  0  0  0  0
  3  4  1  6  0  0  0
  3  5  1  0  0  0  0
  5  6  1  1  0  0  0
  5  7  1  0  0  0  0
  7  8  1  6  0  0  0
  7  9  1  0  0  0  0
  9 10  1  0  0  0  0
  9 11  1  1  0  0  0
 11 12  1  0  0  0  0
 13 14  1  6  0  0  0
 13 15  1  0  0  0  0
 13 22  1  0  0  0  0
 15 16  1  6  0  0  0
 15 17  1  0  0  0  0
 17 18  1  1  0  0  0
 17 19  1  0  0  0  0
 19  2  1  1  0  0  0
 19 20  1  0  0  0  0
 20 21  1  1  0  0  0
 20 22  1  0  0  0  0
 23 18  1  6  0  0  0
 23 24  1  0  0  0  0
 23 28  1  0  0  0  0
 24 25  1  1  0  0  0
 24 26  1  0  0  0  0
 26 27  1  0  0  0  0
 26 38  1  1  0  0  0
 27 28  1  0  0  0  0
 27 29  1  6  0  0  0
 29 30  1  0  0  0  0
 31 32  1  6  0  0  0
 31 33  1  0  0  0  0
 31 39  1  0  0  0  0
 33 34  1  1  0  0  0
 33 35  1  0  0  0  0
 35 36  1  1  0  0  0
 35 37  1  0  0  0  0
 37 38  1  6  0  0  0
 37 40  1  0  0  0  0
 39 40  1  0  0  0  0
 39 41  1  1  0  0  0
 41 42  1  0  0  0  0
M  CHG  5   4   1  14   1  21   1  36   1  42   1
M  END
>  <CHROM.1>
-147.55200584,70.94053527,-40.17155900,-148.26964713,-62.07154754,-151.09006734
66.90641287,-157.33204961,167.85674889,-133.61568754,74.70617414,-150.15128325
-55.00109862,-177.96063230,77.77287212,-177.55545981,57.19434608,178.06749197
177.24966839,-137.86010113,173.09131707,72.14577830,2.33962488,3.23467372
35.56707895,2.69165156,0.73030721,-1.24008665

>  <Name>
1pbr

>  <RI>
0

>  <Rbt.Current_Directory>
/home/itssahil/PROJECTS/Mol_Feturizer/New_Systems/rnas/1pbr

>  <Rbt.Executable>
rbdock ($Id: //depot/dev/client3/rdock/2013.1/src/exe/rbdock.cxx#4 $)

>  <Rbt.Library>
libRbt.so (2013.1, Build901 2013/11/27)

>  <Rbt.Parameter_File>
/export/apps/rDock/src/rDock_2013.1_src/data/scripts/dock_solv.prm

>  <Rbt.Receptor>
prm/blind_docking_40.prm

>  <SCORE>
-5.76728

>  <SCORE.INTER>
-14.2491

>  <SCORE.INTER.CONST>
1

>  <SCORE.INTER.POLAR>
-5.01648

>  <SCORE.INTER.ROT>
9

>  <SCORE.INTER.SOLV>
33.5734

>  <SCORE.INTER.VDW>
-13.569

>  <SCORE.INTER.norm>
-0.339265

>  <SCORE.INTRA>
5.45302

>  <SCORE.INTRA.DIHEDRAL>
1.38459

>  <SCORE.INTRA.DIHEDRAL.0>
29.7866

>  <SCORE.INTRA.POLAR>
0.923816

>  <SCORE.INTRA.POLAR.0>
-0.984091

>  <SCORE.INTRA.REPUL>
-0.113295

>  <SCORE.INTRA.REPUL.0>
0.274115

>  <SCORE.INTRA.SOLV>
0.0045959

>  <SCORE.INTRA.SOLV.lig_0>
-152.978

>  <SCORE.INTRA.VDW>
2.18393

>  <SCORE.INTRA.VDW.0>
-6.10719

>  <SCORE.INTRA.norm>
0.129834

>  <SCORE.RESTR>
3.02885

>  <SCORE.RESTR.CAVITY>
3.02885

>  <SCORE.RESTR.norm>
0.0721154

>  <SCORE.SYSTEM>
0

>  <SCORE.SYSTEM.CONST>
0

>  <SCORE.SYSTEM.DIHEDRAL>
0

>  <SCORE.SYSTEM.SOLV>
0

>  <SCORE.SYSTEM.norm>
0

>  <SCORE.heavy>
42

>  <SCORE.norm>
-0.137316

>  <RMSD>
10.248

$$$$
1pbr
 OpenBabel11021811403D
libRbt.so/2013.1/901 2013/11/27
 42 45  0  0  0  0  0  0  0  0999 V2000
    0.5710    5.6246   35.8134 C   0  0  2  0  0  0  0  0  0  0  0  0
    0.3486    5.1602   34.4576 O   0  0  0  0  0  0  0  0  0  0  0  0
   -0.4951    5.0119   36.7964 C   0  0  2  0  0  0  0  0  0  0  0  0
   -0.8044    3.5787   36.5545 N   0  3  0  0  0  0  0  0  0  0  0  0
   -1.8380    5.7622   36.7160 C   0  0  1  0  0  0  0  0  0  0  0  0
   -2.6985    5.3755   37.7852 O   0  0  0  0  0  0  0  0  0  0  0  0
   -1.6238    7.2828   36.7574 C   0  0  2  0  0  0  0  0  0  0  0  0
   -2.8774    7.9580   36.7262 O   0  0  0  0  0  0  0  0  0  0  0  0
   -0.6803    7.7338   35.6204 C   0  0  2  0  0  0  0  0  0  0  0  0
    0.5865    7.0787   35.8426 O   0  0  0  0  0  0  0  0  0  0  0  0
   -0.4285    9.2399   35.5745 C   0  0  0  0  0  0  0  0  0  0  0  0
    0.0628    9.7181   36.8197 O   0  0  0  0  0  0  0  0  0  0  0  0
    2.5061    4.5378   30.8292 C   0  0  1  0  0  0  0  0  0  0  0  0
    3.4780    4.5302   29.7205 N   0  3  0  0  0  0  0  0  0  0  0  0
    3.0505    3.8117   32.0966 C   0  0  2  0  0  0  0  0  0  0  0  0
    3.3731    2.4565   31.7937 O   0  0  0  0  0  0  0  0  0  0  0  0
    2.0025    3.8219   33.2477 C   0  0  1  0  0  0  0  0  0  0  0  0
    2.6270    3.2844   34.4512 O   0  0  0  0  0  0  0  0  0  0  0  0
    1.4641    5.2606   33.5399 C   0  0  1  0  0  0  0  0  0  0  0  0
    0.9724    5.9973   32.2530 C   0  0  1  0  0  0  0  0  0  0  0  0
    0.5627    7.3888   32.5453 N   0  3  0  0  0  0  0  0  0  0  0  0
    2.0783    5.9962   31.1661 C   0  0  0  0  0  0  0  0  0  0  0  0
    2.3492    1.9090   34.8672 C   0  0  1  0  0  0  0  0  0  0  0  0
    3.6201    1.3217   35.5090 C   0  0  2  0  0  0  0  0  0  0  0  0
    3.6358   -0.0994   35.4060 O   0  0  0  0  0  0  0  0  0  0  0  0
    3.4030    1.7981   36.9532 C   0  0  1  0  0  0  0  0  0  0  0  0
    1.9239    1.5227   37.1674 C   0  0  2  0  0  0  0  0  0  0  0  0
    1.3650    1.8932   35.9164 O   0  0  0  0  0  0  0  0  0  0  0  0
    1.2682    2.3208   38.3017 C   0  0  0  0  0  0  0  0  0  0  0  0
    0.2956    1.5228   38.9602 O   0  0  0  0  0  0  0  0  0  0  0  0
    7.8397   -1.0239   37.0511 C   0  0  1  0  0  0  0  0  0  0  0  0
    8.6599   -0.2866   37.9558 O   0  0  0  0  0  0  0  0  0  0  0  0
    6.7547   -1.7967   37.8520 C   0  0  2  0  0  0  0  0  0  0  0  0
    6.1950   -2.7990   37.0068 O   0  0  0  0  0  0  0  0  0  0  0  0
    5.5952   -0.9193   38.4278 C   0  0  1  0  0  0  0  0  0  0  0  0
    5.9878   -0.3388   39.7309 N   0  3  0  0  0  0  0  0  0  0  0  0
    5.1221    0.1528   37.4111 C   0  0  1  0  0  0  0  0  0  0  0  0
    4.2033    1.1266   37.9648 O   0  0  0  0  0  0  0  0  0  0  0  0
    7.1610   -0.0668   36.0393 C   0  0  1  0  0  0  0  0  0  0  0  0
    6.2758    0.8110   36.7874 O   0  0  0  0  0  0  0  0  0  0  0  0
    8.1543    0.7470   35.1888 C   0  0  0  0  0  0  0  0  0  0  0  0
    8.4922    0.0823   33.9150 N   0  3  0  0  0  0  0  0  0  0  0  0
  1  2  1  6  0  0  0
  1  3  1  0  0  0  0
  1 10  1  0  0  0  0
  3  4  1  6  0  0  0
  3  5  1  0  0  0  0
  5  6  1  1  0  0  0
  5  7  1  0  0  0  0
  7  8  1  6  0  0  0
  7  9  1  0  0  0  0
  9 10  1  0  0  0  0
  9 11  1  1  0  0  0
 11 12  1  0  0  0  0
 13 14  1  6  0  0  0
 13 15  1  0  0  0  0
 13 22  1  0  0  0  0
 15 16  1  6  0  0  0
 15 17  1  0  0  0  0
 17 18  1  1  0  0  0
 17 19  1  0  0  0  0
 19  2  1  1  0  0  0
 19 20  1  0  0  0  0
 20 21  1  1  0  0  0
 20 22  1  0  0  0  0
 23 18  1  1  0  0  0
 23 24  1  0  0  0  0
 23 28  1  0  0  0  0
 24 25  1  1  0  0  0
 24 26  1  0  0  0  0
 26 27  1  0  0  0  0
 26 38  1  1  0  0  0
 27 28  1  0  0  0  0
 27 29  1  1  0  0  0
 29 30  1  0  0  0  0
 31 32  1  1  0  0  0
 31 33  1  0  0  0  0
 31 39  1  0  0  0  0
 33 34  1  6  0  0  0
 33 35  1  0  0  0  0
 35 36  1  1  0  0  0
 35 37  1  0  0  0  0
 37 38  1  1  0  0  0
 37 40  1  0  0  0  0
 39 40  1  0  0  0  0
 39 41  1  1  0  0  0
 41 42  1  0  0  0  0
M  CHG  5   4   1  14   1  21   1  36   1  42   1
M  END
>  <CHROM.1>
-160.07246310,108.76997316,162.89062218,-173.02217613,-54.23896050,55.26336464
169.22759172,-53.18451188,-176.23683073,-102.10991932,145.67411036,154.48307104
97.69139458,2.66124209,-144.01451156,-55.37893965,65.13351729,63.30928511
-160.26702165,-158.74879021,91.96462863,-61.73511622,2.63377049,3.19320853
35.62174992,2.65402223,0.68647550,-1.09878490

>  <Name>
1pbr

>  <RI>
0

>  <Rbt.Current_Directory>
/home/itssahil/PROJECTS/Mol_Feturizer/New_Systems/rnas/1pbr

>  <Rbt.Executable>
rbdock ($Id: //depot/dev/client3/rdock/2013.1/src/exe/rbdock.cxx#4 $)

>  <Rbt.Library>
libRbt.so (2013.1, Build901 2013/11/27)

>  <Rbt.Parameter_File>
/export/apps/rDock/src/rDock_2013.1_src/data/scripts/dock_solv.prm

>  <Rbt.Receptor>
prm/blind_docking_40.prm

>  <SCORE>
-0.469955

>  <SCORE.INTER>
-12.5905

>  <SCORE.INTER.CONST>
1

>  <SCORE.INTER.POLAR>
-5.6594

>  <SCORE.INTER.ROT>
9

>  <SCORE.INTER.SOLV>
26.7622

>  <SCORE.INTER.VDW>
-8.04972

>  <SCORE.INTER.norm>
-0.299774

>  <SCORE.INTRA>
9.65201

>  <SCORE.INTRA.DIHEDRAL>
13.9233

>  <SCORE.INTRA.DIHEDRAL.0>
29.7866

>  <SCORE.INTRA.POLAR>
-0.182576

>  <SCORE.INTRA.POLAR.0>
-0.984091

>  <SCORE.INTRA.REPUL>
-0.274115

>  <SCORE.INTRA.REPUL.0>
0.274115

>  <SCORE.INTRA.SOLV>
3.40499

>  <SCORE.INTRA.SOLV.lig_0>
-152.978

>  <SCORE.INTRA.VDW>
2.97918

>  <SCORE.INTRA.VDW.0>
-6.10719

>  <SCORE.INTRA.norm>
0.22981

>  <SCORE.RESTR>
2.46854

>  <SCORE.RESTR.CAVITY>
2.46854

>  <SCORE.RESTR.norm>
0.0587747

>  <SCORE.SYSTEM>
0

>  <SCORE.SYSTEM.CONST>
0

>  <SCORE.SYSTEM.DIHEDRAL>
0

>  <SCORE.SYSTEM.SOLV>
0

>  <SCORE.SYSTEM.norm>
0

>  <SCORE.heavy>
42

>  <SCORE.norm>
-0.0111894

>  <RMSD>
10.252

$$$$
1pbr
 OpenBabel11021811403D
libRbt.so/2013.1/901 2013/11/27
 42 45  0  0  0  0  0  0  0  0999 V2000
    0.0668    5.5076   35.9463 C   0  0  2  0  0  0  0  0  0  0  0  0
   -0.2967    5.5273   34.5425 O   0  0  0  0  0  0  0  0  0  0  0  0
   -0.8795    4.5444   36.7555 C   0  0  2  0  0  0  0  0  0  0  0  0
   -1.1980    3.2685   36.0633 N   0  3  0  0  0  0  0  0  0  0  0  0
   -2.2311    5.2117   37.0728 C   0  0  1  0  0  0  0  0  0  0  0  0
   -2.9661    4.4405   38.0206 O   0  0  0  0  0  0  0  0  0  0  0  0
   -2.0300    6.6338   37.6176 C   0  0  2  0  0  0  0  0  0  0  0  0
   -3.2866    7.2180   37.9459 O   0  0  0  0  0  0  0  0  0  0  0  0
   -1.2205    7.4924   36.6206 C   0  0  2  0  0  0  0  0  0  0  0  0
    0.0698    6.8620   36.4762 O   0  0  0  0  0  0  0  0  0  0  0  0
   -0.9912    8.9328   37.0754 C   0  0  0  0  0  0  0  0  0  0  0  0
   -0.3591    9.6994   36.0589 O   0  0  0  0  0  0  0  0  0  0  0  0
    1.8294    5.3106   30.8492 C   0  0  1  0  0  0  0  0  0  0  0  0
    2.7566    5.4769   29.7149 N   0  3  0  0  0  0  0  0  0  0  0  0
    2.5240    4.6742   32.0911 C   0  0  2  0  0  0  0  0  0  0  0  0
    3.0602    3.3953   31.7604 O   0  0  0  0  0  0  0  0  0  0  0  0
    1.5226    4.4973   33.2699 C   0  0  1  0  0  0  0  0  0  0  0  0
    2.2626    4.0608   34.4484 O   0  0  0  0  0  0  0  0  0  0  0  0
    0.7594    5.8224   33.5968 C   0  0  1  0  0  0  0  0  0  0  0  0
    0.1144    6.4783   32.3341 C   0  0  1  0  0  0  0  0  0  0  0  0
   -0.5141    7.7784   32.6570 N   0  3  0  0  0  0  0  0  0  0  0  0
    1.1732    6.6732   31.2181 C   0  0  0  0  0  0  0  0  0  0  0  0
    2.4119    2.6325   34.7306 C   0  0  1  0  0  0  0  0  0  0  0  0
    3.7781    2.4029   35.4035 C   0  0  2  0  0  0  0  0  0  0  0  0
    4.2394    1.0727   35.1849 O   0  0  0  0  0  0  0  0  0  0  0  0
    3.3708    2.6448   36.8647 C   0  0  1  0  0  0  0  0  0  0  0  0
    2.0442    1.9093   36.9583 C   0  0  2  0  0  0  0  0  0  0  0  0
    1.4439    2.2122   35.7082 O   0  0  0  0  0  0  0  0  0  0  0  0
    1.1314    2.3519   38.1092 C   0  0  0  0  0  0  0  0  0  0  0  0
   -0.0899    1.6286   38.0684 O   0  0  0  0  0  0  0  0  0  0  0  0
    7.2969   -0.9371   37.4702 C   0  0  1  0  0  0  0  0  0  0  0  0
    8.2093   -0.3577   38.4011 O   0  0  0  0  0  0  0  0  0  0  0  0
    5.9856   -1.3265   38.2082 C   0  0  2  0  0  0  0  0  0  0  0  0
    5.2483   -2.2228   37.3801 O   0  0  0  0  0  0  0  0  0  0  0  0
    5.0593   -0.1304   38.6044 C   0  0  1  0  0  0  0  0  0  0  0  0
    5.4875    0.4451   39.8984 N   0  3  0  0  0  0  0  0  0  0  0  0
    4.9704    0.9302   37.4757 C   0  0  1  0  0  0  0  0  0  0  0  0
    4.3028    2.1549   37.8677 O   0  0  0  0  0  0  0  0  0  0  0  0
    6.9796    0.0667   36.3334 C   0  0  1  0  0  0  0  0  0  0  0  0
    6.3032    1.2079   36.9282 O   0  0  0  0  0  0  0  0  0  0  0  0
    8.2176    0.5148   35.5344 C   0  0  0  0  0  0  0  0  0  0  0  0
    7.8767    1.0169   34.1889 N   0  3  0  0  0  0  0  0  0  0  0  0
  1  2  1  6  0  0  0
  1  3  1  0  0  0  0
  1 10  1  0  0  0  0
  3  4  1  6  0  0  0
  3  5  1  0  0  0  0
  5  6  1  1  0  0  0
  5  7  1  0  0  0  0
  7  8  1  6  0  0  0
  7  9  1  0  0  0  0
  9 10  1  0  0  0  0
  9 11  1  1  0  0  0
 11 12  1  0  0  0  0
 13 14  1  6  0  0  0
 13 15  1  0  0  0  0
 13 22  1  0  0  0  0
 15 16  1  6  0  0  0
 15 17  1  0  0  0  0
 17 18  1  1  0  0  0
 17 19  1  0  0  0  0
 19  2  1  1  0  0  0
 19 20  1  0  0  0  0
 20 21  1  1  0  0  0
 20 22  1  0  0  0  0
 23 18  1  1  0  0  0
 23 24  1  0  0  0  0
 23 28  1  0  0  0  0
 24 25  1  1  0  0  0
 24 26  1  0  0  0  0
 26 27  1  0  0  0  0
 26 38  1  1  0  0  0
 27 28  1  0  0  0  0
 27 29  1  1  0  0  0
 29 30  1  0  0  0  0
 31 32  1  1  0  0  0
 31 33  1  0  0  0  0
 31 39  1  0  0  0  0
 33 34  1  6  0  0  0
 33 35  1  0  0  0  0
 35 36  1  1  0  0  0
 35 37  1  0  0  0  0
 37 38  1  1  0  0  0
 37 40  1  0  0  0  0
 39 40  1  0  0  0  0
 39 41  1  1  0  0  0
 41 42  1  0  0  0  0
M  CHG  5   4   1  14   1  21   1  36   1  42   1
M  END
>  <CHROM.1>
-152.30066986,84.83390234,-78.72488939,-71.08901804,169.20450412,-174.20839008
-170.89821864,103.79001856,172.51103935,-92.20610897,146.93950936,-179.93333200
67.83652913,-34.47826186,178.10153696,61.75568225,63.27868718,-177.52889528
78.63774783,-136.45754689,157.66751088,-43.95099223,2.24826434,3.50985951
35.75868320,2.63607398,0.62054226,-1.09793364

>  <Name>
1pbr

>  <RI>
0

>  <Rbt.Current_Directory>
/home/itssahil/PROJECTS/Mol_Feturizer/New_Systems/rnas/1pbr

>  <Rbt.Executable>
rbdock ($Id: //depot/dev/client3/rdock/2013.1/src/exe/rbdock.cxx#4 $)

>  <Rbt.Library>
libRbt.so (2013.1, Build901 2013/11/27)

>  <Rbt.Parameter_File>
/export/apps/rDock/src/rDock_2013.1_src/data/scripts/dock_solv.prm

>  <Rbt.Receptor>
prm/blind_docking_40.prm

>  <SCORE>
-6.02152

>  <SCORE.INTER>
-10.5805

>  <SCORE.INTER.CONST>
1

>  <SCORE.INTER.POLAR>
-4.87648

>  <SCORE.INTER.ROT>
9

>  <SCORE.INTER.SOLV>
27.9013

>  <SCORE.INTER.VDW>
-9.69913

>  <SCORE.INTER.norm>
-0.251916

>  <SCORE.INTRA>
2.14732

>  <SCORE.INTRA.DIHEDRAL>
2.66512

>  <SCORE.INTRA.DIHEDRAL.0>
29.7866

>  <SCORE.INTRA.POLAR>
-0.71022

>  <SCORE.INTRA.POLAR.0>
-0.984091

>  <SCORE.INTRA.REPUL>
-0.274115

>  <SCORE.INTRA.REPUL.0>
0.274115

>  <SCORE.INTRA.SOLV>
3.15333

>  <SCORE.INTRA.SOLV.lig_0>
-152.978

>  <SCORE.INTRA.VDW>
3.02342

>  <SCORE.INTRA.VDW.0>
-6.10719

>  <SCORE.INTRA.norm>
0.0511267

>  <SCORE.RESTR>
2.41161

>  <SCORE.RESTR.CAVITY>
2.41161

>  <SCORE.RESTR.norm>
0.0574193

>  <SCORE.SYSTEM>
0

>  <SCORE.SYSTEM.CONST>
0

>  <SCORE.SYSTEM.DIHEDRAL>
0

>  <SCORE.SYSTEM.SOLV>
0

>  <SCORE.SYSTEM.norm>
0

>  <SCORE.heavy>
42

>  <SCORE.norm>
-0.14337

>  <RMSD>
10.257

$$$$
1pbr
 OpenBabel11021811403D
libRbt.so/2013.1/901 2013/11/27
 42 45  0  0  0  0  0  0  0  0999 V2000
   -1.0696    3.9796   36.0819 C   0  0  2  0  0  0  0  0  0  0  0  0
   -1.4746    4.0426   34.6908 O   0  0  0  0  0  0  0  0  0  0  0  0
   -2.2231    3.3864   36.9739 C   0  0  2  0  0  0  0  0  0  0  0  0
   -2.9412    2.2355   36.3673 N   0  3  0  0  0  0  0  0  0  0  0  0
   -3.2959    4.4450   37.2917 C   0  0  1  0  0  0  0  0  0  0  0  0
   -4.1841    3.9772   38.3044 O   0  0  0  0  0  0  0  0  0  0  0  0
   -2.6524    5.7637   37.7462 C   0  0  2  0  0  0  0  0  0  0  0  0
   -3.6592    6.7151   38.0770 O   0  0  0  0  0  0  0  0  0  0  0  0
   -1.6693    6.2900   36.6771 C   0  0  2  0  0  0  0  0  0  0  0  0
   -0.6357    5.2931   36.5314 O   0  0  0  0  0  0  0  0  0  0  0  0
   -0.9976    7.6133   37.0398 C   0  0  0  0  0  0  0  0  0  0  0  0
   -0.2034    8.0993   35.9657 O   0  0  0  0  0  0  0  0  0  0  0  0
   -0.4075    6.6272   31.4676 C   0  0  1  0  0  0  0  0  0  0  0  0
   -0.1595    7.7620   30.5596 N   0  3  0  0  0  0  0  0  0  0  0  0
    0.5135    6.6645   32.7246 C   0  0  2  0  0  0  0  0  0  0  0  0
    1.8853    6.6361   32.3374 O   0  0  0  0  0  0  0  0  0  0  0  0
    0.2420    5.4505   33.6606 C   0  0  1  0  0  0  0  0  0  0  0  0
    1.0050    5.6305   34.8904 O   0  0  0  0  0  0  0  0  0  0  0  0
   -1.2757    5.3035   34.0074 C   0  0  1  0  0  0  0  0  0  0  0  0
   -2.1918    5.3226   32.7421 C   0  0  1  0  0  0  0  0  0  0  0  0
   -3.6252    5.2822   33.1071 N   0  3  0  0  0  0  0  0  0  0  0  0
   -1.9078    6.5800   31.8803 C   0  0  0  0  0  0  0  0  0  0  0  0
    2.3153    4.9954   35.0375 C   0  0  1  0  0  0  0  0  0  0  0  0
    2.5962    4.7857   36.5372 C   0  0  2  0  0  0  0  0  0  0  0  0
    3.9968    4.7317   36.7932 O   0  0  0  0  0  0  0  0  0  0  0  0
    1.9180    3.4196   36.7208 C   0  0  1  0  0  0  0  0  0  0  0  0
    2.3631    2.6663   35.4782 C   0  0  2  0  0  0  0  0  0  0  0  0
    2.2944    3.6705   34.4774 O   0  0  0  0  0  0  0  0  0  0  0  0
    1.4869    1.4677   35.0919 C   0  0  0  0  0  0  0  0  0  0  0  0
    2.1521    0.6696   34.1239 O   0  0  0  0  0  0  0  0  0  0  0  0
    4.1110   -1.2008   38.3814 C   0  0  1  0  0  0  0  0  0  0  0  0
    4.5432   -0.9868   39.7238 O   0  0  0  0  0  0  0  0  0  0  0  0
    2.5582   -1.1606   38.3272 C   0  0  2  0  0  0  0  0  0  0  0  0
    2.1325   -1.7346   37.0936 O   0  0  0  0  0  0  0  0  0  0  0  0
    1.9196    0.2600   38.4679 C   0  0  1  0  0  0  0  0  0  0  0  0
    1.7701    0.6177   39.8958 N   0  3  0  0  0  0  0  0  0  0  0  0
    2.7026    1.3283   37.6602 C   0  0  1  0  0  0  0  0  0  0  0  0
    2.2858    2.6906   37.9240 O   0  0  0  0  0  0  0  0  0  0  0  0
    4.6958   -0.1105   37.4486 C   0  0  1  0  0  0  0  0  0  0  0  0
    4.1467    1.1691   37.8668 O   0  0  0  0  0  0  0  0  0  0  0  0
    6.2352   -0.0691   37.4273 C   0  0  0  0  0  0  0  0  0  0  0  0
    6.7660    0.8917   36.4405 N   0  3  0  0  0  0  0  0  0  0  0  0
  1  2  1  6  0  0  0
  1  3  1  0  0  0  0
  1 10  1  0  0  0  0
  3  4  1  6  0  0  0
  3  5  1  0  0  0  0
  5  6  1  1  0  0  0
  5  7  1  0  0  0  0
  7  8  1  6  0  0  0
  7  9  1  0  0  0  0
  9 10  1  0  0  0  0
  9 11  1  1  0  0  0
 11 12  1  0  0  0  0
 13 14  1  6  0  0  0
 13 15  1  0  0  0  0
 13 22  1  0  0  0  0
 15 16  1  6  0  0  0
 15 17  1  0  0  0  0
 17 18  1  1  0  0  0
 17 19  1  0  0  0  0
 19  2  1  6  0  0  0
 19 20  1  0  0  0  0
 20 21  1  1  0  0  0
 20 22  1  0  0  0  0
 23 18  1  1  0  0  0
 23 24  1  0  0  0  0
 23 28  1  0  0  0  0
 24 25  1  6  0  0  0
 24 26  1  0  0  0  0
 26 27  1  0  0  0  0
 26 38  1  1  0  0  0
 27 28  1  0  0  0  0
 27 29  1  6  0  0  0
 29 30  1  0  0  0  0
 31 32  1  1  0  0  0
 31 33  1  0  0  0  0
 31 39  1  0  0  0  0
 33 34  1  6  0  0  0
 33 35  1  0  0  0  0
 35 36  1  1  0  0  0
 35 37  1  0  0  0  0
 37 38  1  1  0  0  0
 37 40  1  0  0  0  0
 39 40  1  0  0  0  0
 39 41  1  1  0  0  0
 41 42  1  0  0  0  0
M  CHG  5   4   1  14   1  21   1  36   1  42   1
M  END
>  <CHROM.1>
129.97434731,76.39244408,-116.19893006,-50.82417890,68.09368301,-174.67288166
66.65465372,100.20905032,71.13768908,-95.80289931,-154.34762114,-133.25562487
-5.82896419,-128.60020982,-166.68455884,69.23601419,179.52651637,-173.25425989
73.33770163,-125.54041776,174.73265607,-39.31413312,0.76974426,3.59484669
35.95907607,2.29753064,0.39225277,-0.85446803

>  <Name>
1pbr

>  <RI>
0

>  <Rbt.Current_Directory>
/home/itssahil/PROJECTS/Mol_Feturizer/New_Systems/rnas/1pbr

>  <Rbt.Executable>
rbdock ($Id: //depot/dev/client3/rdock/2013.1/src/exe/rbdock.cxx#4 $)

>  <Rbt.Library>
libRbt.so (2013.1, Build901 2013/11/27)

>  <Rbt.Parameter_File>
/export/apps/rDock/src/rDock_2013.1_src/data/scripts/dock_solv.prm

>  <Rbt.Receptor>
prm/blind_docking_80.prm

>  <SCORE>
16.9192

>  <SCORE.INTER>
-4.1226

>  <SCORE.INTER.CONST>
1

>  <SCORE.INTER.POLAR>
-3.02733

>  <SCORE.INTER.ROT>
9

>  <SCORE.INTER.SOLV>
41.7711

>  <SCORE.INTER.VDW>
-16.181

>  <SCORE.INTER.norm>
-0.0981571

>  <SCORE.INTRA>
19.4921

>  <SCORE.INTRA.DIHEDRAL>
19.9999

>  <SCORE.INTRA.DIHEDRAL.0>
29.7866

>  <SCORE.INTRA.POLAR>
0.964924

>  <SCORE.INTRA.POLAR.0>
-0.984091

>  <SCORE.INTRA.REPUL>
-0.20767

>  <SCORE.INTRA.REPUL.0>
0.274115

>  <SCORE.INTRA.SOLV>
-2.10578

>  <SCORE.INTRA.SOLV.lig_0>
-152.978

>  <SCORE.INTRA.VDW>
8.30266

>  <SCORE.INTRA.VDW.0>
-6.10719

>  <SCORE.INTRA.norm>
0.464098

>  <SCORE.RESTR>
1.54965

>  <SCORE.RESTR.CAVITY>
1.54965

>  <SCORE.RESTR.norm>
0.0368963

>  <SCORE.SYSTEM>
0

>  <SCORE.SYSTEM.CONST>
0

>  <SCORE.SYSTEM.DIHEDRAL>
0

>  <SCORE.SYSTEM.SOLV>
0

>  <SCORE.SYSTEM.norm>
0

>  <SCORE.heavy>
42

>  <SCORE.norm>
0.402837

>  <RMSD>
10.288

$$$$
1pbr
 OpenBabel11021811403D
libRbt.so/2013.1/901 2013/11/27
 42 45  0  0  0  0  0  0  0  0999 V2000
    0.1245    5.6636   35.7026 C   0  0  2  0  0  0  0  0  0  0  0  0
   -0.1930    5.7355   34.2894 O   0  0  0  0  0  0  0  0  0  0  0  0
   -0.9730    4.8469   36.4815 C   0  0  2  0  0  0  0  0  0  0  0  0
   -1.4525    3.6303   35.7756 N   0  3  0  0  0  0  0  0  0  0  0  0
   -2.2226    5.7021   36.7639 C   0  0  1  0  0  0  0  0  0  0  0  0
   -3.0873    5.0449   37.6879 O   0  0  0  0  0  0  0  0  0  0  0  0
   -1.8339    7.0803   37.3198 C   0  0  2  0  0  0  0  0  0  0  0  0
   -3.0019    7.8397   37.6156 O   0  0  0  0  0  0  0  0  0  0  0  0
   -0.8816    7.8133   36.3491 C   0  0  2  0  0  0  0  0  0  0  0  0
    0.3079    7.0034   36.2379 O   0  0  0  0  0  0  0  0  0  0  0  0
   -0.4599    9.2056   36.8159 C   0  0  0  0  0  0  0  0  0  0  0  0
   -0.2496   10.0769   35.7127 O   0  0  0  0  0  0  0  0  0  0  0  0
    2.1248    4.8497   30.8179 C   0  0  1  0  0  0  0  0  0  0  0  0
    3.1179    4.8009   29.7292 N   0  3  0  0  0  0  0  0  0  0  0  0
    2.7290    4.4165   32.1880 C   0  0  2  0  0  0  0  0  0  0  0  0
    3.2407    3.0882   32.1085 O   0  0  0  0  0  0  0  0  0  0  0  0
    1.6591    4.4641   33.3179 C   0  0  1  0  0  0  0  0  0  0  0  0
    2.3186    4.2161   34.5948 O   0  0  0  0  0  0  0  0  0  0  0  0
    0.9225    5.8424   33.3724 C   0  0  1  0  0  0  0  0  0  0  0  0
    0.3697    6.2903   31.9816 C   0  0  1  0  0  0  0  0  0  0  0  0
   -0.2330    7.6402   32.0444 N   0  3  0  0  0  0  0  0  0  0  0  0
    1.4940    6.2697   30.9139 C   0  0  0  0  0  0  0  0  0  0  0  0
    1.8052    3.1821   35.4943 C   0  0  1  0  0  0  0  0  0  0  0  0
    2.2023    1.8022   34.9372 C   0  0  2  0  0  0  0  0  0  0  0  0
    1.3014    0.7919   35.3819 O   0  0  0  0  0  0  0  0  0  0  0  0
    3.5892    1.6710   35.5846 C   0  0  1  0  0  0  0  0  0  0  0  0
    3.3378    2.1741   36.9964 C   0  0  2  0  0  0  0  0  0  0  0  0
    2.4566    3.2645   36.7743 O   0  0  0  0  0  0  0  0  0  0  0  0
    4.5861    2.6433   37.7549 C   0  0  0  0  0  0  0  0  0  0  0  0
    4.8740    3.9954   37.4305 O   0  0  0  0  0  0  0  0  0  0  0  0
    7.3004   -1.2706   38.0965 C   0  0  1  0  0  0  0  0  0  0  0  0
    6.8389   -2.6193   38.0433 O   0  0  0  0  0  0  0  0  0  0  0  0
    7.7054   -0.8078   36.6691 C   0  0  2  0  0  0  0  0  0  0  0  0
    8.4978    0.3720   36.7826 O   0  0  0  0  0  0  0  0  0  0  0  0
    6.5160   -0.5231   35.6945 C   0  0  1  0  0  0  0  0  0  0  0  0
    6.0727   -1.7758   35.0440 N   0  3  0  0  0  0  0  0  0  0  0  0
    5.3575    0.2291   36.4008 C   0  0  1  0  0  0  0  0  0  0  0  0
    4.1487    0.3290   35.6084 O   0  0  0  0  0  0  0  0  0  0  0  0
    6.1895   -0.3442   38.6517 C   0  0  1  0  0  0  0  0  0  0  0  0
    5.0813   -0.3712   37.7110 O   0  0  0  0  0  0  0  0  0  0  0  0
    5.7180   -0.7174   40.0696 C   0  0  0  0  0  0  0  0  0  0  0  0
    5.0638   -2.0394   40.1234 N   0  3  0  0  0  0  0  0  0  0  0  0
  1  2  1  6  0  0  0
  1  3  1  0  0  0  0
  1 10  1  0  0  0  0
  3  4  1  6  0  0  0
  3  5  1  0  0  0  0
  5  6  1  1  0  0  0
  5  7  1  0  0  0  0
  7  8  1  6  0  0  0
  7  9  1  0  0  0  0
  9 10  1  0  0  0  0
  9 11  1  1  0  0  0
 11 12  1  0  0  0  0
 13 14  1  6  0  0  0
 13 15  1  0  0  0  0
 13 22  1  0  0  0  0
 15 16  1  6  0  0  0
 15 17  1  0  0  0  0
 17 18  1  1  0  0  0
 17 19  1  0  0  0  0
 19  2  1  1  0  0  0
 19 20  1  0  0  0  0
 20 21  1  1  0  0  0
 20 22  1  0  0  0  0
 23 18  1  6  0  0  0
 23 24  1  0  0  0  0
 23 28  1  0  0  0  0
 24 25  1  1  0  0  0
 24 26  1  0  0  0  0
 26 27  1  0  0  0  0
 26 38  1  1  0  0  0
 27 28  1  0  0  0  0
 27 29  1  6  0  0  0
 29 30  1  0  0  0  0
 31 32  1  6  0  0  0
 31 33  1  0  0  0  0
 31 39  1  0  0  0  0
 33 34  1  1  0  0  0
 33 35  1  0  0  0  0
 35 36  1  1  0  0  0
 35 37  1  0  0  0  0
 37 38  1  6  0  0  0
 37 40  1  0  0  0  0
 39 40  1  0  0  0  0
 39 41  1  1  0  0  0
 41 42  1  0  0  0  0
M  CHG  5   4   1  14   1  21   1  36   1  42   1
M  END
>  <CHROM.1>
-150.84138691,72.26426636,60.18893473,-86.41925395,57.82694011,-148.03197440
-166.78031353,-41.51366777,175.60917874,-128.04872275,75.33413032,-25.22246870
-45.59738864,-171.35389748,84.81749162,-76.12931235,56.23443923,-60.77754735
-172.10297522,-132.47666104,-64.67212106,40.44825777,2.43391611,3.35294123
35.65579578,2.64292059,0.74742549,-1.21257916

>  <Name>
1pbr

>  <RI>
0

>  <Rbt.Current_Directory>
/home/itssahil/PROJECTS/Mol_Feturizer/New_Systems/rnas/1pbr

>  <Rbt.Executable>
rbdock ($Id: //depot/dev/client3/rdock/2013.1/src/exe/rbdock.cxx#4 $)

>  <Rbt.Library>
libRbt.so (2013.1, Build901 2013/11/27)

>  <Rbt.Parameter_File>
/export/apps/rDock/src/rDock_2013.1_src/data/scripts/dock_solv.prm

>  <Rbt.Receptor>
prm/blind_docking_40.prm

>  <SCORE>
-16.5595

>  <SCORE.INTER>
-24.3148

>  <SCORE.INTER.CONST>
1

>  <SCORE.INTER.POLAR>
-6.8572

>  <SCORE.INTER.ROT>
9

>  <SCORE.INTER.SOLV>
30.1164

>  <SCORE.INTER.VDW>
-12.9913

>  <SCORE.INTER.norm>
-0.578923

>  <SCORE.INTRA>
3.90399

>  <SCORE.INTRA.DIHEDRAL>
4.49818

>  <SCORE.INTRA.DIHEDRAL.0>
29.7866

>  <SCORE.INTRA.POLAR>
0.0964732

>  <SCORE.INTRA.POLAR.0>
-0.984091

>  <SCORE.INTRA.REPUL>
-0.274115

>  <SCORE.INTRA.REPUL.0>
0.274115

>  <SCORE.INTRA.SOLV>
0.698431

>  <SCORE.INTRA.SOLV.lig_0>
-152.978

>  <SCORE.INTRA.VDW>
2.34825

>  <SCORE.INTRA.VDW.0>
-6.10719

>  <SCORE.INTRA.norm>
0.0929521

>  <SCORE.RESTR>
3.85126

>  <SCORE.RESTR.CAVITY>
3.85126

>  <SCORE.RESTR.norm>
0.0916966

>  <SCORE.SYSTEM>
0

>  <SCORE.SYSTEM.CONST>
0

>  <SCORE.SYSTEM.DIHEDRAL>
0

>  <SCORE.SYSTEM.SOLV>
0

>  <SCORE.SYSTEM.norm>
0

>  <SCORE.heavy>
42

>  <SCORE.norm>
-0.394275

>  <RMSD>
10.310

$$$$
1pbr
 OpenBabel11021811403D
libRbt.so/2013.1/901 2013/11/27
 42 45  0  0  0  0  0  0  0  0999 V2000
    1.3968    5.7582   34.1190 C   0  0  2  0  0  0  0  0  0  0  0  0
    0.8633    4.4724   34.5253 O   0  0  0  0  0  0  0  0  0  0  0  0
    0.2405    6.7257   33.6662 C   0  0  2  0  0  0  0  0  0  0  0  0
   -0.9758    6.6735   34.5185 N   0  3  0  0  0  0  0  0  0  0  0  0
   -0.2258    6.4195   32.2304 C   0  0  1  0  0  0  0  0  0  0  0  0
   -1.0745    7.4561   31.7420 O   0  0  0  0  0  0  0  0  0  0  0  0
    0.9731    6.2530   31.2846 C   0  0  2  0  0  0  0  0  0  0  0  0
    0.5224    6.0140   29.9550 O   0  0  0  0  0  0  0  0  0  0  0  0
    1.9235    5.1472   31.7950 C   0  0  2  0  0  0  0  0  0  0  0  0
    2.4052    5.5725   33.0875 O   0  0  0  0  0  0  0  0  0  0  0  0
    3.1365    4.9002   30.8997 C   0  0  0  0  0  0  0  0  0  0  0  0
    3.7902    3.6851   31.2417 O   0  0  0  0  0  0  0  0  0  0  0  0
    4.1411    3.5939   37.1123 C   0  0  1  0  0  0  0  0  0  0  0  0
    5.0607    3.0579   38.1326 N   0  3  0  0  0  0  0  0  0  0  0  0
    3.8551    2.5654   35.9765 C   0  0  2  0  0  0  0  0  0  0  0  0
    5.0684    2.1870   35.3306 O   0  0  0  0  0  0  0  0  0  0  0  0
    2.8928    3.1584   34.9060 C   0  0  1  0  0  0  0  0  0  0  0  0
    2.5303    2.1015   33.9687 O   0  0  0  0  0  0  0  0  0  0  0  0
    1.5958    3.7527   35.5462 C   0  0  1  0  0  0  0  0  0  0  0  0
    1.8957    4.7400   36.7192 C   0  0  1  0  0  0  0  0  0  0  0  0
    0.6511    5.2080   37.3685 N   0  3  0  0  0  0  0  0  0  0  0  0
    2.8157    4.0726   37.7739 C   0  0  0  0  0  0  0  0  0  0  0  0
    2.0050    0.8300   34.4677 C   0  0  1  0  0  0  0  0  0  0  0  0
    3.1090    0.1239   35.2769 C   0  0  2  0  0  0  0  0  0  0  0  0
    2.9088   -1.2867   35.2936 O   0  0  0  0  0  0  0  0  0  0  0  0
    2.8497    0.7647   36.6487 C   0  0  1  0  0  0  0  0  0  0  0  0
    1.3329    0.7357   36.7394 C   0  0  2  0  0  0  0  0  0  0  0  0
    0.9464    1.0631   35.4135 O   0  0  0  0  0  0  0  0  0  0  0  0
    0.7188    1.7289   37.7344 C   0  0  0  0  0  0  0  0  0  0  0  0
    1.0847    1.3789   39.0610 O   0  0  0  0  0  0  0  0  0  0  0  0
    7.5468   -1.1731   37.2427 C   0  0  1  0  0  0  0  0  0  0  0  0
    8.1173   -0.0604   37.9291 O   0  0  0  0  0  0  0  0  0  0  0  0
    6.6879   -2.0057   38.2351 C   0  0  2  0  0  0  0  0  0  0  0  0
    6.4376   -3.2842   37.6561 O   0  0  0  0  0  0  0  0  0  0  0  0
    5.3222   -1.3618   38.6425 C   0  0  1  0  0  0  0  0  0  0  0  0
    5.5127   -0.4202   39.7677 N   0  3  0  0  0  0  0  0  0  0  0  0
    4.6055   -0.7113   37.4301 C   0  0  1  0  0  0  0  0  0  0  0  0
    3.4464    0.0820   37.7856 O   0  0  0  0  0  0  0  0  0  0  0  0
    6.6626   -0.6838   36.0682 C   0  0  1  0  0  0  0  0  0  0  0  0
    5.5567    0.0721   36.6333 O   0  0  0  0  0  0  0  0  0  0  0  0
    7.4234    0.1518   35.0217 C   0  0  0  0  0  0  0  0  0  0  0  0
    8.1688    1.2755   35.6219 N   0  3  0  0  0  0  0  0  0  0  0  0
  1  2  1  6  0  0  0
  1  3  1  0  0  0  0
  1 10  1  0  0  0  0
  3  4  1  1  0  0  0
  3  5  1  0  0  0  0
  5  6  1  6  0  0  0
  5  7  1  0  0  0  0
  7  8  1  6  0  0  0
  7  9  1  0  0  0  0
  9 10  1  0  0  0  0
  9 11  1  6  0  0  0
 11 12  1  0  0  0  0
 13 14  1  1  0  0  0
 13 15  1  0  0  0  0
 13 22  1  0  0  0  0
 15 16  1  6  0  0  0
 15 17  1  0  0  0  0
 17 18  1  6  0  0  0
 17 19  1  0  0  0  0
 19  2  1  6  0  0  0
 19 20  1  0  0  0  0
 20 21  1  1  0  0  0
 20 22  1  0  0  0  0
 23 18  1  1  0  0  0
 23 24  1  0  0  0  0
 23 28  1  0  0  0  0
 24 25  1  1  0  0  0
 24 26  1  0  0  0  0
 26 27  1  0  0  0  0
 26 38  1  1  0  0  0
 27 28  1  0  0  0  0
 27 29  1  1  0  0  0
 29 30  1  0  0  0  0
 31 32  1  1  0  0  0
 31 33  1  0  0  0  0
 31 39  1  0  0  0  0
 33 34  1  6  0  0  0
 33 35  1  0  0  0  0
 35 36  1  1  0  0  0
 35 37  1  0  0  0  0
 37 38  1  1  0  0  0
 37 40  1  0  0  0  0
 39 40  1  0  0  0  0
 39 41  1  6  0  0  0
 41 42  1  0  0  0  0
M  CHG  5   4   1  14   1  21   1  36   1  42   1
M  END
>  <CHROM.1>
-149.60905749,-74.38051273,80.84680713,-171.14002004,-61.68456207,-166.24154218
-50.45306595,32.45795861,-17.36551907,52.18275986,-65.24671158,33.60748440
153.35896385,24.67281323,-66.20026363,-56.59541326,66.88349724,58.98097202
69.58104033,175.60108292,-52.61528959,32.95767209,3.20162772,2.39859830,35.50307020
2.27753895,0.57142023,-1.06524523

>  <Name>
1pbr

>  <RI>
0

>  <Rbt.Current_Directory>
/home/itssahil/PROJECTS/Mol_Feturizer/New_Systems/rnas/1pbr

>  <Rbt.Executable>
rbdock ($Id: //depot/dev/client3/rdock/2013.1/src/exe/rbdock.cxx#4 $)

>  <Rbt.Library>
libRbt.so (2013.1, Build901 2013/11/27)

>  <Rbt.Parameter_File>
/export/apps/rDock/src/rDock_2013.1_src/data/scripts/dock_solv.prm

>  <Rbt.Receptor>
prm/blind_docking_40.prm

>  <SCORE>
2.16412

>  <SCORE.INTER>
-22.3297

>  <SCORE.INTER.CONST>
1

>  <SCORE.INTER.POLAR>
-3.67133

>  <SCORE.INTER.ROT>
9

>  <SCORE.INTER.SOLV>
27.2223

>  <SCORE.INTER.VDW>
-21.3228

>  <SCORE.INTER.norm>
-0.531661

>  <SCORE.INTRA>
23.2555

>  <SCORE.INTRA.DIHEDRAL>
-2.79522

>  <SCORE.INTRA.DIHEDRAL.0>
29.7866

>  <SCORE.INTRA.POLAR>
-0.0339979

>  <SCORE.INTRA.POLAR.0>
-0.984091

>  <SCORE.INTRA.REPUL>
-0.274115

>  <SCORE.INTRA.REPUL.0>
0.274115

>  <SCORE.INTRA.SOLV>
13.9387

>  <SCORE.INTRA.SOLV.lig_0>
-152.978

>  <SCORE.INTRA.VDW>
19.1699

>  <SCORE.INTRA.VDW.0>
-6.10719

>  <SCORE.INTRA.norm>
0.553702

>  <SCORE.RESTR>
1.23838

>  <SCORE.RESTR.CAVITY>
1.23838

>  <SCORE.RESTR.norm>
0.0294853

>  <SCORE.SYSTEM>
0

>  <SCORE.SYSTEM.CONST>
0

>  <SCORE.SYSTEM.DIHEDRAL>
0

>  <SCORE.SYSTEM.SOLV>
0

>  <SCORE.SYSTEM.norm>
0

>  <SCORE.heavy>
42

>  <SCORE.norm>
0.0515267

>  <RMSD>
10.354

$$$$
1pbr
 OpenBabel11021811403D
libRbt.so/2013.1/901 2013/11/27
 42 45  0  0  0  0  0  0  0  0999 V2000
    1.4399    7.8121   35.4800 C   0  0  2  0  0  0  0  0  0  0  0  0
    0.5202    7.1431   36.3800 O   0  0  0  0  0  0  0  0  0  0  0  0
    0.7371    9.0236   34.7613 C   0  0  2  0  0  0  0  0  0  0  0  0
   -0.1468    9.8328   35.6399 N   0  3  0  0  0  0  0  0  0  0  0  0
   -0.1381    8.5544   33.5838 C   0  0  1  0  0  0  0  0  0  0  0  0
   -0.5510    9.6627   32.7871 O   0  0  0  0  0  0  0  0  0  0  0  0
    0.6154    7.5456   32.7039 C   0  0  2  0  0  0  0  0  0  0  0  0
   -0.1926    7.1569   31.5974 O   0  0  0  0  0  0  0  0  0  0  0  0
    1.0927    6.3384   33.5412 C   0  0  2  0  0  0  0  0  0  0  0  0
    1.9986    6.8532   34.5400 O   0  0  0  0  0  0  0  0  0  0  0  0
    1.8360    5.2724   32.7379 C   0  0  0  0  0  0  0  0  0  0  0  0
    2.6223    5.8581   31.7087 O   0  0  0  0  0  0  0  0  0  0  0  0
   -1.9519    3.6693   36.5512 C   0  0  1  0  0  0  0  0  0  0  0  0
   -2.7287    2.4457   36.2805 N   0  3  0  0  0  0  0  0  0  0  0  0
   -0.4152    3.4265   36.4543 C   0  0  2  0  0  0  0  0  0  0  0  0
   -0.0101    2.4245   37.3840 O   0  0  0  0  0  0  0  0  0  0  0  0
    0.3829    4.7286   36.7564 C   0  0  1  0  0  0  0  0  0  0  0  0
    1.7947    4.4834   36.4850 O   0  0  0  0  0  0  0  0  0  0  0  0
   -0.1106    5.9346   35.8920 C   0  0  1  0  0  0  0  0  0  0  0  0
   -1.6590    6.1327   35.9550 C   0  0  1  0  0  0  0  0  0  0  0  0
   -2.1064    7.2157   35.0513 N   0  3  0  0  0  0  0  0  0  0  0  0
   -2.3938    4.8156   35.5951 C   0  0  0  0  0  0  0  0  0  0  0  0
    2.6999    4.1336   37.5805 C   0  0  1  0  0  0  0  0  0  0  0  0
    2.2840    2.7624   38.1453 C   0  0  2  0  0  0  0  0  0  0  0  0
    2.6941    2.6220   39.5026 O   0  0  0  0  0  0  0  0  0  0  0  0
    3.0873    1.8580   37.1983 C   0  0  1  0  0  0  0  0  0  0  0  0
    4.4258    2.5737   37.1229 C   0  0  2  0  0  0  0  0  0  0  0  0
    4.0353    3.9378   37.0825 O   0  0  0  0  0  0  0  0  0  0  0  0
    5.2835    2.2282   35.8988 C   0  0  0  0  0  0  0  0  0  0  0  0
    4.4774    2.2036   34.7301 O   0  0  0  0  0  0  0  0  0  0  0  0
    5.8053   -2.5213   35.8523 C   0  0  1  0  0  0  0  0  0  0  0  0
    6.2271   -3.0904   37.0905 O   0  0  0  0  0  0  0  0  0  0  0  0
    4.2722   -2.7187   35.6901 C   0  0  2  0  0  0  0  0  0  0  0  0
    3.9282   -2.4952   34.3247 O   0  0  0  0  0  0  0  0  0  0  0  0
    3.3799   -1.8025   36.5901 C   0  0  1  0  0  0  0  0  0  0  0  0
    3.2060   -2.4087   37.9285 N   0  3  0  0  0  0  0  0  0  0  0  0
    3.9228   -0.3506   36.6546 C   0  0  1  0  0  0  0  0  0  0  0  0
    3.2628    0.4833   37.6385 O   0  0  0  0  0  0  0  0  0  0  0  0
    6.1459   -1.0104   35.8119 C   0  0  1  0  0  0  0  0  0  0  0  0
    5.3761   -0.3562   36.8575 O   0  0  0  0  0  0  0  0  0  0  0  0
    7.6483   -0.7061   35.9612 C   0  0  0  0  0  0  0  0  0  0  0  0
    8.1977   -1.1670   37.2513 N   0  3  0  0  0  0  0  0  0  0  0  0
  1  2  1  6  0  0  0
  1  3  1  0  0  0  0
  1 10  1  0  0  0  0
  3  4  1  1  0  0  0
  3  5  1  0  0  0  0
  5  6  1  6  0  0  0
  5  7  1  0  0  0  0
  7  8  1  6  0  0  0
  7  9  1  0  0  0  0
  9 10  1  0  0  0  0
  9 11  1  6  0  0  0
 11 12  1  0  0  0  0
 13 14  1  6  0  0  0
 13 15  1  0  0  0  0
 13 22  1  0  0  0  0
 15 16  1  1  0  0  0
 15 17  1  0  0  0  0
 17 18  1  6  0  0  0
 17 19  1  0  0  0  0
 19  2  1  1  0  0  0
 19 20  1  0  0  0  0
 20 21  1  6  0  0  0
 20 22  1  0  0  0  0
 23 18  1  6  0  0  0
 23 24  1  0  0  0  0
 23 28  1  0  0  0  0
 24 25  1  1  0  0  0
 24 26  1  0  0  0  0
 26 27  1  0  0  0  0
 26 38  1  1  0  0  0
 27 28  1  0  0  0  0
 27 29  1  6  0  0  0
 29 30  1  0  0  0  0
 31 32  1  1  0  0  0
 31 33  1  0  0  0  0
 31 39  1  0  0  0  0
 33 34  1  6  0  0  0
 33 35  1  0  0  0  0
 35 36  1  1  0  0  0
 35 37  1  0  0  0  0
 37 38  1  1  0  0  0
 37 40  1  0  0  0  0
 39 40  1  0  0  0  0
 39 41  1  1  0  0  0
 41 42  1  0  0  0  0
M  CHG  5   4   1  14   1  21   1  36   1  42   1
M  END
>  <CHROM.1>
99.20379944,114.76847081,-145.52631822,80.00404854,178.76944902,35.44893006
173.29593975,65.21605360,-53.82526020,-97.19484137,65.52911766,-59.84584353
170.63859945,174.82958246,43.78354727,-167.81546461,72.05573102,69.50025877
-178.33394559,-142.89925059,-61.56029168,63.21774766,2.17619195,3.32699064
35.77170412,-2.17703302,-0.42197160,2.61508758

>  <Name>
1pbr

>  <RI>
0

>  <Rbt.Current_Directory>
/home/itssahil/PROJECTS/Mol_Feturizer/New_Systems/rnas/1pbr

>  <Rbt.Executable>
rbdock ($Id: //depot/dev/client3/rdock/2013.1/src/exe/rbdock.cxx#4 $)

>  <Rbt.Library>
libRbt.so (2013.1, Build901 2013/11/27)

>  <Rbt.Parameter_File>
/export/apps/rDock/src/rDock_2013.1_src/data/scripts/dock_solv.prm

>  <Rbt.Receptor>
prm/blind_docking_80.prm

>  <SCORE>
-13.5181

>  <SCORE.INTER>
-28.2182

>  <SCORE.INTER.CONST>
1

>  <SCORE.INTER.POLAR>
-3.44663

>  <SCORE.INTER.ROT>
9

>  <SCORE.INTER.SOLV>
31.3112

>  <SCORE.INTER.VDW>
-27.3605

>  <SCORE.INTER.norm>
-0.671863

>  <SCORE.INTRA>
13.5562

>  <SCORE.INTRA.DIHEDRAL>
2.86846

>  <SCORE.INTRA.DIHEDRAL.0>
29.7866

>  <SCORE.INTRA.POLAR>
0.419327

>  <SCORE.INTRA.POLAR.0>
-0.984091

>  <SCORE.INTRA.REPUL>
-0.234103

>  <SCORE.INTRA.REPUL.0>
0.274115

>  <SCORE.INTRA.SOLV>
8.67946

>  <SCORE.INTRA.SOLV.lig_0>
-152.978

>  <SCORE.INTRA.VDW>
7.52701

>  <SCORE.INTRA.VDW.0>
-6.10719

>  <SCORE.INTRA.norm>
0.322766

>  <SCORE.RESTR>
1.144

>  <SCORE.RESTR.CAVITY>
1.144

>  <SCORE.RESTR.norm>
0.027238

>  <SCORE.SYSTEM>
0

>  <SCORE.SYSTEM.CONST>
0

>  <SCORE.SYSTEM.DIHEDRAL>
0

>  <SCORE.SYSTEM.SOLV>
0

>  <SCORE.SYSTEM.norm>
0

>  <SCORE.heavy>
42

>  <SCORE.norm>
-0.321859

>  <RMSD>
10.384

$$$$
1pbr
 OpenBabel11021811403D
libRbt.so/2013.1/901 2013/11/27
 42 45  0  0  0  0  0  0  0  0999 V2000
    0.2581    5.7981   35.5617 C   0  0  2  0  0  0  0  0  0  0  0  0
    0.0278    5.4215   34.1802 O   0  0  0  0  0  0  0  0  0  0  0  0
   -0.9304    5.3207   36.4771 C   0  0  2  0  0  0  0  0  0  0  0  0
   -1.4416    3.9610   36.1640 N   0  3  0  0  0  0  0  0  0  0  0  0
   -2.1397    6.2695   36.3772 C   0  0  1  0  0  0  0  0  0  0  0  0
   -3.0948    5.9809   37.3959 O   0  0  0  0  0  0  0  0  0  0  0  0
   -1.7004    7.7372   36.4902 C   0  0  2  0  0  0  0  0  0  0  0  0
   -2.8350    8.5965   36.4397 O   0  0  0  0  0  0  0  0  0  0  0  0
   -0.6506    8.0790   35.4096 C   0  0  2  0  0  0  0  0  0  0  0  0
    0.4917    7.2307   35.6522 O   0  0  0  0  0  0  0  0  0  0  0  0
   -0.1724    9.5297   35.4363 C   0  0  0  0  0  0  0  0  0  0  0  0
   -0.3004   10.0904   36.7363 O   0  0  0  0  0  0  0  0  0  0  0  0
    2.3297    4.6935   30.6618 C   0  0  1  0  0  0  0  0  0  0  0  0
    3.3208    4.6901   29.5702 N   0  3  0  0  0  0  0  0  0  0  0  0
    2.9293    4.1787   32.0054 C   0  0  2  0  0  0  0  0  0  0  0  0
    3.4228    2.8498   31.8533 O   0  0  0  0  0  0  0  0  0  0  0  0
    1.8613    4.1796   33.1381 C   0  0  1  0  0  0  0  0  0  0  0  0
    2.5188    3.8540   34.3986 O   0  0  0  0  0  0  0  0  0  0  0  0
    1.1437    5.5627   33.2684 C   0  0  1  0  0  0  0  0  0  0  0  0
    0.5955    6.0926   31.9048 C   0  0  1  0  0  0  0  0  0  0  0  0
    0.0113    7.4452   32.0416 N   0  3  0  0  0  0  0  0  0  0  0  0
    1.7183    6.1146   30.8356 C   0  0  0  0  0  0  0  0  0  0  0  0
    1.7173    3.5103   35.5739 C   0  0  1  0  0  0  0  0  0  0  0  0
    1.4343    1.9965   35.5524 C   0  0  2  0  0  0  0  0  0  0  0  0
    0.2450    1.6877   36.2738 O   0  0  0  0  0  0  0  0  0  0  0  0
    2.6975    1.5049   36.2751 C   0  0  1  0  0  0  0  0  0  0  0  0
    2.8341    2.5074   37.4091 C   0  0  2  0  0  0  0  0  0  0  0  0
    2.4758    3.7267   36.7770 O   0  0  0  0  0  0  0  0  0  0  0  0
    4.2372    2.6157   38.0201 C   0  0  0  0  0  0  0  0  0  0  0  0
    5.1536    3.1056   37.0524 O   0  0  0  0  0  0  0  0  0  0  0  0
    6.0247   -2.5264   37.0597 C   0  0  1  0  0  0  0  0  0  0  0  0
    5.8030   -2.8843   38.4226 O   0  0  0  0  0  0  0  0  0  0  0  0
    4.8230   -3.0063   36.1988 C   0  0  2  0  0  0  0  0  0  0  0  0
    5.2110   -2.9858   34.8271 O   0  0  0  0  0  0  0  0  0  0  0  0
    3.5079   -2.1759   36.3620 C   0  0  1  0  0  0  0  0  0  0  0  0
    2.7312   -2.6653   37.5223 N   0  3  0  0  0  0  0  0  0  0  0  0
    3.7911   -0.6521   36.4287 C   0  0  1  0  0  0  0  0  0  0  0  0
    2.6388    0.1472   36.7927 O   0  0  0  0  0  0  0  0  0  0  0  0
    6.1838   -0.9909   36.9267 C   0  0  1  0  0  0  0  0  0  0  0  0
    4.9243   -0.3808   37.3207 O   0  0  0  0  0  0  0  0  0  0  0  0
    7.3552   -0.4129   37.7426 C   0  0  0  0  0  0  0  0  0  0  0  0
    8.4224   -1.4026   37.9876 N   0  3  0  0  0  0  0  0  0  0  0  0
  1  2  1  6  0  0  0
  1  3  1  0  0  0  0
  1 10  1  0  0  0  0
  3  4  1  6  0  0  0
  3  5  1  0  0  0  0
  5  6  1  1  0  0  0
  5  7  1  0  0  0  0
  7  8  1  6  0  0  0
  7  9  1  0  0  0  0
  9 10  1  0  0  0  0
  9 11  1  1  0  0  0
 11 12  1  0  0  0  0
 13 14  1  6  0  0  0
 13 15  1  0  0  0  0
 13 22  1  0  0  0  0
 15 16  1  6  0  0  0
 15 17  1  0  0  0  0
 17 18  1  1  0  0  0
 17 19  1  0  0  0  0
 19  2  1  1  0  0  0
 19 20  1  0  0  0  0
 20 21  1  1  0  0  0
 20 22  1  0  0  0  0
 23 18  1  6  0  0  0
 23 24  1  0  0  0  0
 23 28  1  0  0  0  0
 24 25  1  1  0  0  0
 24 26  1  0  0  0  0
 26 27  1  0  0  0  0
 26 38  1  1  0  0  0
 27 28  1  0  0  0  0
 27 29  1  6  0  0  0
 29 30  1  0  0  0  0
 31 32  1  1  0  0  0
 31 33  1  0  0  0  0
 31 39  1  0  0  0  0
 33 34  1  6  0  0  0
 33 35  1  0  0  0  0
 35 36  1  1  0  0  0
 35 37  1  0  0  0  0
 37 38  1  1  0  0  0
 37 40  1  0  0  0  0
 39 40  1  0  0  0  0
 39 41  1  1  0  0  0
 41 42  1  0  0  0  0
M  CHG  5   4   1  14   1  21   1  36   1  42   1
M  END
>  <CHROM.1>
-168.47035660,96.22019920,72.01002558,-92.66681462,55.50794777,26.22677985
167.37886340,-46.77457618,68.57501582,-167.13961438,87.52338820,-146.14952948
-65.93760631,130.84808106,64.25805843,67.87341440,68.03177265,-174.09716321
-164.19156657,-153.11397283,25.60101787,-84.55358855,2.13374385,3.18972473
35.46341027,2.53071928,0.84056264,-1.06177247

>  <Name>
1pbr

>  <RI>
0

>  <Rbt.Current_Directory>
/home/itssahil/PROJECTS/Mol_Feturizer/New_Systems/rnas/1pbr

>  <Rbt.Executable>
rbdock ($Id: //depot/dev/client3/rdock/2013.1/src/exe/rbdock.cxx#4 $)

>  <Rbt.Library>
libRbt.so (2013.1, Build901 2013/11/27)

>  <Rbt.Parameter_File>
/export/apps/rDock/src/rDock_2013.1_src/data/scripts/dock_solv.prm

>  <Rbt.Receptor>
prm/blind_docking_40.prm

>  <SCORE>
9.79997

>  <SCORE.INTER>
0.0654714

>  <SCORE.INTER.CONST>
1

>  <SCORE.INTER.POLAR>
-3.26264

>  <SCORE.INTER.ROT>
9

>  <SCORE.INTER.SOLV>
26.4999

>  <SCORE.INTER.VDW>
-7.51419

>  <SCORE.INTER.norm>
0.00155884

>  <SCORE.INTRA>
7.60743

>  <SCORE.INTRA.DIHEDRAL>
6.96056

>  <SCORE.INTRA.DIHEDRAL.0>
29.7866

>  <SCORE.INTRA.POLAR>
0.341186

>  <SCORE.INTRA.POLAR.0>
-0.984091

>  <SCORE.INTRA.REPUL>
-0.274115

>  <SCORE.INTRA.REPUL.0>
0.274115

>  <SCORE.INTRA.SOLV>
4.4483

>  <SCORE.INTRA.SOLV.lig_0>
-152.978

>  <SCORE.INTRA.VDW>
2.11354

>  <SCORE.INTRA.VDW.0>
-6.10719

>  <SCORE.INTRA.norm>
0.181129

>  <SCORE.RESTR>
2.12707

>  <SCORE.RESTR.CAVITY>
2.12707

>  <SCORE.RESTR.norm>
0.0506446

>  <SCORE.SYSTEM>
0

>  <SCORE.SYSTEM.CONST>
0

>  <SCORE.SYSTEM.DIHEDRAL>
0

>  <SCORE.SYSTEM.SOLV>
0

>  <SCORE.SYSTEM.norm>
0

>  <SCORE.heavy>
42

>  <SCORE.norm>
0.233333

>  <RMSD>
10.521

$$$$
1pbr
 OpenBabel11021811403D
libRbt.so/2013.1/901 2013/11/27
 42 45  0  0  0  0  0  0  0  0999 V2000
   -0.4589    5.6840   35.6014 C   0  0  2  0  0  0  0  0  0  0  0  0
   -0.9218    6.0387   34.2736 O   0  0  0  0  0  0  0  0  0  0  0  0
   -1.4555    4.6795   36.2913 C   0  0  2  0  0  0  0  0  0  0  0  0
   -1.9837    3.6205   35.3926 N   0  3  0  0  0  0  0  0  0  0  0  0
   -2.6841    5.4066   36.8695 C   0  0  1  0  0  0  0  0  0  0  0  0
   -3.4371    4.5367   37.7119 O   0  0  0  0  0  0  0  0  0  0  0  0
   -2.2646    6.6515   37.6657 C   0  0  2  0  0  0  0  0  0  0  0  0
   -3.4090    7.2854   38.2285 O   0  0  0  0  0  0  0  0  0  0  0  0
   -1.4307    7.6088   36.7855 C   0  0  2  0  0  0  0  0  0  0  0  0
   -0.2449    6.8876   36.3894 O   0  0  0  0  0  0  0  0  0  0  0  0
   -0.9877    8.8873   37.4949 C   0  0  0  0  0  0  0  0  0  0  0  0
   -2.0664    9.8038   37.6259 O   0  0  0  0  0  0  0  0  0  0  0  0
    1.4387    5.6029   30.7458 C   0  0  1  0  0  0  0  0  0  0  0  0
    2.3711    5.7590   29.6143 N   0  3  0  0  0  0  0  0  0  0  0  0
    2.1827    5.4418   32.1060 C   0  0  2  0  0  0  0  0  0  0  0  0
    3.0402    4.3033   32.0724 O   0  0  0  0  0  0  0  0  0  0  0  0
    1.1783    5.2660   33.2823 C   0  0  1  0  0  0  0  0  0  0  0  0
    1.9211    5.2918   34.5371 O   0  0  0  0  0  0  0  0  0  0  0  0
    0.0903    6.3890   33.2992 C   0  0  1  0  0  0  0  0  0  0  0  0
   -0.6092    6.5769   31.9150 C   0  0  1  0  0  0  0  0  0  0  0  0
   -1.5605    7.7101   31.9352 N   0  3  0  0  0  0  0  0  0  0  0  0
    0.4420    6.7976   30.7967 C   0  0  0  0  0  0  0  0  0  0  0  0
    3.0256    4.3561   34.7525 C   0  0  1  0  0  0  0  0  0  0  0  0
    3.1731    4.1070   36.2652 C   0  0  2  0  0  0  0  0  0  0  0  0
    4.5031    3.7138   36.5920 O   0  0  0  0  0  0  0  0  0  0  0  0
    2.1709    2.9529   36.4184 C   0  0  1  0  0  0  0  0  0  0  0  0
    2.4760    2.0940   35.2023 C   0  0  2  0  0  0  0  0  0  0  0  0
    2.7056    3.0685   34.1962 O   0  0  0  0  0  0  0  0  0  0  0  0
    1.3509    1.1422   34.7757 C   0  0  0  0  0  0  0  0  0  0  0  0
    1.8823    0.0734   34.0066 O   0  0  0  0  0  0  0  0  0  0  0  0
    5.3337   -0.8639   38.0653 C   0  0  1  0  0  0  0  0  0  0  0  0
    6.0102   -0.2228   39.1451 O   0  0  0  0  0  0  0  0  0  0  0  0
    3.8964   -1.2492   38.5138 C   0  0  2  0  0  0  0  0  0  0  0  0
    3.3716   -2.1982   37.5882 O   0  0  0  0  0  0  0  0  0  0  0  0
    2.8909   -0.0577   38.6370 C   0  0  1  0  0  0  0  0  0  0  0  0
    3.0150    0.5848   39.9640 N   0  3  0  0  0  0  0  0  0  0  0  0
    3.0414    0.9489   37.4661 C   0  0  1  0  0  0  0  0  0  0  0  0
    2.2888    2.1745   37.6410 O   0  0  0  0  0  0  0  0  0  0  0  0
    5.2639    0.0804   36.8388 C   0  0  1  0  0  0  0  0  0  0  0  0
    4.4589    1.2317   37.2134 O   0  0  0  0  0  0  0  0  0  0  0  0
    6.6427    0.5200   36.3118 C   0  0  0  0  0  0  0  0  0  0  0  0
    7.1976   -0.4173   35.3158 N   0  3  0  0  0  0  0  0  0  0  0  0
  1  2  1  6  0  0  0
  1  3  1  0  0  0  0
  1 10  1  0  0  0  0
  3  4  1  6  0  0  0
  3  5  1  0  0  0  0
  5  6  1  1  0  0  0
  5  7  1  0  0  0  0
  7  8  1  6  0  0  0
  7  9  1  0  0  0  0
  9 10  1  0  0  0  0
  9 11  1  1  0  0  0
 11 12  1  0  0  0  0
 13 14  1  6  0  0  0
 13 15  1  0  0  0  0
 13 22  1  0  0  0  0
 15 16  1  6  0  0  0
 15 17  1  0  0  0  0
 17 18  1  1  0  0  0
 17 19  1  0  0  0  0
 19  2  1  1  0  0  0
 19 20  1  0  0  0  0
 20 21  1  1  0  0  0
 20 22  1  0  0  0  0
 23 18  1  1  0  0  0
 23 24  1  0  0  0  0
 23 28  1  0  0  0  0
 24 25  1  6  0  0  0
 24 26  1  0  0  0  0
 26 27  1  0  0  0  0
 26 38  1  1  0  0  0
 27 28  1  0  0  0  0
 27 29  1  6  0  0  0
 29 30  1  0  0  0  0
 31 32  1  1  0  0  0
 31 33  1  0  0  0  0
 31 39  1  0  0  0  0
 33 34  1  6  0  0  0
 33 35  1  0  0  0  0
 35 36  1  1  0  0  0
 35 37  1  0  0  0  0
 37 38  1  1  0  0  0
 37 40  1  0  0  0  0
 39 40  1  0  0  0  0
 39 41  1  1  0  0  0
 41 42  1  0  0  0  0
M  CHG  5   4   1  14   1  21   1  36   1  42   1
M  END
>  <CHROM.1>
-151.28210702,50.94307891,-100.46067856,-71.37684390,71.58348616,-75.59814018
-55.64028702,146.54535721,-67.96146497,-55.64779651,-152.97382597,-58.93800500
-74.24907215,-97.92323030,-157.97427806,58.20452847,64.59988184,-179.01515708
172.86095495,-165.73582679,88.22961055,-66.94952840,1.52003620,3.74693139
35.61931929,2.54396478,0.72737094,-1.11692573

>  <Name>
1pbr

>  <RI>
0

>  <Rbt.Current_Directory>
/home/itssahil/PROJECTS/Mol_Feturizer/New_Systems/rnas/1pbr

>  <Rbt.Executable>
rbdock ($Id: //depot/dev/client3/rdock/2013.1/src/exe/rbdock.cxx#4 $)

>  <Rbt.Library>
libRbt.so (2013.1, Build901 2013/11/27)

>  <Rbt.Parameter_File>
/export/apps/rDock/src/rDock_2013.1_src/data/scripts/dock_solv.prm

>  <Rbt.Receptor>
prm/blind_docking_40.prm

>  <SCORE>
8.62946

>  <SCORE.INTER>
0.102314

>  <SCORE.INTER.CONST>
1

>  <SCORE.INTER.POLAR>
-3.80756

>  <SCORE.INTER.ROT>
9

>  <SCORE.INTER.SOLV>
31.885

>  <SCORE.INTER.VDW>
-7.46824

>  <SCORE.INTER.norm>
0.00243604

>  <SCORE.INTRA>
3.37068

>  <SCORE.INTRA.DIHEDRAL>
-3.37392

>  <SCORE.INTRA.DIHEDRAL.0>
29.7866

>  <SCORE.INTRA.POLAR>
0.332938

>  <SCORE.INTRA.POLAR.0>
-0.984091

>  <SCORE.INTRA.REPUL>
-0.274115

>  <SCORE.INTRA.REPUL.0>
0.274115

>  <SCORE.INTRA.SOLV>
-3.72149

>  <SCORE.INTRA.SOLV.lig_0>
-152.978

>  <SCORE.INTRA.VDW>
7.15698

>  <SCORE.INTRA.VDW.0>
-6.10719

>  <SCORE.INTRA.norm>
0.0802544

>  <SCORE.RESTR>
5.15646

>  <SCORE.RESTR.CAVITY>
5.15646

>  <SCORE.RESTR.norm>
0.122773

>  <SCORE.SYSTEM>
0

>  <SCORE.SYSTEM.CONST>
0

>  <SCORE.SYSTEM.DIHEDRAL>
0

>  <SCORE.SYSTEM.SOLV>
0

>  <SCORE.SYSTEM.norm>
0

>  <SCORE.heavy>
42

>  <SCORE.norm>
0.205463

>  <RMSD>
10.541

$$$$
1pbr
 OpenBabel11021811403D
libRbt.so/2013.1/901 2013/11/27
 42 45  0  0  0  0  0  0  0  0999 V2000
    0.3871    5.1330   35.0764 C   0  0  2  0  0  0  0  0  0  0  0  0
    0.1068    5.1864   33.6546 O   0  0  0  0  0  0  0  0  0  0  0  0
   -0.8649    4.6089   35.8740 C   0  0  2  0  0  0  0  0  0  0  0  0
   -1.5800    3.4791   35.2254 N   0  3  0  0  0  0  0  0  0  0  0  0
   -1.9117    5.7199   36.0805 C   0  0  1  0  0  0  0  0  0  0  0  0
   -2.9043    5.3118   37.0194 O   0  0  0  0  0  0  0  0  0  0  0  0
   -1.2501    7.0176   36.5684 C   0  0  2  0  0  0  0  0  0  0  0  0
   -2.2371    8.0188   36.7954 O   0  0  0  0  0  0  0  0  0  0  0  0
   -0.1555    7.4788   35.5807 C   0  0  2  0  0  0  0  0  0  0  0  0
    0.8401    6.4345   35.5413 O   0  0  0  0  0  0  0  0  0  0  0  0
    0.5422    8.7781   35.9796 C   0  0  0  0  0  0  0  0  0  0  0  0
   -0.3341    9.8909   35.8604 O   0  0  0  0  0  0  0  0  0  0  0  0
    2.4548    4.9520   30.0994 C   0  0  1  0  0  0  0  0  0  0  0  0
    3.4528    5.1091   29.0254 N   0  3  0  0  0  0  0  0  0  0  0  0
    3.0624    4.3024   31.3794 C   0  0  2  0  0  0  0  0  0  0  0  0
    3.6009    3.0173   31.0777 O   0  0  0  0  0  0  0  0  0  0  0  0
    1.9875    4.1356   32.4932 C   0  0  1  0  0  0  0  0  0  0  0  0
    2.6470    3.6853   33.7136 O   0  0  0  0  0  0  0  0  0  0  0  0
    1.2233    5.4699   32.7774 C   0  0  1  0  0  0  0  0  0  0  0  0
    0.6668    6.1385   31.4797 C   0  0  1  0  0  0  0  0  0  0  0  0
    0.0370    7.4460   31.7681 N   0  3  0  0  0  0  0  0  0  0  0  0
    1.7953    6.3223   30.4322 C   0  0  0  0  0  0  0  0  0  0  0  0
    3.4878    2.4877   33.6913 C   0  0  1  0  0  0  0  0  0  0  0  0
    4.1155    2.2997   35.0851 C   0  0  2  0  0  0  0  0  0  0  0  0
    5.3324    1.5631   35.0035 O   0  0  0  0  0  0  0  0  0  0  0  0
    2.9900    1.4922   35.7494 C   0  0  1  0  0  0  0  0  0  0  0  0
    2.6061    0.5094   34.6557 C   0  0  2  0  0  0  0  0  0  0  0  0
    2.6808    1.3141   33.4888 O   0  0  0  0  0  0  0  0  0  0  0  0
    1.2068   -0.1050   34.7910 C   0  0  0  0  0  0  0  0  0  0  0  0
    0.2259    0.9210   34.8310 O   0  0  0  0  0  0  0  0  0  0  0  0
    5.6291   -2.8285   37.6209 C   0  0  1  0  0  0  0  0  0  0  0  0
    5.2906   -2.9501   39.0013 O   0  0  0  0  0  0  0  0  0  0  0  0
    4.3411   -2.9598   36.7610 C   0  0  2  0  0  0  0  0  0  0  0  0
    4.7214   -3.2110   35.4101 O   0  0  0  0  0  0  0  0  0  0  0  0
    3.3854   -1.7223   36.7927 C   0  0  1  0  0  0  0  0  0  0  0  0
    2.4816   -1.8001   37.9615 N   0  3  0  0  0  0  0  0  0  0  0  0
    4.1692   -0.3850   36.7279 C   0  0  1  0  0  0  0  0  0  0  0  0
    3.3548    0.7888   36.9687 O   0  0  0  0  0  0  0  0  0  0  0  0
    6.3013   -1.4588   37.3513 C   0  0  1  0  0  0  0  0  0  0  0  0
    5.3216   -0.4228   37.6355 O   0  0  0  0  0  0  0  0  0  0  0  0
    7.5944   -1.2302   38.1561 C   0  0  0  0  0  0  0  0  0  0  0  0
    7.3468   -0.5908   39.4632 N   0  3  0  0  0  0  0  0  0  0  0  0
  1  2  1  6  0  0  0
  1  3  1  0  0  0  0
  1 10  1  0  0  0  0
  3  4  1  6  0  0  0
  3  5  1  0  0  0  0
  5  6  1  1  0  0  0
  5  7  1  0  0  0  0
  7  8  1  6  0  0  0
  7  9  1  0  0  0  0
  9 10  1  0  0  0  0
  9 11  1  1  0  0  0
 11 12  1  0  0  0  0
 13 14  1  6  0  0  0
 13 15  1  0  0  0  0
 13 22  1  0  0  0  0
 15 16  1  6  0  0  0
 15 17  1  0  0  0  0
 17 18  1  1  0  0  0
 17 19  1  0  0  0  0
 19  2  1  1  0  0  0
 19 20  1  0  0  0  0
 20 21  1  1  0  0  0
 20 22  1  0  0  0  0
 23 18  1  1  0  0  0
 23 24  1  0  0  0  0
 23 28  1  0  0  0  0
 24 25  1  6  0  0  0
 24 26  1  0  0  0  0
 26 27  1  0  0  0  0
 26 38  1  1  0  0  0
 27 28  1  0  0  0  0
 27 29  1  1  0  0  0
 29 30  1  0  0  0  0
 31 32  1  1  0  0  0
 31 33  1  0  0  0  0
 31 39  1  0  0  0  0
 33 34  1  6  0  0  0
 33 35  1  0  0  0  0
 35 36  1  1  0  0  0
 35 37  1  0  0  0  0
 37 38  1  1  0  0  0
 37 40  1  0  0  0  0
 39 40  1  0  0  0  0
 39 41  1  1  0  0  0
 41 42  1  0  0  0  0
M  CHG  5   4   1  14   1  21   1  36   1  42   1
M  END
>  <CHROM.1>
-171.57193030,83.72839815,-166.71145044,62.57456345,-60.29232627,-69.45400791
179.72841858,-48.79868168,-66.24554188,-54.25547335,176.71170154,85.06007615
170.44656195,-74.00854258,57.29063346,-61.80278948,-179.95790330,-57.46589186
175.68300060,-101.33066239,-89.98795210,-66.80314184,2.22972075,2.84387003
35.04355927,2.41045858,0.83234018,-1.06211130

>  <Name>
1pbr

>  <RI>
0

>  <Rbt.Current_Directory>
/home/itssahil/PROJECTS/Mol_Feturizer/New_Systems/rnas/1pbr

>  <Rbt.Executable>
rbdock ($Id: //depot/dev/client3/rdock/2013.1/src/exe/rbdock.cxx#4 $)

>  <Rbt.Library>
libRbt.so (2013.1, Build901 2013/11/27)

>  <Rbt.Parameter_File>
/export/apps/rDock/src/rDock_2013.1_src/data/scripts/dock_solv.prm

>  <Rbt.Receptor>
prm/blind_docking_40.prm

>  <SCORE>
8.47013

>  <SCORE.INTER>
10.224

>  <SCORE.INTER.CONST>
1

>  <SCORE.INTER.POLAR>
-3.23398

>  <SCORE.INTER.ROT>
9

>  <SCORE.INTER.SOLV>
34.1652

>  <SCORE.INTER.VDW>
-3.39243

>  <SCORE.INTER.norm>
0.24343

>  <SCORE.INTRA>
-4.81019

>  <SCORE.INTRA.DIHEDRAL>
-13.6815

>  <SCORE.INTRA.DIHEDRAL.0>
29.7866

>  <SCORE.INTRA.POLAR>
-0.24044

>  <SCORE.INTRA.POLAR.0>
-0.984091

>  <SCORE.INTRA.REPUL>
-0.274115

>  <SCORE.INTRA.REPUL.0>
0.274115

>  <SCORE.INTRA.SOLV>
1.92162

>  <SCORE.INTRA.SOLV.lig_0>
-152.978

>  <SCORE.INTRA.VDW>
3.2578

>  <SCORE.INTRA.VDW.0>
-6.10719

>  <SCORE.INTRA.norm>
-0.114528

>  <SCORE.RESTR>
3.05629

>  <SCORE.RESTR.CAVITY>
3.05629

>  <SCORE.RESTR.norm>
0.0727687

>  <SCORE.SYSTEM>
0

>  <SCORE.SYSTEM.CONST>
0

>  <SCORE.SYSTEM.DIHEDRAL>
0

>  <SCORE.SYSTEM.SOLV>
0

>  <SCORE.SYSTEM.norm>
0

>  <SCORE.heavy>
42

>  <SCORE.norm>
0.20167

>  <RMSD>
10.743

$$$$
1pbr
 OpenBabel11021811403D
libRbt.so/2013.1/901 2013/11/27
 42 45  0  0  0  0  0  0  0  0999 V2000
    0.1882    7.3425   36.2290 C   0  0  2  0  0  0  0  0  0  0  0  0
   -0.3072    6.6381   35.0622 O   0  0  0  0  0  0  0  0  0  0  0  0
   -0.7711    7.1310   37.4591 C   0  0  2  0  0  0  0  0  0  0  0  0
   -1.2899    5.7461   37.6050 N   0  3  0  0  0  0  0  0  0  0  0  0
   -2.0063    8.0479   37.3794 C   0  0  1  0  0  0  0  0  0  0  0  0
   -2.7225    8.0404   38.6124 O   0  0  0  0  0  0  0  0  0  0  0  0
   -1.6024    9.4888   37.0323 C   0  0  2  0  0  0  0  0  0  0  0  0
   -2.7514   10.3298   37.0061 O   0  0  0  0  0  0  0  0  0  0  0  0
   -0.8081    9.5305   35.7080 C   0  0  2  0  0  0  0  0  0  0  0  0
    0.3874    8.7479   35.9118 O   0  0  0  0  0  0  0  0  0  0  0  0
   -0.3832   10.9328   35.2754 C   0  0  0  0  0  0  0  0  0  0  0  0
    0.0383   10.9475   33.9179 O   0  0  0  0  0  0  0  0  0  0  0  0
    0.8909    5.7880   31.0560 C   0  0  1  0  0  0  0  0  0  0  0  0
    1.4813    5.7825   29.7049 N   0  3  0  0  0  0  0  0  0  0  0  0
    1.9574    5.5496   32.1674 C   0  0  2  0  0  0  0  0  0  0  0  0
    2.6109    4.2980   31.9698 O   0  0  0  0  0  0  0  0  0  0  0  0
    1.3084    5.5470   33.5824 C   0  0  1  0  0  0  0  0  0  0  0  0
    2.3693    5.4914   34.5816 O   0  0  0  0  0  0  0  0  0  0  0  0
    0.4291    6.8165   33.8282 C   0  0  1  0  0  0  0  0  0  0  0  0
   -0.5984    7.0744   32.6799 C   0  0  1  0  0  0  0  0  0  0  0  0
   -1.3455    8.3341   32.8907 N   0  3  0  0  0  0  0  0  0  0  0  0
    0.1174    7.1158   31.3050 C   0  0  0  0  0  0  0  0  0  0  0  0
    2.0454    5.1861   35.9758 C   0  0  1  0  0  0  0  0  0  0  0  0
    1.2960    3.8415   36.0250 C   0  0  2  0  0  0  0  0  0  0  0  0
    0.4696    3.7581   37.1828 O   0  0  0  0  0  0  0  0  0  0  0  0
    2.5036    2.8952   36.1026 C   0  0  1  0  0  0  0  0  0  0  0  0
    3.4078    3.6032   37.0980 C   0  0  2  0  0  0  0  0  0  0  0  0
    3.2493    4.9653   36.7319 O   0  0  0  0  0  0  0  0  0  0  0  0
    4.8876    3.2031   37.0359 C   0  0  0  0  0  0  0  0  0  0  0  0
    5.5882    3.7539   38.1413 O   0  0  0  0  0  0  0  0  0  0  0  0
    4.8305   -1.8958   36.7265 C   0  0  1  0  0  0  0  0  0  0  0  0
    3.8428   -2.8362   36.3083 O   0  0  0  0  0  0  0  0  0  0  0  0
    5.0927   -0.8797   35.5801 C   0  0  2  0  0  0  0  0  0  0  0  0
    6.3137   -0.1953   35.8511 O   0  0  0  0  0  0  0  0  0  0  0  0
    3.9635    0.1778   35.3509 C   0  0  1  0  0  0  0  0  0  0  0  0
    2.9107   -0.3763   34.4714 N   0  3  0  0  0  0  0  0  0  0  0  0
    3.4015    0.7226   36.6903 C   0  0  1  0  0  0  0  0  0  0  0  0
    2.2143    1.5400   36.5434 O   0  0  0  0  0  0  0  0  0  0  0  0
    4.3532   -1.1434   37.9941 C   0  0  1  0  0  0  0  0  0  0  0  0
    3.1712   -0.3774   37.6339 O   0  0  0  0  0  0  0  0  0  0  0  0
    4.0682   -2.0645   39.1951 C   0  0  0  0  0  0  0  0  0  0  0  0
    2.6290   -2.3383   39.3746 N   0  3  0  0  0  0  0  0  0  0  0  0
  1  2  1  6  0  0  0
  1  3  1  0  0  0  0
  1 10  1  0  0  0  0
  3  4  1  6  0  0  0
  3  5  1  0  0  0  0
  5  6  1  1  0  0  0
  5  7  1  0  0  0  0
  7  8  1  6  0  0  0
  7  9  1  0  0  0  0
  9 10  1  0  0  0  0
  9 11  1  1  0  0  0
 11 12  1  0  0  0  0
 13 14  1  6  0  0  0
 13 15  1  0  0  0  0
 13 22  1  0  0  0  0
 15 16  1  6  0  0  0
 15 17  1  0  0  0  0
 17 18  1  1  0  0  0
 17 19  1  0  0  0  0
 19  2  1  1  0  0  0
 19 20  1  0  0  0  0
 20 21  1  1  0  0  0
 20 22  1  0  0  0  0
 23 18  1  6  0  0  0
 23 24  1  0  0  0  0
 23 28  1  0  0  0  0
 24 25  1  1  0  0  0
 24 26  1  0  0  0  0
 26 27  1  0  0  0  0
 26 38  1  1  0  0  0
 27 28  1  0  0  0  0
 27 29  1  6  0  0  0
 29 30  1  0  0  0  0
 31 32  1  6  0  0  0
 31 33  1  0  0  0  0
 31 39  1  0  0  0  0
 33 34  1  1  0  0  0
 33 35  1  0  0  0  0
 35 36  1  1  0  0  0
 35 37  1  0  0  0  0
 37 38  1  6  0  0  0
 37 40  1  0  0  0  0
 39 40  1  0  0  0  0
 39 41  1  1  0  0  0
 41 42  1  0  0  0  0
M  CHG  5   4   1  14   1  21   1  36   1  42   1
M  END
>  <CHROM.1>
175.98034069,102.57813179,-175.50114098,-175.66974755,-68.38112495,-165.45415657
-78.97223078,46.26690313,69.69165075,-166.71356579,56.00679321,178.06737842
-177.03412609,-175.77425423,-170.43428283,73.91868600,-78.00443884,78.23824771
-60.63298104,-78.53872081,-100.48762547,93.00541611,1.59123233,4.41983317
35.64934765,2.59001097,1.00408273,-1.15257083

>  <Name>
1pbr

>  <RI>
0

>  <Rbt.Current_Directory>
/home/itssahil/PROJECTS/Mol_Feturizer/New_Systems/rnas/1pbr

>  <Rbt.Executable>
rbdock ($Id: //depot/dev/client3/rdock/2013.1/src/exe/rbdock.cxx#4 $)

>  <Rbt.Library>
libRbt.so (2013.1, Build901 2013/11/27)

>  <Rbt.Parameter_File>
/export/apps/rDock/src/rDock_2013.1_src/data/scripts/dock_solv.prm

>  <Rbt.Receptor>
prm/blind_docking_40.prm

>  <SCORE>
-21.4211

>  <SCORE.INTER>
-24.1857

>  <SCORE.INTER.CONST>
1

>  <SCORE.INTER.POLAR>
-3.43472

>  <SCORE.INTER.ROT>
9

>  <SCORE.INTER.SOLV>
29.9743

>  <SCORE.INTER.VDW>
-24.2662

>  <SCORE.INTER.norm>
-0.575851

>  <SCORE.INTRA>
-4.32284

>  <SCORE.INTRA.DIHEDRAL>
-6.00986

>  <SCORE.INTRA.DIHEDRAL.0>
29.7866

>  <SCORE.INTRA.POLAR>
-1.23488

>  <SCORE.INTRA.POLAR.0>
-0.984091

>  <SCORE.INTRA.REPUL>
-0.274115

>  <SCORE.INTRA.REPUL.0>
0.274115

>  <SCORE.INTRA.SOLV>
6.2884

>  <SCORE.INTRA.SOLV.lig_0>
-152.978

>  <SCORE.INTRA.VDW>
1.10707

>  <SCORE.INTRA.VDW.0>
-6.10719

>  <SCORE.INTRA.norm>
-0.102925

>  <SCORE.RESTR>
7.08748

>  <SCORE.RESTR.CAVITY>
7.08748

>  <SCORE.RESTR.norm>
0.168749

>  <SCORE.SYSTEM>
0

>  <SCORE.SYSTEM.CONST>
0

>  <SCORE.SYSTEM.DIHEDRAL>
0

>  <SCORE.SYSTEM.SOLV>
0

>  <SCORE.SYSTEM.norm>
0

>  <SCORE.heavy>
42

>  <SCORE.norm>
-0.510026

>  <RMSD>
10.819

$$$$
1pbr
 OpenBabel11021811403D
libRbt.so/2013.1/901 2013/11/27
 42 45  0  0  0  0  0  0  0  0999 V2000
    1.0730    6.1082   32.3060 C   0  0  2  0  0  0  0  0  0  0  0  0
    0.0396    5.1969   32.7585 O   0  0  0  0  0  0  0  0  0  0  0  0
    0.6846    6.7519   30.9229 C   0  0  2  0  0  0  0  0  0  0  0  0
   -0.7431    7.1475   30.8066 N   0  3  0  0  0  0  0  0  0  0  0  0
    0.9623    5.7906   29.7519 C   0  0  1  0  0  0  0  0  0  0  0  0
    0.8590    6.4712   28.5031 O   0  0  0  0  0  0  0  0  0  0  0  0
    2.3571    5.1590   29.8753 C   0  0  2  0  0  0  0  0  0  0  0  0
    2.6130    4.3080   28.7624 O   0  0  0  0  0  0  0  0  0  0  0  0
    2.5086    4.4269   31.2272 C   0  0  2  0  0  0  0  0  0  0  0  0
    2.3544    5.4215   32.2618 O   0  0  0  0  0  0  0  0  0  0  0  0
    3.8636    3.7495   31.4253 C   0  0  0  0  0  0  0  0  0  0  0  0
    3.7670    2.6599   32.3330 O   0  0  0  0  0  0  0  0  0  0  0  0
   -0.3744    7.0879   36.5612 C   0  0  1  0  0  0  0  0  0  0  0  0
   -0.7355    7.4876   37.9337 N   0  3  0  0  0  0  0  0  0  0  0  0
    0.4430    5.7611   36.5284 C   0  0  2  0  0  0  0  0  0  0  0  0
    1.6435    5.8974   37.2852 O   0  0  0  0  0  0  0  0  0  0  0  0
    0.8229    5.3671   35.0710 C   0  0  1  0  0  0  0  0  0  0  0  0
    1.4322    4.0422   35.0902 O   0  0  0  0  0  0  0  0  0  0  0  0
   -0.4202    5.3538   34.1225 C   0  0  1  0  0  0  0  0  0  0  0  0
   -1.2611    6.6678   34.2059 C   0  0  1  0  0  0  0  0  0  0  0  0
   -2.4823    6.5863   33.3744 N   0  3  0  0  0  0  0  0  0  0  0  0
   -1.6495    6.9760   35.6751 C   0  0  0  0  0  0  0  0  0  0  0  0
    0.6276    2.8724   35.4453 C   0  0  1  0  0  0  0  0  0  0  0  0
    1.5461    1.6369   35.4891 C   0  0  2  0  0  0  0  0  0  0  0  0
    0.8082    0.4416   35.2504 O   0  0  0  0  0  0  0  0  0  0  0  0
    2.0252    1.7442   36.9447 C   0  0  1  0  0  0  0  0  0  0  0  0
    0.7448    2.0977   37.6830 C   0  0  2  0  0  0  0  0  0  0  0  0
    0.1204    3.0026   36.7852 O   0  0  0  0  0  0  0  0  0  0  0  0
    0.9419    2.7576   39.0539 C   0  0  0  0  0  0  0  0  0  0  0  0
   -0.1620    2.4663   39.8982 O   0  0  0  0  0  0  0  0  0  0  0  0
    5.8565   -1.8126   35.8589 C   0  0  1  0  0  0  0  0  0  0  0  0
    6.4227   -2.1583   37.1217 O   0  0  0  0  0  0  0  0  0  0  0  0
    4.4287   -2.4171   35.7514 C   0  0  2  0  0  0  0  0  0  0  0  0
    4.0277   -2.3928   34.3835 O   0  0  0  0  0  0  0  0  0  0  0  0
    3.3329   -1.7038   36.6095 C   0  0  1  0  0  0  0  0  0  0  0  0
    3.3351   -2.2344   37.9907 N   0  3  0  0  0  0  0  0  0  0  0  0
    3.4739   -0.1597   36.5594 C   0  0  1  0  0  0  0  0  0  0  0  0
    2.6246    0.5415   37.5006 O   0  0  0  0  0  0  0  0  0  0  0  0
    5.7859   -0.2724   35.7053 C   0  0  1  0  0  0  0  0  0  0  0  0
    4.8787    0.2315   36.7235 O   0  0  0  0  0  0  0  0  0  0  0  0
    7.1558    0.4259   35.7934 C   0  0  0  0  0  0  0  0  0  0  0  0
    7.8830    0.0999   37.0358 N   0  3  0  0  0  0  0  0  0  0  0  0
  1  2  1  6  0  0  0
  1  3  1  0  0  0  0
  1 10  1  0  0  0  0
  3  4  1  1  0  0  0
  3  5  1  0  0  0  0
  5  6  1  6  0  0  0
  5  7  1  0  0  0  0
  7  8  1  6  0  0  0
  7  9  1  0  0  0  0
  9 10  1  0  0  0  0
  9 11  1  6  0  0  0
 11 12  1  0  0  0  0
 13 14  1  1  0  0  0
 13 15  1  0  0  0  0
 13 22  1  0  0  0  0
 15 16  1  1  0  0  0
 15 17  1  0  0  0  0
 17 18  1  1  0  0  0
 17 19  1  0  0  0  0
 19  2  1  6  0  0  0
 19 20  1  0  0  0  0
 20 21  1  6  0  0  0
 20 22  1  0  0  0  0
 23 18  1  1  0  0  0
 23 24  1  0  0  0  0
 23 28  1  0  0  0  0
 24 25  1  1  0  0  0
 24 26  1  0  0  0  0
 26 27  1  0  0  0  0
 26 38  1  1  0  0  0
 27 28  1  0  0  0  0
 27 29  1  1  0  0  0
 29 30  1  0  0  0  0
 31 32  1  1  0  0  0
 31 33  1  0  0  0  0
 31 39  1  0  0  0  0
 33 34  1  6  0  0  0
 33 35  1  0  0  0  0
 35 36  1  1  0  0  0
 35 37  1  0  0  0  0
 37 38  1  1  0  0  0
 37 40  1  0  0  0  0
 39 40  1  0  0  0  0
 39 41  1  1  0  0  0
 41 42  1  0  0  0  0
M  CHG  5   4   1  14   1  21   1  36   1  42   1
M  END
>  <CHROM.1>
-130.75926954,-51.39800701,-66.79456864,-173.73566504,170.60000380,-154.42979400
-165.99959569,-170.62605099,-60.41097371,67.15453985,-175.68600607,-36.47203035
70.00713921,39.75872326,-151.94539897,176.75129138,-67.19967768,61.99903943
-87.55131370,-139.43045650,-55.18332810,-73.99739663,2.00240873,3.06596769
34.78132600,-2.33607079,-0.82069084,1.97983957

>  <Name>
1pbr

>  <RI>
0

>  <Rbt.Current_Directory>
/home/itssahil/PROJECTS/Mol_Feturizer/New_Systems/rnas/1pbr

>  <Rbt.Executable>
rbdock ($Id: //depot/dev/client3/rdock/2013.1/src/exe/rbdock.cxx#4 $)

>  <Rbt.Library>
libRbt.so (2013.1, Build901 2013/11/27)

>  <Rbt.Parameter_File>
/export/apps/rDock/src/rDock_2013.1_src/data/scripts/dock_solv.prm

>  <Rbt.Receptor>
prm/blind_docking_80.prm

>  <SCORE>
-11.2048

>  <SCORE.INTER>
-16.1947

>  <SCORE.INTER.CONST>
1

>  <SCORE.INTER.POLAR>
-2.36362

>  <SCORE.INTER.ROT>
9

>  <SCORE.INTER.SOLV>
32.5273

>  <SCORE.INTER.VDW>
-23.3602

>  <SCORE.INTER.norm>
-0.385589

>  <SCORE.INTRA>
2.23695

>  <SCORE.INTRA.DIHEDRAL>
-4.18256

>  <SCORE.INTRA.DIHEDRAL.0>
29.7866

>  <SCORE.INTRA.POLAR>
0.507598

>  <SCORE.INTRA.POLAR.0>
-0.984091

>  <SCORE.INTRA.REPUL>
-0.254682

>  <SCORE.INTRA.REPUL.0>
0.274115

>  <SCORE.INTRA.SOLV>
3.8634

>  <SCORE.INTRA.SOLV.lig_0>
-152.978

>  <SCORE.INTRA.VDW>
1.9441

>  <SCORE.INTRA.VDW.0>
-6.10719

>  <SCORE.INTRA.norm>
0.0532607

>  <SCORE.RESTR>
2.75299

>  <SCORE.RESTR.CAVITY>
2.75299

>  <SCORE.RESTR.norm>
0.0655474

>  <SCORE.SYSTEM>
0

>  <SCORE.SYSTEM.CONST>
0

>  <SCORE.SYSTEM.DIHEDRAL>
0

>  <SCORE.SYSTEM.SOLV>
0

>  <SCORE.SYSTEM.norm>
0

>  <SCORE.heavy>
42

>  <SCORE.norm>
-0.26678

>  <RMSD>
11.429

$$$$
1pbr
 OpenBabel11021811403D
libRbt.so/2013.1/901 2013/11/27
 42 45  0  0  0  0  0  0  0  0999 V2000
    1.6523    5.7988   32.1752 C   0  0  2  0  0  0  0  0  0  0  0  0
    0.3359    5.2966   32.5191 O   0  0  0  0  0  0  0  0  0  0  0  0
    1.7223    6.1864   30.6511 C   0  0  2  0  0  0  0  0  0  0  0  0
    0.5150    6.8833   30.1363 N   0  3  0  0  0  0  0  0  0  0  0  0
    1.9175    4.9461   29.7587 C   0  0  1  0  0  0  0  0  0  0  0  0
    2.2421    5.3289   28.4241 O   0  0  0  0  0  0  0  0  0  0  0  0
    3.0245    4.0365   30.3126 C   0  0  2  0  0  0  0  0  0  0  0  0
    3.2204    2.9187   29.4521 O   0  0  0  0  0  0  0  0  0  0  0  0
    2.7118    3.6167   31.7661 C   0  0  2  0  0  0  0  0  0  0  0  0
    2.6670    4.8270   32.5512 O   0  0  0  0  0  0  0  0  0  0  0  0
    3.7547    2.6907   32.3897 C   0  0  0  0  0  0  0  0  0  0  0  0
    3.3858    2.3145   33.7099 O   0  0  0  0  0  0  0  0  0  0  0  0
   -0.1502    7.9847   35.7972 C   0  0  1  0  0  0  0  0  0  0  0  0
   -0.6105    8.7461   36.9729 N   0  3  0  0  0  0  0  0  0  0  0  0
    0.2114    6.5108   36.1528 C   0  0  2  0  0  0  0  0  0  0  0  0
    1.2397    6.4749   37.1396 O   0  0  0  0  0  0  0  0  0  0  0  0
    0.7062    5.7319   34.8990 C   0  0  1  0  0  0  0  0  0  0  0  0
    0.8645    4.3267   35.2558 O   0  0  0  0  0  0  0  0  0  0  0  0
   -0.2898    5.8545   33.6997 C   0  0  1  0  0  0  0  0  0  0  0  0
   -0.6862    7.3334   33.3892 C   0  0  1  0  0  0  0  0  0  0  0  0
   -1.7036    7.4107   32.3175 N   0  3  0  0  0  0  0  0  0  0  0  0
   -1.2175    8.0365   34.6651 C   0  0  0  0  0  0  0  0  0  0  0  0
    0.6857    3.9002   36.6443 C   0  0  1  0  0  0  0  0  0  0  0  0
    0.3506    2.3970   36.6592 C   0  0  2  0  0  0  0  0  0  0  0  0
   -0.3804    2.0469   37.8311 O   0  0  0  0  0  0  0  0  0  0  0  0
    1.7790    1.8318   36.6739 C   0  0  1  0  0  0  0  0  0  0  0  0
    2.4767    2.7378   37.6750 C   0  0  2  0  0  0  0  0  0  0  0  0
    1.9263    4.0087   37.3644 O   0  0  0  0  0  0  0  0  0  0  0  0
    4.0063    2.7777   37.5648 C   0  0  0  0  0  0  0  0  0  0  0  0
    4.5883    1.9438   38.5558 O   0  0  0  0  0  0  0  0  0  0  0  0
    5.2940   -2.0267   36.0232 C   0  0  1  0  0  0  0  0  0  0  0  0
    4.5698   -2.8796   35.1384 O   0  0  0  0  0  0  0  0  0  0  0  0
    5.2857   -0.5769   35.4632 C   0  0  2  0  0  0  0  0  0  0  0  0
    6.2987    0.1727   36.1300 O   0  0  0  0  0  0  0  0  0  0  0  0
    3.9264    0.1849   35.5963 C   0  0  1  0  0  0  0  0  0  0  0  0
    3.0393   -0.1429   34.4585 N   0  3  0  0  0  0  0  0  0  0  0  0
    3.2555   -0.0663   36.9724 C   0  0  1  0  0  0  0  0  0  0  0  0
    1.9006    0.4378   37.0694 O   0  0  0  0  0  0  0  0  0  0  0  0
    4.6528   -2.0468   37.4335 C   0  0  1  0  0  0  0  0  0  0  0  0
    3.3142   -1.4913   37.3178 O   0  0  0  0  0  0  0  0  0  0  0  0
    4.6156   -3.4437   38.0811 C   0  0  0  0  0  0  0  0  0  0  0  0
    5.6395   -4.3540   37.5321 N   0  3  0  0  0  0  0  0  0  0  0  0
  1  2  1  6  0  0  0
  1  3  1  0  0  0  0
  1 10  1  0  0  0  0
  3  4  1  6  0  0  0
  3  5  1  0  0  0  0
  5  6  1  6  0  0  0
  5  7  1  0  0  0  0
  7  8  1  6  0  0  0
  7  9  1  0  0  0  0
  9 10  1  0  0  0  0
  9 11  1  1  0  0  0
 11 12  1  0  0  0  0
 13 14  1  1  0  0  0
 13 15  1  0  0  0  0
 13 22  1  0  0  0  0
 15 16  1  1  0  0  0
 15 17  1  0  0  0  0
 17 18  1  1  0  0  0
 17 19  1  0  0  0  0
 19  2  1  6  0  0  0
 19 20  1  0  0  0  0
 20 21  1  6  0  0  0
 20 22  1  0  0  0  0
 23 18  1  6  0  0  0
 23 24  1  0  0  0  0
 23 28  1  0  0  0  0
 24 25  1  1  0  0  0
 24 26  1  0  0  0  0
 26 27  1  0  0  0  0
 26 38  1  1  0  0  0
 27 28  1  0  0  0  0
 27 29  1  6  0  0  0
 29 30  1  0  0  0  0
 31 32  1  6  0  0  0
 31 33  1  0  0  0  0
 31 39  1  0  0  0  0
 33 34  1  1  0  0  0
 33 35  1  0  0  0  0
 35 36  1  6  0  0  0
 35 37  1  0  0  0  0
 37 38  1  6  0  0  0
 37 40  1  0  0  0  0
 39 40  1  0  0  0  0
 39 41  1  6  0  0  0
 41 42  1  0  0  0  0
M  CHG  5   4   1  14   1  21   1  36   1  42   1
M  END
>  <CHROM.1>
-131.56251513,-52.56081259,56.75421060,-66.24934429,-178.29131737,-178.32495175
36.55253577,-48.03915955,61.46773267,-5.66834311,157.68383600,-173.97237664
-169.44799618,175.82348102,-100.27573183,-179.86989699,-89.75214634,-176.32546895
50.38990790,-51.67211468,23.44581117,155.22542028,2.21716089,3.03716746,34.76345717
-2.42921090,-1.00302764,1.89260557

>  <Name>
1pbr

>  <RI>
0

>  <Rbt.Current_Directory>
/home/itssahil/PROJECTS/Mol_Feturizer/New_Systems/rnas/1pbr

>  <Rbt.Executable>
rbdock ($Id: //depot/dev/client3/rdock/2013.1/src/exe/rbdock.cxx#4 $)

>  <Rbt.Library>
libRbt.so (2013.1, Build901 2013/11/27)

>  <Rbt.Parameter_File>
/export/apps/rDock/src/rDock_2013.1_src/data/scripts/dock_solv.prm

>  <Rbt.Receptor>
prm/blind_docking_40.prm

>  <SCORE>
-16.8604

>  <SCORE.INTER>
-34.1239

>  <SCORE.INTER.CONST>
1

>  <SCORE.INTER.POLAR>
-6.05375

>  <SCORE.INTER.ROT>
9

>  <SCORE.INTER.SOLV>
30.9475

>  <SCORE.INTER.VDW>
-22.4859

>  <SCORE.INTER.norm>
-0.812474

>  <SCORE.INTRA>
14.0086

>  <SCORE.INTRA.DIHEDRAL>
3.62265

>  <SCORE.INTRA.DIHEDRAL.0>
29.7866

>  <SCORE.INTRA.POLAR>
0.788127

>  <SCORE.INTRA.POLAR.0>
-0.984091

>  <SCORE.INTRA.REPUL>
-0.20247

>  <SCORE.INTRA.REPUL.0>
0.274115

>  <SCORE.INTRA.SOLV>
10.5418

>  <SCORE.INTRA.SOLV.lig_0>
-152.978

>  <SCORE.INTRA.VDW>
5.25908

>  <SCORE.INTRA.VDW.0>
-6.10719

>  <SCORE.INTRA.norm>
0.333537

>  <SCORE.RESTR>
3.25497

>  <SCORE.RESTR.CAVITY>
3.25497

>  <SCORE.RESTR.norm>
0.0774992

>  <SCORE.SYSTEM>
0

>  <SCORE.SYSTEM.CONST>
0

>  <SCORE.SYSTEM.DIHEDRAL>
0

>  <SCORE.SYSTEM.SOLV>
0

>  <SCORE.SYSTEM.norm>
0

>  <SCORE.heavy>
42

>  <SCORE.norm>
-0.401437

>  <RMSD>
11.466

$$$$
1pbr
 OpenBabel11021811403D
libRbt.so/2013.1/901 2013/11/27
 42 45  0  0  0  0  0  0  0  0999 V2000
    1.5393    6.0895   32.1829 C   0  0  2  0  0  0  0  0  0  0  0  0
    0.4959    5.3374   32.8529 O   0  0  0  0  0  0  0  0  0  0  0  0
    1.0701    6.5425   30.7501 C   0  0  2  0  0  0  0  0  0  0  0  0
   -0.3352    7.0211   30.6845 N   0  3  0  0  0  0  0  0  0  0  0  0
    1.1832    5.3962   29.7275 C   0  0  1  0  0  0  0  0  0  0  0  0
    1.0117    5.8845   28.3988 O   0  0  0  0  0  0  0  0  0  0  0  0
    2.5419    4.6884   29.8399 C   0  0  2  0  0  0  0  0  0  0  0  0
    2.6453    3.6613   28.8588 O   0  0  0  0  0  0  0  0  0  0  0  0
    2.7674    4.1613   31.2745 C   0  0  2  0  0  0  0  0  0  0  0  0
    2.7669    5.3105   32.1478 O   0  0  0  0  0  0  0  0  0  0  0  0
    4.0903    3.4228   31.4707 C   0  0  0  0  0  0  0  0  0  0  0  0
    5.0259    3.7637   30.4563 O   0  0  0  0  0  0  0  0  0  0  0  0
   -1.0734    8.6151   35.0893 C   0  0  1  0  0  0  0  0  0  0  0  0
   -1.7433    9.5016   36.0584 N   0  3  0  0  0  0  0  0  0  0  0  0
    0.1335    7.8562   35.7195 C   0  0  2  0  0  0  0  0  0  0  0  0
    1.0964    8.7809   36.2197 O   0  0  0  0  0  0  0  0  0  0  0  0
    0.8314    6.9373   34.6744 C   0  0  1  0  0  0  0  0  0  0  0  0
    1.8361    6.1320   35.3593 O   0  0  0  0  0  0  0  0  0  0  0  0
   -0.1840    5.9948   33.9492 C   0  0  1  0  0  0  0  0  0  0  0  0
   -1.4160    6.7613   33.3699 C   0  0  1  0  0  0  0  0  0  0  0  0
   -2.4055    5.8336   32.7785 N   0  3  0  0  0  0  0  0  0  0  0  0
   -2.0950    7.6163   34.4709 C   0  0  0  0  0  0  0  0  0  0  0  0
    1.5647    5.6079   36.6985 C   0  0  1  0  0  0  0  0  0  0  0  0
    0.8143    4.2699   36.5618 C   0  0  2  0  0  0  0  0  0  0  0  0
    0.0323    4.0005   37.7220 O   0  0  0  0  0  0  0  0  0  0  0  0
    2.0217    3.3276   36.4422 C   0  0  1  0  0  0  0  0  0  0  0  0
    2.9648    3.8717   37.5025 C   0  0  2  0  0  0  0  0  0  0  0  0
    2.7958    5.2741   37.3637 O   0  0  0  0  0  0  0  0  0  0  0  0
    4.4401    3.4919   37.3216 C   0  0  0  0  0  0  0  0  0  0  0  0
    4.8274    2.5544   38.3152 O   0  0  0  0  0  0  0  0  0  0  0  0
    4.3942   -1.4942   36.5208 C   0  0  1  0  0  0  0  0  0  0  0  0
    3.4034   -2.4096   36.0569 O   0  0  0  0  0  0  0  0  0  0  0  0
    4.6173   -0.3899   35.4501 C   0  0  2  0  0  0  0  0  0  0  0  0
    5.8395    0.2839   35.7415 O   0  0  0  0  0  0  0  0  0  0  0  0
    3.4738    0.6704   35.3331 C   0  0  1  0  0  0  0  0  0  0  0  0
    2.4024    0.1752   34.4410 N   0  3  0  0  0  0  0  0  0  0  0  0
    2.9434    1.1044   36.7249 C   0  0  1  0  0  0  0  0  0  0  0  0
    1.7460    1.9185   36.6727 O   0  0  0  0  0  0  0  0  0  0  0  0
    3.9449   -0.8469   37.8549 C   0  0  1  0  0  0  0  0  0  0  0  0
    2.7474   -0.0675   37.5860 O   0  0  0  0  0  0  0  0  0  0  0  0
    3.6997   -1.8608   38.9879 C   0  0  0  0  0  0  0  0  0  0  0  0
    4.9295   -2.5671   39.3969 N   0  3  0  0  0  0  0  0  0  0  0  0
  1  2  1  6  0  0  0
  1  3  1  0  0  0  0
  1 10  1  0  0  0  0
  3  4  1  1  0  0  0
  3  5  1  0  0  0  0
  5  6  1  6  0  0  0
  5  7  1  0  0  0  0
  7  8  1  6  0  0  0
  7  9  1  0  0  0  0
  9 10  1  0  0  0  0
  9 11  1  6  0  0  0
 11 12  1  0  0  0  0
 13 14  1  1  0  0  0
 13 15  1  0  0  0  0
 13 22  1  0  0  0  0
 15 16  1  6  0  0  0
 15 17  1  0  0  0  0
 17 18  1  1  0  0  0
 17 19  1  0  0  0  0
 19  2  1  6  0  0  0
 19 20  1  0  0  0  0
 20 21  1  1  0  0  0
 20 22  1  0  0  0  0
 23 18  1  6  0  0  0
 23 24  1  0  0  0  0
 23 28  1  0  0  0  0
 24 25  1  1  0  0  0
 24 26  1  0  0  0  0
 26 27  1  0  0  0  0
 26 38  1  1  0  0  0
 27 28  1  0  0  0  0
 27 29  1  6  0  0  0
 29 30  1  0  0  0  0
 31 32  1  6  0  0  0
 31 33  1  0  0  0  0
 31 39  1  0  0  0  0
 33 34  1  1  0  0  0
 33 35  1  0  0  0  0
 35 36  1  6  0  0  0
 35 37  1  0  0  0  0
 37 38  1  6  0  0  0
 37 40  1  0  0  0  0
 39 40  1  0  0  0  0
 39 41  1  1  0  0  0
 41 42  1  0  0  0  0
M  CHG  5   4   1  14   1  21   1  36   1  42   1
M  END
>  <CHROM.1>
-108.01901089,-32.82502937,179.06026842,-175.23992225,-179.89796514,20.27012935
-169.01491804,-170.79573865,-52.24072489,38.12285871,85.97392319,71.09061888
-37.27089414,-172.19252920,-108.87296936,-167.41385209,175.13274073,170.14095044
-58.14498626,-83.41348920,64.79772482,-50.25985353,1.99891322,3.83475044
34.63491793,-2.43098715,-1.00723091,1.78081704

>  <Name>
1pbr

>  <RI>
0

>  <Rbt.Current_Directory>
/home/itssahil/PROJECTS/Mol_Feturizer/New_Systems/rnas/1pbr

>  <Rbt.Executable>
rbdock ($Id: //depot/dev/client3/rdock/2013.1/src/exe/rbdock.cxx#4 $)

>  <Rbt.Library>
libRbt.so (2013.1, Build901 2013/11/27)

>  <Rbt.Parameter_File>
/export/apps/rDock/src/rDock_2013.1_src/data/scripts/dock_solv.prm

>  <Rbt.Receptor>
prm/blind_docking_40.prm

>  <SCORE>
-21.4632

>  <SCORE.INTER>
-35.6265

>  <SCORE.INTER.CONST>
1

>  <SCORE.INTER.POLAR>
-4.8696

>  <SCORE.INTER.ROT>
9

>  <SCORE.INTER.SOLV>
26.0331

>  <SCORE.INTER.VDW>
-25.7967

>  <SCORE.INTER.norm>
-0.848249

>  <SCORE.INTRA>
9.12597

>  <SCORE.INTRA.DIHEDRAL>
2.08699

>  <SCORE.INTRA.DIHEDRAL.0>
29.7866

>  <SCORE.INTRA.POLAR>
0.637769

>  <SCORE.INTRA.POLAR.0>
-0.984091

>  <SCORE.INTRA.REPUL>
-0.274115

>  <SCORE.INTRA.REPUL.0>
0.274115

>  <SCORE.INTRA.SOLV>
3.6447

>  <SCORE.INTRA.SOLV.lig_0>
-152.978

>  <SCORE.INTRA.VDW>
5.46228

>  <SCORE.INTRA.VDW.0>
-6.10719

>  <SCORE.INTRA.norm>
0.217285

>  <SCORE.RESTR>
5.03731

>  <SCORE.RESTR.CAVITY>
5.03731

>  <SCORE.RESTR.norm>
0.119936

>  <SCORE.SYSTEM>
0

>  <SCORE.SYSTEM.CONST>
0

>  <SCORE.SYSTEM.DIHEDRAL>
0

>  <SCORE.SYSTEM.SOLV>
0

>  <SCORE.SYSTEM.norm>
0

>  <SCORE.heavy>
42

>  <SCORE.norm>
-0.511028

>  <RMSD>
11.885

$$$$
