ligand
  PyMOL2.2          3D                             0

 26 28  0  0  0  0  0  0  0  0999 V2000
   17.0870   39.8400   64.6080 C   0  0  0  0  0  0  0  0  0  0  0  0
   23.8430   41.1500   64.9380 C   0  0  0  0  0  0  0  0  0  0  0  0
   28.4130   39.8570   68.3660 P   0  0  0  0  0  0  0  0  0  0  0  0
   30.7070   39.5530   67.2120 P   0  0  0  0  0  0  0  0  0  0  0  0
   21.8910   42.0100   66.7600 C   0  0  0  0  0  0  0  0  0  0  0  0
   20.3990   40.0740   66.1790 C   0  0  0  0  0  0  0  0  0  0  0  0
   20.6190   41.4370   66.1900 C   0  0  0  0  0  0  0  0  0  0  0  0
   19.6330   42.2710   65.6600 C   0  0  0  0  0  0  0  0  0  0  0  0
   19.8060   43.6470   65.6470 N   0  0  0  0  0  0  0  0  0  0  0  0
   18.5270   41.7260   65.1620 N   0  0  0  0  0  0  0  0  0  0  0  0
   18.3560   40.4200   65.1760 C   0  0  0  0  0  0  0  0  0  0  0  0
   19.2680   39.6050   65.6690 N   0  0  0  0  0  0  0  0  0  0  0  0
   28.2370   39.4590   69.7810 O   0  0  0  0  0  0  0  0  0  0  0  0
   30.8300   40.8520   68.0400 O   0  0  0  0  0  0  0  0  0  0  0  0
   23.9100   39.1650   68.3140 S   0  0  0  0  0  0  0  0  0  0  0  0
   22.6580   40.3690   68.3300 C   0  0  0  0  0  0  0  0  0  0  0  0
   29.1000   41.3100   68.2980 O   0  0  0  0  0  0  0  0  0  0  0  0
   31.9740   38.6050   67.5060 O   0  5  0  0  0  0  0  0  0  0  0  0
   22.7890   40.9190   67.1450 N   0  0  0  0  0  0  0  0  0  0  0  0
   29.3530   38.7830   67.6200 O   0  0  0  0  0  0  0  0  0  0  0  0
   30.6660   39.9050   65.7080 O   0  0  0  0  0  0  0  0  0  0  0  0
   23.7060   40.5090   66.2960 C   0  0  0  0  0  0  0  0  0  0  0  0
   24.5320   39.5000   66.6730 C   0  0  0  0  0  0  0  0  0  0  0  0
   25.6570   38.8430   65.9170 C   0  0  0  0  0  0  0  0  0  0  0  0
   26.8890   38.7400   66.8190 C   0  0  0  0  0  0  0  0  0  0  0  0
   26.9770   39.9070   67.6390 O   0  0  0  0  0  0  0  0  0  0  0  0
  3 13  1  0  0  0  0
  3 17  1  0  0  0  0
  3 20  1  0  0  0  0
  4 14  1  0  0  0  0
  4 18  1  0  0  0  0
  4 21  2  0  0  0  0
  5 19  1  0  0  0  0
  5  7  1  0  0  0  0
  6  7  4  0  0  0  0
  7  8  4  0  0  0  0
  8  9  1  0  0  0  0
  8 10  4  0  0  0  0
  1 11  1  0  0  0  0
 10 11  4  0  0  0  0
  6 12  4  0  0  0  0
 11 12  4  0  0  0  0
 15 23  4  0  0  0  0
 15 16  4  0  0  0  0
 14 17  1  0  0  0  0
 16 19  4  0  0  0  0
 19 22  4  0  0  0  0
  4 20  1  0  0  0  0
  2 22  1  0  0  0  0
 22 23  4  0  0  0  0
 23 24  1  0  0  0  0
 24 25  1  0  0  0  0
 25 26  1  0  0  0  0
  3 26  1  0  0  0  0
M  END
$$$$
