ligand
 OpenBabel11021811443D
libRbt.so/2013.1/901 2013/11/27
 26 28  0  0  0  0  0  0  0  0999 V2000
   16.5521   40.2476   63.8167 C   0  0  0  0  0  0  0  0  0  0  0  0
   22.7897   40.5230   64.9190 C   0  0  0  0  0  0  0  0  0  0  0  0
   27.2595   39.3474   67.6661 P   0  0  1  0  0  0  0  0  0  0  0  0
   29.7453   39.7873   67.1060 P   0  0  1  0  0  0  0  0  0  0  0  0
   21.1335   41.5552   66.9342 C   0  0  0  0  0  0  0  0  0  0  0  0
   19.4020   39.9310   66.1124 C   0  0  0  0  0  0  0  0  0  0  0  0
   19.9209   41.2105   66.1085 C   0  0  0  0  0  0  0  0  0  0  0  0
   19.2934   42.1769   65.3205 C   0  0  0  0  0  0  0  0  0  0  0  0
   19.7760   43.4766   65.2816 N   0  0  0  0  0  0  0  0  0  0  0  0
   18.2288   41.8315   64.6025 N   0  0  0  0  0  0  0  0  0  0  0  0
   17.7640   40.5996   64.6395 C   0  0  0  0  0  0  0  0  0  0  0  0
   18.3337   39.6636   65.3732 N   0  0  0  0  0  0  0  0  0  0  0  0
   26.9000   38.5015   68.8266 O   0  0  0  0  0  0  0  0  0  0  0  0
   29.4022   40.7616   68.2554 O   0  0  0  0  0  0  0  0  0  0  0  0
   22.8698   38.4024   68.2113 S   0  0  0  0  0  0  0  0  0  0  0  0
   21.7993   39.7604   68.3770 C   0  0  0  0  0  0  0  0  0  0  0  0
   27.5976   40.8369   68.1712 O   0  0  0  0  0  0  0  0  0  0  0  0
   31.1098   39.0066   67.4510 O   0  5  0  0  0  0  0  0  0  0  0  0
   21.9037   40.3388   67.2029 N   0  0  0  0  0  0  0  0  0  0  0  0
   28.5483   38.7251   66.9278 O   0  0  0  0  0  0  0  0  0  0  0  0
   29.9261   40.5841   65.7945 O   0  0  0  0  0  0  0  0  0  0  0  0
   22.6815   39.8477   66.2629 C   0  0  2  0  0  0  0  0  0  0  0  0
   23.3912   38.7225   66.5327 C   0  0  2  0  0  0  0  0  0  0  0  0
   24.3485   37.9551   65.6589 C   0  0  0  0  0  0  0  0  0  0  0  0
   25.7609   38.0492   66.2404 C   0  0  0  0  0  0  0  0  0  0  0  0
   26.0243   39.3974   66.6341 O   0  0  0  0  0  0  0  0  0  0  0  0
  1 11  1  0  0  0  0
  3 13  1  1  0  0  0
  3 17  1  0  0  0  0
  3 20  1  0  0  0  0
  3 26  1  0  0  0  0
  4 14  1  0  0  0  0
  4 18  1  1  0  0  0
  4 21  2  0  0  0  0
  4 20  1  0  0  0  0
  5 19  1  0  0  0  0
  5  7  1  0  0  0  0
  6  7  2  0  0  0  0
  6 12  1  0  0  0  0
  7  8  1  0  0  0  0
  8  9  1  0  0  0  0
  8 10  2  0  0  0  0
 10 11  1  0  0  0  0
 11 12  2  0  0  0  0
 14 17  1  0  0  0  0
 15 23  1  0  0  0  0
 15 16  1  0  0  0  0
 16 19  1  0  0  0  0
 19 22  1  0  0  0  0
 22  2  1  1  0  0  0
 22 23  1  0  0  0  0
 23 24  1  6  0  0  0
 24 25  1  0  0  0  0
 25 26  1  0  0  0  0
M  CHG  1  18  -1
M  END
>  <CHROM.1>
-101.37279748,23.23285909,-66.35151399,-44.40752354,160.96294301,-59.03802669
24.17225732,39.91807459,66.65755100,-2.93401725,0.10445928,2.60562799

>  <Name>
ligand

>  <RI>
0

>  <Rbt.Current_Directory>
/home/itssahil/PROJECTS/Mol_Feturizer/New_Systems/rnas/2HOL

>  <Rbt.Executable>
rbdock ($Id: //depot/dev/client3/rdock/2013.1/src/exe/rbdock.cxx#4 $)

>  <Rbt.Library>
libRbt.so (2013.1, Build901 2013/11/27)

>  <Rbt.Parameter_File>
/export/apps/rDock/src/rDock_2013.1_src/data/scripts/dock_solv.prm

>  <Rbt.Receptor>
prm/pocket_docking_2.prm

>  <SCORE>
-17.3733

>  <SCORE.INTER>
-15.4644

>  <SCORE.INTER.CONST>
1

>  <SCORE.INTER.POLAR>
0

>  <SCORE.INTER.ROT>
6

>  <SCORE.INTER.SOLV>
18.6705

>  <SCORE.INTER.VDW>
-24.1331

>  <SCORE.INTER.norm>
-0.594785

>  <SCORE.INTRA>
-2.44392

>  <SCORE.INTRA.DIHEDRAL>
-1.67797

>  <SCORE.INTRA.DIHEDRAL.0>
9.33621

>  <SCORE.INTRA.POLAR>
0

>  <SCORE.INTRA.POLAR.0>
0

>  <SCORE.INTRA.REPUL>
0

>  <SCORE.INTRA.REPUL.0>
0

>  <SCORE.INTRA.SOLV>
0.325811

>  <SCORE.INTRA.SOLV.lig_0>
-65.9238

>  <SCORE.INTRA.VDW>
-1.76784

>  <SCORE.INTRA.VDW.0>
-0.405582

>  <SCORE.INTRA.norm>
-0.093997

>  <SCORE.RESTR>
0.535037

>  <SCORE.RESTR.CAVITY>
0.535037

>  <SCORE.RESTR.norm>
0.0205783

>  <SCORE.SYSTEM>
0

>  <SCORE.SYSTEM.CONST>
0

>  <SCORE.SYSTEM.DIHEDRAL>
0

>  <SCORE.SYSTEM.SOLV>
0

>  <SCORE.SYSTEM.norm>
0

>  <SCORE.heavy>
26

>  <SCORE.norm>
-0.668204

>  <RMSD>
1.175

$$$$
ligand
 OpenBabel11021811443D
libRbt.so/2013.1/901 2013/11/27
 26 28  0  0  0  0  0  0  0  0999 V2000
   16.3690   39.7780   63.8157 C   0  0  0  0  0  0  0  0  0  0  0  0
   23.0807   40.5772   65.0459 C   0  0  0  0  0  0  0  0  0  0  0  0
   27.2953   38.9843   68.7288 P   0  0  1  0  0  0  0  0  0  0  0  0
   29.3272   39.7427   67.3207 P   0  0  1  0  0  0  0  0  0  0  0  0
   20.9859   41.5277   66.6515 C   0  0  0  0  0  0  0  0  0  0  0  0
   19.3762   39.7410   65.9247 C   0  0  0  0  0  0  0  0  0  0  0  0
   19.7637   41.0660   65.9003 C   0  0  0  0  0  0  0  0  0  0  0  0
   18.9943   41.9672   65.1625 C   0  0  0  0  0  0  0  0  0  0  0  0
   19.3415   43.3088   65.1057 N   0  0  0  0  0  0  0  0  0  0  0  0
   17.9260   41.5193   64.5096 N   0  0  0  0  0  0  0  0  0  0  0  0
   17.5895   40.2469   64.5640 C   0  0  0  0  0  0  0  0  0  0  0  0
   18.2951   39.3703   65.2515 N   0  0  0  0  0  0  0  0  0  0  0  0
   27.4896   38.5264   70.1231 O   0  0  0  0  0  0  0  0  0  0  0  0
   28.9745   40.9489   68.2200 O   0  0  0  0  0  0  0  0  0  0  0  0
   22.5973   38.5000   68.3312 S   0  0  0  0  0  0  0  0  0  0  0  0
   21.4396   39.7919   68.2412 C   0  0  0  0  0  0  0  0  0  0  0  0
   27.2655   40.5922   68.6906 O   0  0  0  0  0  0  0  0  0  0  0  0
   30.9065   39.4464   67.4123 O   0  5  0  0  0  0  0  0  0  0  0  0
   21.7521   40.3634   67.1011 N   0  0  0  0  0  0  0  0  0  0  0  0
   28.5075   38.4477   67.8144 O   0  0  0  0  0  0  0  0  0  0  0  0
   28.9484   40.0650   65.8578 O   0  0  0  0  0  0  0  0  0  0  0  0
   22.7349   39.9107   66.3535 C   0  0  2  0  0  0  0  0  0  0  0  0
   23.4365   38.8336   66.7896 C   0  0  2  0  0  0  0  0  0  0  0  0
   24.5967   38.1168   66.1501 C   0  0  0  0  0  0  0  0  0  0  0  0
   25.9084   38.6275   66.7507 C   0  0  0  0  0  0  0  0  0  0  0  0
   25.9025   38.4074   68.1627 O   0  0  0  0  0  0  0  0  0  0  0  0
  1 11  1  0  0  0  0
  3 13  1  1  0  0  0
  3 17  1  0  0  0  0
  3 20  1  0  0  0  0
  3 26  1  0  0  0  0
  4 14  1  0  0  0  0
  4 18  1  1  0  0  0
  4 21  2  0  0  0  0
  4 20  1  0  0  0  0
  5 19  1  0  0  0  0
  5  7  1  0  0  0  0
  6  7  2  0  0  0  0
  6 12  1  0  0  0  0
  7  8  1  0  0  0  0
  8  9  1  0  0  0  0
  8 10  2  0  0  0  0
 10 11  1  0  0  0  0
 11 12  2  0  0  0  0
 14 17  1  0  0  0  0
 15 23  1  0  0  0  0
 15 16  1  0  0  0  0
 16 19  1  0  0  0  0
 19 22  1  0  0  0  0
 22  2  1  1  0  0  0
 22 23  1  0  0  0  0
 23 24  1  6  0  0  0
 24 25  1  0  0  0  0
 25 26  1  0  0  0  0
M  CHG  1  18  -1
M  END
>  <CHROM.1>
-86.06355247,11.62523659,-83.04558339,58.76322922,-179.21063944,-167.56741773
24.01992716,39.80664859,66.92292933,2.86769027,-0.09798161,-0.79231473

>  <Name>
ligand

>  <RI>
0

>  <Rbt.Current_Directory>
/home/itssahil/PROJECTS/Mol_Feturizer/New_Systems/rnas/2HOL

>  <Rbt.Executable>
rbdock ($Id: //depot/dev/client3/rdock/2013.1/src/exe/rbdock.cxx#4 $)

>  <Rbt.Library>
libRbt.so (2013.1, Build901 2013/11/27)

>  <Rbt.Parameter_File>
/export/apps/rDock/src/rDock_2013.1_src/data/scripts/dock_solv.prm

>  <Rbt.Receptor>
prm/pocket_docking_2.prm

>  <SCORE>
-20.9597

>  <SCORE.INTER>
-17.6739

>  <SCORE.INTER.CONST>
1

>  <SCORE.INTER.POLAR>
0

>  <SCORE.INTER.ROT>
6

>  <SCORE.INTER.SOLV>
19.4331

>  <SCORE.INTER.VDW>
-25.8603

>  <SCORE.INTER.norm>
-0.679764

>  <SCORE.INTRA>
-3.79221

>  <SCORE.INTRA.DIHEDRAL>
-4.11193

>  <SCORE.INTRA.DIHEDRAL.0>
9.33621

>  <SCORE.INTRA.POLAR>
0

>  <SCORE.INTRA.POLAR.0>
0

>  <SCORE.INTRA.REPUL>
0

>  <SCORE.INTRA.REPUL.0>
0

>  <SCORE.INTRA.SOLV>
0.404248

>  <SCORE.INTRA.SOLV.lig_0>
-65.9238

>  <SCORE.INTRA.VDW>
-1.93836

>  <SCORE.INTRA.VDW.0>
-0.405582

>  <SCORE.INTRA.norm>
-0.145854

>  <SCORE.RESTR>
0.50639

>  <SCORE.RESTR.CAVITY>
0.50639

>  <SCORE.RESTR.norm>
0.0194765

>  <SCORE.SYSTEM>
0

>  <SCORE.SYSTEM.CONST>
0

>  <SCORE.SYSTEM.DIHEDRAL>
0

>  <SCORE.SYSTEM.SOLV>
0

>  <SCORE.SYSTEM.norm>
0

>  <SCORE.heavy>
26

>  <SCORE.norm>
-0.806142

>  <RMSD>
1.290

$$$$
ligand
 OpenBabel11021811443D
libRbt.so/2013.1/901 2013/11/27
 26 28  0  0  0  0  0  0  0  0999 V2000
   16.6557   40.3439   63.8957 C   0  0  0  0  0  0  0  0  0  0  0  0
   23.4283   41.7729   65.1841 C   0  0  0  0  0  0  0  0  0  0  0  0
   28.1090   38.4807   67.5053 P   0  0  1  0  0  0  0  0  0  0  0  0
   30.2678   39.8510   67.1198 P   0  0  1  0  0  0  0  0  0  0  0  0
   21.2858   41.5513   66.9814 C   0  0  0  0  0  0  0  0  0  0  0  0
   19.5239   39.9609   66.1582 C   0  0  0  0  0  0  0  0  0  0  0  0
   20.0603   41.2331   66.1642 C   0  0  0  0  0  0  0  0  0  0  0  0
   19.4383   42.2174   65.3941 C   0  0  0  0  0  0  0  0  0  0  0  0
   19.9384   43.5107   65.3656 N   0  0  0  0  0  0  0  0  0  0  0  0
   18.3619   41.8952   64.6830 N   0  0  0  0  0  0  0  0  0  0  0  0
   17.8805   40.6694   64.7101 C   0  0  0  0  0  0  0  0  0  0  0  0
   18.4446   39.7169   65.4268 N   0  0  0  0  0  0  0  0  0  0  0  0
   28.1749   37.0045   67.5957 O   0  0  0  0  0  0  0  0  0  0  0  0
   30.2561   39.5140   68.6279 O   0  0  0  0  0  0  0  0  0  0  0  0
   23.4199   38.3890   67.1568 S   0  0  0  0  0  0  0  0  0  0  0  0
   22.0735   39.3811   67.6262 C   0  0  0  0  0  0  0  0  0  0  0  0
   28.5153   39.1244   68.9224 O   0  0  0  0  0  0  0  0  0  0  0  0
   31.7082   39.4908   66.4986 O   0  5  0  0  0  0  0  0  0  0  0  0
   22.2423   40.4470   66.8784 N   0  0  0  0  0  0  0  0  0  0  0  0
   29.1292   38.9942   66.3699 O   0  0  0  0  0  0  0  0  0  0  0  0
   29.9875   41.3585   66.9285 O   0  0  0  0  0  0  0  0  0  0  0  0
   23.2488   40.5425   66.0372 C   0  0  2  0  0  0  0  0  0  0  0  0
   24.1274   39.5107   65.9596 C   0  0  2  0  0  0  0  0  0  0  0  0
   25.3546   39.3535   65.1006 C   0  0  0  0  0  0  0  0  0  0  0  0
   26.3581   38.4365   65.8036 C   0  0  0  0  0  0  0  0  0  0  0  0
   26.6111   38.9295   67.1208 O   0  0  0  0  0  0  0  0  0  0  0  0
  1 11  1  0  0  0  0
  3 13  1  1  0  0  0
  3 17  1  0  0  0  0
  3 20  1  0  0  0  0
  3 26  1  0  0  0  0
  4 14  1  0  0  0  0
  4 18  1  6  0  0  0
  4 21  2  0  0  0  0
  4 20  1  0  0  0  0
  5 19  1  0  0  0  0
  5  7  1  0  0  0  0
  6  7  2  0  0  0  0
  6 12  1  0  0  0  0
  7  8  1  0  0  0  0
  8  9  1  0  0  0  0
  8 10  2  0  0  0  0
 10 11  1  0  0  0  0
 11 12  2  0  0  0  0
 14 17  1  0  0  0  0
 15 23  1  0  0  0  0
 15 16  1  0  0  0  0
 16 19  1  0  0  0  0
 19 22  1  0  0  0  0
 22  2  1  1  0  0  0
 22 23  1  0  0  0  0
 23 24  1  6  0  0  0
 24 25  1  0  0  0  0
 25 26  1  0  0  0  0
M  CHG  1  18  -1
M  END
>  <CHROM.1>
-80.90524389,40.81171509,-28.23403690,-53.47548859,-151.11763058,-65.36353636
24.67328859,39.88082406,66.50552758,2.92717714,-0.12521828,-0.31882625

>  <Name>
ligand

>  <RI>
0

>  <Rbt.Current_Directory>
/home/itssahil/PROJECTS/Mol_Feturizer/New_Systems/rnas/2HOL

>  <Rbt.Executable>
rbdock ($Id: //depot/dev/client3/rdock/2013.1/src/exe/rbdock.cxx#4 $)

>  <Rbt.Library>
libRbt.so (2013.1, Build901 2013/11/27)

>  <Rbt.Parameter_File>
/export/apps/rDock/src/rDock_2013.1_src/data/scripts/dock_solv.prm

>  <Rbt.Receptor>
prm/pocket_docking_2.prm

>  <SCORE>
-15.9644

>  <SCORE.INTER>
-16.1029

>  <SCORE.INTER.CONST>
1

>  <SCORE.INTER.POLAR>
0

>  <SCORE.INTER.ROT>
6

>  <SCORE.INTER.SOLV>
18.8915

>  <SCORE.INTER.VDW>
-24.6325

>  <SCORE.INTER.norm>
-0.619344

>  <SCORE.INTRA>
-1.6141

>  <SCORE.INTRA.DIHEDRAL>
-0.924977

>  <SCORE.INTRA.DIHEDRAL.0>
9.33621

>  <SCORE.INTRA.POLAR>
0

>  <SCORE.INTRA.POLAR.0>
0

>  <SCORE.INTRA.REPUL>
0

>  <SCORE.INTRA.REPUL.0>
0

>  <SCORE.INTRA.SOLV>
0.562233

>  <SCORE.INTRA.SOLV.lig_0>
-65.9238

>  <SCORE.INTRA.VDW>
-1.43273

>  <SCORE.INTRA.VDW.0>
-0.405582

>  <SCORE.INTRA.norm>
-0.062081

>  <SCORE.RESTR>
1.75266

>  <SCORE.RESTR.CAVITY>
1.75266

>  <SCORE.RESTR.norm>
0.0674101

>  <SCORE.SYSTEM>
0

>  <SCORE.SYSTEM.CONST>
0

>  <SCORE.SYSTEM.DIHEDRAL>
0

>  <SCORE.SYSTEM.SOLV>
0

>  <SCORE.SYSTEM.norm>
0

>  <SCORE.heavy>
26

>  <SCORE.norm>
-0.614015

>  <RMSD>
1.298

$$$$
ligand
 OpenBabel11021811443D
libRbt.so/2013.1/901 2013/11/27
 26 28  0  0  0  0  0  0  0  0999 V2000
   16.1555   39.6210   63.7988 C   0  0  0  0  0  0  0  0  0  0  0  0
   23.0233   40.3031   64.6931 C   0  0  0  0  0  0  0  0  0  0  0  0
   27.1808   39.4140   68.1421 P   0  0  1  0  0  0  0  0  0  0  0  0
   29.4915   39.1507   67.0117 P   0  0  1  0  0  0  0  0  0  0  0  0
   20.9717   41.3802   66.2743 C   0  0  0  0  0  0  0  0  0  0  0  0
   19.4747   39.5759   65.3715 C   0  0  0  0  0  0  0  0  0  0  0  0
   19.6965   40.9160   65.6190 C   0  0  0  0  0  0  0  0  0  0  0  0
   18.7092   41.8301   65.2470 C   0  0  0  0  0  0  0  0  0  0  0  0
   18.8839   43.1872   65.4733 N   0  0  0  0  0  0  0  0  0  0  0  0
   17.6003   41.3808   64.6666 N   0  0  0  0  0  0  0  0  0  0  0  0
   17.4277   40.0925   64.4535 C   0  0  0  0  0  0  0  0  0  0  0  0
   18.3409   39.2036   64.7927 N   0  0  0  0  0  0  0  0  0  0  0  0
   27.0896   39.9022   69.5367 O   0  0  0  0  0  0  0  0  0  0  0  0
   29.1542   40.6558   66.9166 O   0  0  0  0  0  0  0  0  0  0  0  0
   22.5325   38.3993   68.0808 S   0  0  0  0  0  0  0  0  0  0  0  0
   21.4045   39.7129   67.9413 C   0  0  0  0  0  0  0  0  0  0  0  0
   27.3607   40.6641   67.1458 O   0  0  0  0  0  0  0  0  0  0  0  0
   30.9855   38.9687   67.5820 O   0  5  0  0  0  0  0  0  0  0  0  0
   21.7159   40.2209   66.7713 N   0  0  0  0  0  0  0  0  0  0  0  0
   28.4465   38.4282   68.0009 O   0  0  0  0  0  0  0  0  0  0  0  0
   29.3960   38.5136   65.6072 O   0  0  0  0  0  0  0  0  0  0  0  0
   22.6784   39.7091   66.0354 C   0  0  2  0  0  0  0  0  0  0  0  0
   23.3599   38.6378   66.5154 C   0  0  2  0  0  0  0  0  0  0  0  0
   24.4948   37.8632   65.8983 C   0  0  0  0  0  0  0  0  0  0  0  0
   25.8288   38.4680   66.3419 C   0  0  0  0  0  0  0  0  0  0  0  0
   25.8354   38.6143   67.7634 O   0  0  0  0  0  0  0  0  0  0  0  0
  1 11  1  0  0  0  0
  3 13  1  1  0  0  0
  3 17  1  0  0  0  0
  3 20  1  0  0  0  0
  3 26  1  0  0  0  0
  4 14  1  0  0  0  0
  4 18  1  1  0  0  0
  4 21  2  0  0  0  0
  4 20  1  0  0  0  0
  5 19  1  0  0  0  0
  5  7  1  0  0  0  0
  6  7  2  0  0  0  0
  6 12  1  0  0  0  0
  7  8  1  0  0  0  0
  8  9  1  0  0  0  0
  8 10  2  0  0  0  0
 10 11  1  0  0  0  0
 11 12  2  0  0  0  0
 14 17  1  0  0  0  0
 15 23  1  0  0  0  0
 15 16  1  0  0  0  0
 16 19  1  0  0  0  0
 19 22  1  0  0  0  0
 22  2  1  1  0  0  0
 22 23  1  0  0  0  0
 23 24  1  6  0  0  0
 24 25  1  0  0  0  0
 25 26  1  0  0  0  0
M  CHG  1  18  -1
M  END
>  <CHROM.1>
-83.35056216,-9.97878603,-89.08160874,50.25594449,-173.27836513,165.61255730
23.97015142,39.67617107,66.58751318,2.90605177,-0.08991965,-0.68193861

>  <Name>
ligand

>  <RI>
0

>  <Rbt.Current_Directory>
/home/itssahil/PROJECTS/Mol_Feturizer/New_Systems/rnas/2HOL

>  <Rbt.Executable>
rbdock ($Id: //depot/dev/client3/rdock/2013.1/src/exe/rbdock.cxx#4 $)

>  <Rbt.Library>
libRbt.so (2013.1, Build901 2013/11/27)

>  <Rbt.Parameter_File>
/export/apps/rDock/src/rDock_2013.1_src/data/scripts/dock_solv.prm

>  <Rbt.Receptor>
prm/pocket_docking_2.prm

>  <SCORE>
-20.4341

>  <SCORE.INTER>
-16.8931

>  <SCORE.INTER.CONST>
1

>  <SCORE.INTER.POLAR>
0

>  <SCORE.INTER.ROT>
6

>  <SCORE.INTER.SOLV>
22.0909

>  <SCORE.INTER.VDW>
-26.2257

>  <SCORE.INTER.norm>
-0.649735

>  <SCORE.INTRA>
-3.60698

>  <SCORE.INTRA.DIHEDRAL>
-3.55596

>  <SCORE.INTRA.DIHEDRAL.0>
9.33621

>  <SCORE.INTRA.POLAR>
0

>  <SCORE.INTRA.POLAR.0>
0

>  <SCORE.INTRA.REPUL>
0

>  <SCORE.INTRA.REPUL.0>
0

>  <SCORE.INTRA.SOLV>
0.0878833

>  <SCORE.INTRA.SOLV.lig_0>
-65.9238

>  <SCORE.INTRA.VDW>
-1.87294

>  <SCORE.INTRA.VDW.0>
-0.405582

>  <SCORE.INTRA.norm>
-0.13873

>  <SCORE.RESTR>
0.0659644

>  <SCORE.RESTR.CAVITY>
0.0659644

>  <SCORE.RESTR.norm>
0.00253709

>  <SCORE.SYSTEM>
0

>  <SCORE.SYSTEM.CONST>
0

>  <SCORE.SYSTEM.DIHEDRAL>
0

>  <SCORE.SYSTEM.SOLV>
0

>  <SCORE.SYSTEM.norm>
0

>  <SCORE.heavy>
26

>  <SCORE.norm>
-0.785928

>  <RMSD>
1.404

$$$$
ligand
 OpenBabel11021811443D
libRbt.so/2013.1/901 2013/11/27
 26 28  0  0  0  0  0  0  0  0999 V2000
   16.8154   40.2578   63.9628 C   0  0  0  0  0  0  0  0  0  0  0  0
   23.8194   40.6334   65.9131 C   0  0  0  0  0  0  0  0  0  0  0  0
   27.8679   38.3980   68.1907 P   0  0  1  0  0  0  0  0  0  0  0  0
   29.9616   38.8409   66.7393 P   0  0  1  0  0  0  0  0  0  0  0  0
   21.4292   41.6037   67.0155 C   0  0  0  0  0  0  0  0  0  0  0  0
   19.7302   39.9538   66.1771 C   0  0  0  0  0  0  0  0  0  0  0  0
   20.2079   41.2488   66.2070 C   0  0  0  0  0  0  0  0  0  0  0  0
   19.5306   42.2214   65.4694 C   0  0  0  0  0  0  0  0  0  0  0  0
   19.9705   43.5367   65.4659 N   0  0  0  0  0  0  0  0  0  0  0  0
   18.4599   41.8669   64.7650 N   0  0  0  0  0  0  0  0  0  0  0  0
   18.0356   40.6199   64.7686 C   0  0  0  0  0  0  0  0  0  0  0  0
   18.6529   39.6778   65.4543 N   0  0  0  0  0  0  0  0  0  0  0  0
   27.7225   39.0650   69.5043 O   0  0  0  0  0  0  0  0  0  0  0  0
   29.0315   40.0522   66.5031 O   0  0  0  0  0  0  0  0  0  0  0  0
   22.4741   38.4236   68.8541 S   0  0  0  0  0  0  0  0  0  0  0  0
   21.4193   39.7724   68.5623 C   0  0  0  0  0  0  0  0  0  0  0  0
   27.4229   39.4100   67.0221 O   0  0  0  0  0  0  0  0  0  0  0  0
   31.4477   39.3604   67.0742 O   0  5  0  0  0  0  0  0  0  0  0  0
   22.0211   40.3833   67.5680 N   0  0  0  0  0  0  0  0  0  0  0  0
   29.4053   37.9700   67.9741 O   0  0  0  0  0  0  0  0  0  0  0  0
   29.9974   37.9655   65.4665 O   0  0  0  0  0  0  0  0  0  0  0  0
   23.1409   39.9211   67.0560 C   0  0  2  0  0  0  0  0  0  0  0  0
   23.6765   38.7915   67.5848 C   0  0  2  0  0  0  0  0  0  0  0  0
   24.9325   38.0520   67.2049 C   0  0  0  0  0  0  0  0  0  0  0  0
   25.6096   37.5105   68.4660 C   0  0  0  0  0  0  0  0  0  0  0  0
   26.9363   37.0852   68.1483 O   0  0  0  0  0  0  0  0  0  0  0  0
  1 11  1  0  0  0  0
  3 13  1  1  0  0  0
  3 17  1  0  0  0  0
  3 20  1  0  0  0  0
  3 26  1  0  0  0  0
  4 14  1  0  0  0  0
  4 18  1  1  0  0  0
  4 21  2  0  0  0  0
  4 20  1  0  0  0  0
  5 19  1  0  0  0  0
  5  7  1  0  0  0  0
  6  7  2  0  0  0  0
  6 12  1  0  0  0  0
  7  8  1  0  0  0  0
  8  9  1  0  0  0  0
  8 10  2  0  0  0  0
 10 11  1  0  0  0  0
 11 12  2  0  0  0  0
 14 17  1  0  0  0  0
 15 23  1  0  0  0  0
 15 16  1  0  0  0  0
 16 19  1  0  0  0  0
 19 22  1  0  0  0  0
 22  2  1  1  0  0  0
 22 23  1  0  0  0  0
 23 24  1  6  0  0  0
 24 25  1  0  0  0  0
 25 26  1  0  0  0  0
M  CHG  1  18  -1
M  END
>  <CHROM.1>
-73.20965608,6.05167614,-37.54307722,-166.76312248,83.20355224,54.89945539
24.43946821,39.51953453,66.97216497,-2.87000453,-0.06730601,2.28387446

>  <Name>
ligand

>  <RI>
0

>  <Rbt.Current_Directory>
/home/itssahil/PROJECTS/Mol_Feturizer/New_Systems/rnas/2HOL

>  <Rbt.Executable>
rbdock ($Id: //depot/dev/client3/rdock/2013.1/src/exe/rbdock.cxx#4 $)

>  <Rbt.Library>
libRbt.so (2013.1, Build901 2013/11/27)

>  <Rbt.Parameter_File>
/export/apps/rDock/src/rDock_2013.1_src/data/scripts/dock_solv.prm

>  <Rbt.Receptor>
prm/pocket_docking_5.prm

>  <SCORE>
-18.2253

>  <SCORE.INTER>
-17.1416

>  <SCORE.INTER.CONST>
1

>  <SCORE.INTER.POLAR>
0

>  <SCORE.INTER.ROT>
6

>  <SCORE.INTER.SOLV>
20.7064

>  <SCORE.INTER.VDW>
-25.9298

>  <SCORE.INTER.norm>
-0.659291

>  <SCORE.INTRA>
-1.08376

>  <SCORE.INTRA.DIHEDRAL>
-1.35002

>  <SCORE.INTRA.DIHEDRAL.0>
9.33621

>  <SCORE.INTRA.POLAR>
0

>  <SCORE.INTRA.POLAR.0>
0

>  <SCORE.INTRA.REPUL>
0

>  <SCORE.INTRA.REPUL.0>
0

>  <SCORE.INTRA.SOLV>
-0.485714

>  <SCORE.INTRA.SOLV.lig_0>
-65.9238

>  <SCORE.INTRA.VDW>
-0.165894

>  <SCORE.INTRA.VDW.0>
-0.405582

>  <SCORE.INTRA.norm>
-0.0416832

>  <SCORE.RESTR>
0

>  <SCORE.RESTR.CAVITY>
0

>  <SCORE.RESTR.norm>
0

>  <SCORE.SYSTEM>
0

>  <SCORE.SYSTEM.CONST>
0

>  <SCORE.SYSTEM.DIHEDRAL>
0

>  <SCORE.SYSTEM.SOLV>
0

>  <SCORE.SYSTEM.norm>
0

>  <SCORE.heavy>
26

>  <SCORE.norm>
-0.700974

>  <RMSD>
1.451

$$$$
ligand
 OpenBabel11021811443D
libRbt.so/2013.1/901 2013/11/27
 26 28  0  0  0  0  0  0  0  0999 V2000
   16.4619   39.8583   63.8024 C   0  0  0  0  0  0  0  0  0  0  0  0
   22.0800   38.9331   67.5608 C   0  0  0  0  0  0  0  0  0  0  0  0
   27.3660   39.6232   68.2451 P   0  0  1  0  0  0  0  0  0  0  0  0
   29.6014   39.1673   67.0278 P   0  0  1  0  0  0  0  0  0  0  0  0
   21.0152   41.4263   66.8401 C   0  0  0  0  0  0  0  0  0  0  0  0
   19.3806   39.7005   66.0268 C   0  0  0  0  0  0  0  0  0  0  0  0
   19.8098   41.0127   66.0355 C   0  0  0  0  0  0  0  0  0  0  0  0
   19.0987   41.9468   65.2803 C   0  0  0  0  0  0  0  0  0  0  0  0
   19.4894   43.2773   65.2552 N   0  0  0  0  0  0  0  0  0  0  0  0
   18.0436   41.5408   64.5801 N   0  0  0  0  0  0  0  0  0  0  0  0
   17.6659   40.2792   64.6041 C   0  0  0  0  0  0  0  0  0  0  0  0
   18.3161   39.3724   65.3069 N   0  0  0  0  0  0  0  0  0  0  0  0
   27.3691   40.0844   69.6518 O   0  0  0  0  0  0  0  0  0  0  0  0
   29.4076   40.6996   66.9758 O   0  0  0  0  0  0  0  0  0  0  0  0
   24.1607   40.7487   64.7830 S   0  0  0  0  0  0  0  0  0  0  0  0
   22.7956   41.7109   65.2605 C   0  0  0  0  0  0  0  0  0  0  0  0
   27.6319   40.8738   67.2690 O   0  0  0  0  0  0  0  0  0  0  0  0
   31.0892   38.8298   67.5406 O   0  5  0  0  0  0  0  0  0  0  0  0
   22.2320   40.9556   66.1747 N   0  0  0  0  0  0  0  0  0  0  0  0
   28.5253   38.5246   68.0386 O   0  0  0  0  0  0  0  0  0  0  0  0
   29.3978   38.5760   65.6148 O   0  0  0  0  0  0  0  0  0  0  0  0
   22.7383   39.7884   66.5078 C   0  0  2  0  0  0  0  0  0  0  0  0
   23.8637   39.3673   65.8764 C   0  0  2  0  0  0  0  0  0  0  0  0
   24.6464   38.0923   66.0516 C   0  0  0  0  0  0  0  0  0  0  0  0
   26.0443   38.4181   66.5824 C   0  0  0  0  0  0  0  0  0  0  0  0
   25.9378   38.9650   67.8983 O   0  0  0  0  0  0  0  0  0  0  0  0
  1 11  1  0  0  0  0
  3 13  1  1  0  0  0
  3 17  1  0  0  0  0
  3 20  1  0  0  0  0
  3 26  1  0  0  0  0
  4 14  1  0  0  0  0
  4 18  1  1  0  0  0
  4 21  2  0  0  0  0
  4 20  1  0  0  0  0
  5 19  1  0  0  0  0
  5  7  1  0  0  0  0
  6  7  2  0  0  0  0
  6 12  1  0  0  0  0
  7  8  1  0  0  0  0
  8  9  1  0  0  0  0
  8 10  2  0  0  0  0
 10 11  1  0  0  0  0
 11 12  2  0  0  0  0
 14 17  1  0  0  0  0
 15 23  1  0  0  0  0
 15 16  1  0  0  0  0
 16 19  1  0  0  0  0
 19 22  1  0  0  0  0
 22  2  1  6  0  0  0
 22 23  1  0  0  0  0
 23 24  1  1  0  0  0
 24 25  1  0  0  0  0
 25 26  1  0  0  0  0
M  CHG  1  18  -1
M  END
>  <CHROM.1>
87.67351479,74.13686869,63.95418773,65.60232864,-165.92746669,-174.10884478
24.27568885,40.00496170,66.43699007,2.91504596,-0.14102353,-0.44825189

>  <Name>
ligand

>  <RI>
0

>  <Rbt.Current_Directory>
/home/itssahil/PROJECTS/Mol_Feturizer/New_Systems/rnas/2HOL

>  <Rbt.Executable>
rbdock ($Id: //depot/dev/client3/rdock/2013.1/src/exe/rbdock.cxx#4 $)

>  <Rbt.Library>
libRbt.so (2013.1, Build901 2013/11/27)

>  <Rbt.Parameter_File>
/export/apps/rDock/src/rDock_2013.1_src/data/scripts/dock_solv.prm

>  <Rbt.Receptor>
prm/pocket_docking_2.prm

>  <SCORE>
-19.4486

>  <SCORE.INTER>
-16.1383

>  <SCORE.INTER.CONST>
1

>  <SCORE.INTER.POLAR>
0

>  <SCORE.INTER.ROT>
6

>  <SCORE.INTER.SOLV>
19.8187

>  <SCORE.INTER.VDW>
-24.9651

>  <SCORE.INTER.norm>
-0.620703

>  <SCORE.INTRA>
-3.58142

>  <SCORE.INTRA.DIHEDRAL>
-3.07135

>  <SCORE.INTRA.DIHEDRAL.0>
9.33621

>  <SCORE.INTRA.POLAR>
0

>  <SCORE.INTRA.POLAR.0>
0

>  <SCORE.INTRA.REPUL>
0

>  <SCORE.INTRA.REPUL.0>
0

>  <SCORE.INTRA.SOLV>
0.783012

>  <SCORE.INTRA.SOLV.lig_0>
-65.9238

>  <SCORE.INTRA.VDW>
-2.43726

>  <SCORE.INTRA.VDW.0>
-0.405582

>  <SCORE.INTRA.norm>
-0.137747

>  <SCORE.RESTR>
0.271122

>  <SCORE.RESTR.CAVITY>
0.271122

>  <SCORE.RESTR.norm>
0.0104278

>  <SCORE.SYSTEM>
0

>  <SCORE.SYSTEM.CONST>
0

>  <SCORE.SYSTEM.DIHEDRAL>
0

>  <SCORE.SYSTEM.SOLV>
0

>  <SCORE.SYSTEM.norm>
0

>  <SCORE.heavy>
26

>  <SCORE.norm>
-0.748022

>  <RMSD>
1.672

$$$$
ligand
 OpenBabel11021811443D
libRbt.so/2013.1/901 2013/11/27
 26 28  0  0  0  0  0  0  0  0999 V2000
   16.4881   39.9991   63.8337 C   0  0  0  0  0  0  0  0  0  0  0  0
   22.0888   38.9638   67.5297 C   0  0  0  0  0  0  0  0  0  0  0  0
   27.3220   39.6983   68.1381 P   0  0  1  0  0  0  0  0  0  0  0  0
   29.5699   39.1892   66.9657 P   0  0  1  0  0  0  0  0  0  0  0  0
   21.0912   41.4917   66.8340 C   0  0  0  0  0  0  0  0  0  0  0  0
   19.5804   39.7696   65.8028 C   0  0  0  0  0  0  0  0  0  0  0  0
   19.8725   41.0981   66.0396 C   0  0  0  0  0  0  0  0  0  0  0  0
   19.0101   42.0675   65.5248 C   0  0  0  0  0  0  0  0  0  0  0  0
   19.2594   43.4156   65.7344 N   0  0  0  0  0  0  0  0  0  0  0  0
   17.9481   41.6794   64.8249 N   0  0  0  0  0  0  0  0  0  0  0  0
   17.7045   40.4001   64.6268 C   0  0  0  0  0  0  0  0  0  0  0  0
   18.4994   39.4600   65.0993 N   0  0  0  0  0  0  0  0  0  0  0  0
   27.3115   40.2704   69.5034 O   0  0  0  0  0  0  0  0  0  0  0  0
   29.3476   40.7084   66.7909 O   0  0  0  0  0  0  0  0  0  0  0  0
   24.2147   40.7484   64.7660 S   0  0  0  0  0  0  0  0  0  0  0  0
   22.8768   41.7427   65.2545 C   0  0  0  0  0  0  0  0  0  0  0  0
   27.5679   40.8718   67.0656 O   0  0  0  0  0  0  0  0  0  0  0  0
   31.0619   38.9220   67.5068 O   0  5  0  0  0  0  0  0  0  0  0  0
   22.2940   40.9944   66.1624 N   0  0  0  0  0  0  0  0  0  0  0  0
   28.5025   38.6089   68.0224 O   0  0  0  0  0  0  0  0  0  0  0  0
   29.3825   38.4831   65.6041 O   0  0  0  0  0  0  0  0  0  0  0  0
   22.7689   39.8108   66.4838 C   0  0  2  0  0  0  0  0  0  0  0  0
   23.8816   39.3653   65.8468 C   0  0  2  0  0  0  0  0  0  0  0  0
   24.6296   38.0680   66.0089 C   0  0  0  0  0  0  0  0  0  0  0  0
   26.0257   38.3480   66.5696 C   0  0  0  0  0  0  0  0  0  0  0  0
   25.9077   38.9875   67.8421 O   0  0  0  0  0  0  0  0  0  0  0  0
  1 11  1  0  0  0  0
  3 13  1  1  0  0  0
  3 17  1  0  0  0  0
  3 20  1  0  0  0  0
  3 26  1  0  0  0  0
  4 14  1  0  0  0  0
  4 18  1  1  0  0  0
  4 21  2  0  0  0  0
  4 20  1  0  0  0  0
  5 19  1  0  0  0  0
  5  7  1  0  0  0  0
  6  7  2  0  0  0  0
  6 12  1  0  0  0  0
  7  8  1  0  0  0  0
  8  9  1  0  0  0  0
  8 10  2  0  0  0  0
 10 11  1  0  0  0  0
 11 12  2  0  0  0  0
 14 17  1  0  0  0  0
 15 23  1  0  0  0  0
 15 16  1  0  0  0  0
 16 19  1  0  0  0  0
 19 22  1  0  0  0  0
 22  2  1  6  0  0  0
 22 23  1  0  0  0  0
 23 24  1  1  0  0  0
 24 25  1  0  0  0  0
 25 26  1  0  0  0  0
M  CHG  1  18  -1
M  END
>  <CHROM.1>
88.63843213,60.15494212,65.18467887,60.16135866,-160.93201318,-174.54529908
24.27340310,40.05511204,66.41262478,3.03673884,-0.23773202,0.21533879

>  <Name>
ligand

>  <RI>
0

>  <Rbt.Current_Directory>
/home/itssahil/PROJECTS/Mol_Feturizer/New_Systems/rnas/2HOL

>  <Rbt.Executable>
rbdock ($Id: //depot/dev/client3/rdock/2013.1/src/exe/rbdock.cxx#4 $)

>  <Rbt.Library>
libRbt.so (2013.1, Build901 2013/11/27)

>  <Rbt.Parameter_File>
/export/apps/rDock/src/rDock_2013.1_src/data/scripts/dock_solv.prm

>  <Rbt.Receptor>
prm/pocket_docking_2.prm

>  <SCORE>
-18.7365

>  <SCORE.INTER>
-15.507

>  <SCORE.INTER.CONST>
1

>  <SCORE.INTER.POLAR>
0

>  <SCORE.INTER.ROT>
6

>  <SCORE.INTER.SOLV>
20.3896

>  <SCORE.INTER.VDW>
-24.7345

>  <SCORE.INTER.norm>
-0.596423

>  <SCORE.INTRA>
-3.38608

>  <SCORE.INTRA.DIHEDRAL>
-2.48671

>  <SCORE.INTRA.DIHEDRAL.0>
9.33621

>  <SCORE.INTRA.POLAR>
0

>  <SCORE.INTRA.POLAR.0>
0

>  <SCORE.INTRA.REPUL>
0

>  <SCORE.INTRA.REPUL.0>
0

>  <SCORE.INTRA.SOLV>
0.348437

>  <SCORE.INTRA.SOLV.lig_0>
-65.9238

>  <SCORE.INTRA.VDW>
-2.31694

>  <SCORE.INTRA.VDW.0>
-0.405582

>  <SCORE.INTRA.norm>
-0.130234

>  <SCORE.RESTR>
0.156596

>  <SCORE.RESTR.CAVITY>
0.156596

>  <SCORE.RESTR.norm>
0.00602294

>  <SCORE.SYSTEM>
0

>  <SCORE.SYSTEM.CONST>
0

>  <SCORE.SYSTEM.DIHEDRAL>
0

>  <SCORE.SYSTEM.SOLV>
0

>  <SCORE.SYSTEM.norm>
0

>  <SCORE.heavy>
26

>  <SCORE.norm>
-0.720634

>  <RMSD>
1.683

$$$$
ligand
 OpenBabel11021811443D
libRbt.so/2013.1/901 2013/11/27
 26 28  0  0  0  0  0  0  0  0999 V2000
   16.5665   39.7827   64.0269 C   0  0  0  0  0  0  0  0  0  0  0  0
   21.9381   39.4438   68.1558 C   0  0  0  0  0  0  0  0  0  0  0  0
   27.3278   39.9768   68.6167 P   0  0  1  0  0  0  0  0  0  0  0  0
   29.3764   39.2799   67.2011 P   0  0  1  0  0  0  0  0  0  0  0  0
   21.1548   41.7503   66.7645 C   0  0  0  0  0  0  0  0  0  0  0  0
   19.6474   39.8817   66.0245 C   0  0  0  0  0  0  0  0  0  0  0  0
   19.9400   41.2309   66.0394 C   0  0  0  0  0  0  0  0  0  0  0  0
   19.0817   42.1019   65.3661 C   0  0  0  0  0  0  0  0  0  0  0  0
   19.3317   43.4660   65.3507 N   0  0  0  0  0  0  0  0  0  0  0  0
   18.0232   41.6035   64.7341 N   0  0  0  0  0  0  0  0  0  0  0  0
   17.7790   40.3093   64.7495 C   0  0  0  0  0  0  0  0  0  0  0  0
   18.5700   39.4602   65.3758 N   0  0  0  0  0  0  0  0  0  0  0  0
   27.5229   40.6166   69.9374 O   0  0  0  0  0  0  0  0  0  0  0  0
   29.2113   40.7988   66.9690 O   0  0  0  0  0  0  0  0  0  0  0  0
   24.2896   40.2938   65.1408 S   0  0  0  0  0  0  0  0  0  0  0  0
   23.0110   41.4618   65.2755 C   0  0  0  0  0  0  0  0  0  0  0  0
   27.4927   41.0787   67.4563 O   0  0  0  0  0  0  0  0  0  0  0  0
   30.9102   38.9542   67.5641 O   0  5  0  0  0  0  0  0  0  0  0  0
   22.3418   41.0198   66.3150 N   0  0  0  0  0  0  0  0  0  0  0  0
   28.4262   38.8165   68.4157 O   0  0  0  0  0  0  0  0  0  0  0  0
   28.9789   38.5182   65.9168 O   0  0  0  0  0  0  0  0  0  0  0  0
   22.7165   39.9381   66.9627 C   0  0  2  0  0  0  0  0  0  0  0  0
   23.8164   39.2720   66.5280 C   0  0  2  0  0  0  0  0  0  0  0  0
   24.4609   38.0219   67.0671 C   0  0  0  0  0  0  0  0  0  0  0  0
   25.8879   38.3363   67.5217 C   0  0  0  0  0  0  0  0  0  0  0  0
   25.8526   39.3353   68.5429 O   0  0  0  0  0  0  0  0  0  0  0  0
  1 11  1  0  0  0  0
  3 13  1  1  0  0  0
  3 17  1  0  0  0  0
  3 20  1  0  0  0  0
  3 26  1  0  0  0  0
  4 14  1  0  0  0  0
  4 18  1  1  0  0  0
  4 21  2  0  0  0  0
  4 20  1  0  0  0  0
  5 19  1  0  0  0  0
  5  7  1  0  0  0  0
  6  7  2  0  0  0  0
  6 12  1  0  0  0  0
  7  8  1  0  0  0  0
  8  9  1  0  0  0  0
  8 10  2  0  0  0  0
 10 11  1  0  0  0  0
 11 12  2  0  0  0  0
 14 17  1  0  0  0  0
 15 23  1  0  0  0  0
 15 16  1  0  0  0  0
 16 19  1  0  0  0  0
 19 22  1  0  0  0  0
 22  2  1  6  0  0  0
 22 23  1  0  0  0  0
 23 24  1  1  0  0  0
 24 25  1  0  0  0  0
 25 26  1  0  0  0  0
M  CHG  1  18  -1
M  END
>  <CHROM.1>
88.81843624,52.71765399,61.31246484,59.83745916,-160.99549975,-158.54991224
24.24566039,40.11059037,66.72086659,3.00470314,-0.24548495,0.00479564

>  <Name>
ligand

>  <RI>
0

>  <Rbt.Current_Directory>
/home/itssahil/PROJECTS/Mol_Feturizer/New_Systems/rnas/2HOL

>  <Rbt.Executable>
rbdock ($Id: //depot/dev/client3/rdock/2013.1/src/exe/rbdock.cxx#4 $)

>  <Rbt.Library>
libRbt.so (2013.1, Build901 2013/11/27)

>  <Rbt.Parameter_File>
/export/apps/rDock/src/rDock_2013.1_src/data/scripts/dock_solv.prm

>  <Rbt.Receptor>
prm/pocket_docking_2.prm

>  <SCORE>
-18.9055

>  <SCORE.INTER>
-16.4524

>  <SCORE.INTER.CONST>
1

>  <SCORE.INTER.POLAR>
0

>  <SCORE.INTER.ROT>
6

>  <SCORE.INTER.SOLV>
19.5276

>  <SCORE.INTER.VDW>
-25.0774

>  <SCORE.INTER.norm>
-0.632783

>  <SCORE.INTRA>
-2.66859

>  <SCORE.INTRA.DIHEDRAL>
-1.85433

>  <SCORE.INTRA.DIHEDRAL.0>
9.33621

>  <SCORE.INTRA.POLAR>
0

>  <SCORE.INTRA.POLAR.0>
0

>  <SCORE.INTRA.REPUL>
0

>  <SCORE.INTRA.REPUL.0>
0

>  <SCORE.INTRA.SOLV>
0.339267

>  <SCORE.INTRA.SOLV.lig_0>
-65.9238

>  <SCORE.INTRA.VDW>
-1.91106

>  <SCORE.INTRA.VDW.0>
-0.405582

>  <SCORE.INTRA.norm>
-0.102638

>  <SCORE.RESTR>
0.215408

>  <SCORE.RESTR.CAVITY>
0.215408

>  <SCORE.RESTR.norm>
0.00828493

>  <SCORE.SYSTEM>
0

>  <SCORE.SYSTEM.CONST>
0

>  <SCORE.SYSTEM.DIHEDRAL>
0

>  <SCORE.SYSTEM.SOLV>
0

>  <SCORE.SYSTEM.norm>
0

>  <SCORE.heavy>
26

>  <SCORE.norm>
-0.727136

>  <RMSD>
1.688

$$$$
ligand
 OpenBabel11021811443D
libRbt.so/2013.1/901 2013/11/27
 26 28  0  0  0  0  0  0  0  0999 V2000
   16.4939   40.4277   63.8370 C   0  0  0  0  0  0  0  0  0  0  0  0
   22.5113   38.4955   67.4020 C   0  0  0  0  0  0  0  0  0  0  0  0
   27.2617   39.1489   68.4779 P   0  0  1  0  0  0  0  0  0  0  0  0
   29.4667   39.8231   67.3075 P   0  0  1  0  0  0  0  0  0  0  0  0
   21.1655   40.9319   67.0526 C   0  0  0  0  0  0  0  0  0  0  0  0
   19.2368   39.6070   66.1380 C   0  0  0  0  0  0  0  0  0  0  0  0
   19.9291   40.7999   66.2010 C   0  0  0  0  0  0  0  0  0  0  0  0
   19.4546   41.8808   65.4560 C   0  0  0  0  0  0  0  0  0  0  0  0
   20.1143   43.1004   65.4846 N   0  0  0  0  0  0  0  0  0  0  0  0
   18.3631   41.7222   64.7131 N   0  0  0  0  0  0  0  0  0  0  0  0
   17.7305   40.5672   64.6860 C   0  0  0  0  0  0  0  0  0  0  0  0
   18.1529   39.5270   65.3777 N   0  0  0  0  0  0  0  0  0  0  0  0
   27.2765   38.7172   69.8939 O   0  0  0  0  0  0  0  0  0  0  0  0
   29.0443   41.0577   68.1354 O   0  0  0  0  0  0  0  0  0  0  0  0
   24.1510   40.7805   64.6758 S   0  0  0  0  0  0  0  0  0  0  0  0
   22.7567   41.5498   65.3696 C   0  0  0  0  0  0  0  0  0  0  0  0
   27.2822   40.7559   68.4060 O   0  0  0  0  0  0  0  0  0  0  0  0
   31.0150   39.4881   67.5919 O   0  5  0  0  0  0  0  0  0  0  0  0
   22.3512   40.6536   66.2393 N   0  0  0  0  0  0  0  0  0  0  0  0
   28.5580   38.5610   67.7246 O   0  0  0  0  0  0  0  0  0  0  0  0
   29.2730   40.1226   65.8041 O   0  0  0  0  0  0  0  0  0  0  0  0
   22.9887   39.5142   66.3979 C   0  0  2  0  0  0  0  0  0  0  0  0
   24.0825   39.2725   65.6314 C   0  0  2  0  0  0  0  0  0  0  0  0
   24.9887   38.0698   65.5985 C   0  0  0  0  0  0  0  0  0  0  0  0
   26.2639   38.3671   66.3907 C   0  0  0  0  0  0  0  0  0  0  0  0
   25.9299   38.5959   67.7611 O   0  0  0  0  0  0  0  0  0  0  0  0
  1 11  1  0  0  0  0
  3 13  1  1  0  0  0
  3 17  1  0  0  0  0
  3 20  1  0  0  0  0
  3 26  1  0  0  0  0
  4 14  1  0  0  0  0
  4 18  1  1  0  0  0
  4 21  2  0  0  0  0
  4 20  1  0  0  0  0
  5 19  1  0  0  0  0
  5  7  1  0  0  0  0
  6  7  2  0  0  0  0
  6 12  1  0  0  0  0
  7  8  1  0  0  0  0
  8  9  1  0  0  0  0
  8 10  2  0  0  0  0
 10 11  1  0  0  0  0
 11 12  2  0  0  0  0
 14 17  1  0  0  0  0
 15 23  1  0  0  0  0
 15 16  1  0  0  0  0
 16 19  1  0  0  0  0
 19 22  1  0  0  0  0
 22  2  1  6  0  0  0
 22 23  1  0  0  0  0
 23 24  1  1  0  0  0
 24 25  1  0  0  0  0
 25 26  1  0  0  0  0
M  CHG  1  18  -1
M  END
>  <CHROM.1>
74.19857140,93.20993279,79.41857352,63.18687926,-170.38359910,-148.79069983
24.31418466,40.01259971,66.56176750,-2.87464571,0.09704934,2.38024235

>  <Name>
ligand

>  <RI>
0

>  <Rbt.Current_Directory>
/home/itssahil/PROJECTS/Mol_Feturizer/New_Systems/rnas/2HOL

>  <Rbt.Executable>
rbdock ($Id: //depot/dev/client3/rdock/2013.1/src/exe/rbdock.cxx#4 $)

>  <Rbt.Library>
libRbt.so (2013.1, Build901 2013/11/27)

>  <Rbt.Parameter_File>
/export/apps/rDock/src/rDock_2013.1_src/data/scripts/dock_solv.prm

>  <Rbt.Receptor>
prm/pocket_docking_2.prm

>  <SCORE>
-17.3322

>  <SCORE.INTER>
-15.715

>  <SCORE.INTER.CONST>
1

>  <SCORE.INTER.POLAR>
0

>  <SCORE.INTER.ROT>
6

>  <SCORE.INTER.SOLV>
15.9921

>  <SCORE.INTER.VDW>
-23.4074

>  <SCORE.INTER.norm>
-0.604423

>  <SCORE.INTRA>
-2.22845

>  <SCORE.INTRA.DIHEDRAL>
-2.56592

>  <SCORE.INTRA.DIHEDRAL.0>
9.33621

>  <SCORE.INTRA.POLAR>
0

>  <SCORE.INTRA.POLAR.0>
0

>  <SCORE.INTRA.REPUL>
0

>  <SCORE.INTRA.REPUL.0>
0

>  <SCORE.INTRA.SOLV>
1.67065

>  <SCORE.INTRA.SOLV.lig_0>
-65.9238

>  <SCORE.INTRA.VDW>
-1.78081

>  <SCORE.INTRA.VDW.0>
-0.405582

>  <SCORE.INTRA.norm>
-0.0857095

>  <SCORE.RESTR>
0.611258

>  <SCORE.RESTR.CAVITY>
0.611258

>  <SCORE.RESTR.norm>
0.0235099

>  <SCORE.SYSTEM>
0

>  <SCORE.SYSTEM.CONST>
0

>  <SCORE.SYSTEM.DIHEDRAL>
0

>  <SCORE.SYSTEM.SOLV>
0

>  <SCORE.SYSTEM.norm>
0

>  <SCORE.heavy>
26

>  <SCORE.norm>
-0.666623

>  <RMSD>
1.689

$$$$
ligand
 OpenBabel11021811443D
libRbt.so/2013.1/901 2013/11/27
 26 28  0  0  0  0  0  0  0  0999 V2000
   16.5810   40.1621   63.9500 C   0  0  0  0  0  0  0  0  0  0  0  0
   23.8129   41.5190   65.1832 C   0  0  0  0  0  0  0  0  0  0  0  0
   27.3061   39.5927   68.7056 P   0  0  1  0  0  0  0  0  0  0  0  0
   29.4137   39.2084   67.2575 P   0  0  1  0  0  0  0  0  0  0  0  0
   21.3496   42.0702   66.4071 C   0  0  0  0  0  0  0  0  0  0  0  0
   18.9711   42.3690   65.6556 C   0  0  0  0  0  0  0  0  0  0  0  0
   20.0881   41.5638   65.7565 C   0  0  0  0  0  0  0  0  0  0  0  0
   20.0193   40.2686   65.2403 C   0  0  0  0  0  0  0  0  0  0  0  0
   21.1137   39.4202   65.3173 N   0  0  0  0  0  0  0  0  0  0  0  0
   18.8862   39.8579   64.6784 N   0  0  0  0  0  0  0  0  0  0  0  0
   17.8455   40.6613   64.5990 C   0  0  0  0  0  0  0  0  0  0  0  0
   17.8779   41.8899   65.0770 N   0  0  0  0  0  0  0  0  0  0  0  0
   27.4256   40.2442   70.0296 O   0  0  0  0  0  0  0  0  0  0  0  0
   29.0285   40.6893   67.0416 O   0  0  0  0  0  0  0  0  0  0  0  0
   22.9385   39.0223   68.0717 S   0  0  0  0  0  0  0  0  0  0  0  0
   21.6802   40.2033   67.8739 C   0  0  0  0  0  0  0  0  0  0  0  0
   27.2946   40.7153   67.5535 O   0  0  0  0  0  0  0  0  0  0  0  0
   30.9833   39.1043   67.5978 O   0  5  0  0  0  0  0  0  0  0  0  0
   22.1417   40.9354   66.8866 N   0  0  0  0  0  0  0  0  0  0  0  0
   28.5572   38.6041   68.4798 O   0  0  0  0  0  0  0  0  0  0  0  0
   29.1120   38.4069   65.9714 O   0  0  0  0  0  0  0  0  0  0  0  0
   23.2971   40.6695   66.3172 C   0  0  2  0  0  0  0  0  0  0  0  0
   24.0189   39.6167   66.7788 C   0  0  2  0  0  0  0  0  0  0  0  0
   25.3562   39.0929   66.3249 C   0  0  0  0  0  0  0  0  0  0  0  0
   25.9019   38.1116   67.3647 C   0  0  0  0  0  0  0  0  0  0  0  0
   25.9377   38.7460   68.6447 O   0  0  0  0  0  0  0  0  0  0  0  0
  1 11  1  0  0  0  0
  3 13  1  1  0  0  0
  3 17  1  0  0  0  0
  3 20  1  0  0  0  0
  3 26  1  0  0  0  0
  4 14  1  0  0  0  0
  4 18  1  1  0  0  0
  4 21  2  0  0  0  0
  4 20  1  0  0  0  0
  5 19  1  0  0  0  0
  5  7  1  0  0  0  0
  6  7  2  0  0  0  0
  6 12  1  0  0  0  0
  7  8  1  0  0  0  0
  8  9  1  0  0  0  0
  8 10  2  0  0  0  0
 10 11  1  0  0  0  0
 11 12  2  0  0  0  0
 14 17  1  0  0  0  0
 15 23  1  0  0  0  0
 15 16  1  0  0  0  0
 16 19  1  0  0  0  0
 19 22  1  0  0  0  0
 22  2  1  1  0  0  0
 22 23  1  0  0  0  0
 23 24  1  6  0  0  0
 24 25  1  0  0  0  0
 25 26  1  0  0  0  0
M  CHG  1  18  -1
M  END
>  <CHROM.1>
-67.12032893,156.51217341,-13.88453547,-54.70060068,-83.35302482,-178.23918563
24.30268654,39.96302077,66.86703219,-2.86248630,-0.10450325,1.75586120

>  <Name>
ligand

>  <RI>
0

>  <Rbt.Current_Directory>
/home/itssahil/PROJECTS/Mol_Feturizer/New_Systems/rnas/2HOL

>  <Rbt.Executable>
rbdock ($Id: //depot/dev/client3/rdock/2013.1/src/exe/rbdock.cxx#4 $)

>  <Rbt.Library>
libRbt.so (2013.1, Build901 2013/11/27)

>  <Rbt.Parameter_File>
/export/apps/rDock/src/rDock_2013.1_src/data/scripts/dock_solv.prm

>  <Rbt.Receptor>
prm/pocket_docking_2.prm

>  <SCORE>
-13.7574

>  <SCORE.INTER>
-16.5602

>  <SCORE.INTER.CONST>
1

>  <SCORE.INTER.POLAR>
0

>  <SCORE.INTER.ROT>
6

>  <SCORE.INTER.SOLV>
14.1616

>  <SCORE.INTER.VDW>
-23.3607

>  <SCORE.INTER.norm>
-0.636932

>  <SCORE.INTRA>
2.62532

>  <SCORE.INTRA.DIHEDRAL>
-2.22862

>  <SCORE.INTRA.DIHEDRAL.0>
9.33621

>  <SCORE.INTRA.POLAR>
0

>  <SCORE.INTRA.POLAR.0>
0

>  <SCORE.INTRA.REPUL>
0

>  <SCORE.INTRA.REPUL.0>
0

>  <SCORE.INTRA.SOLV>
7.03537

>  <SCORE.INTRA.SOLV.lig_0>
-65.9238

>  <SCORE.INTRA.VDW>
0.221943

>  <SCORE.INTRA.VDW.0>
-0.405582

>  <SCORE.INTRA.norm>
0.100974

>  <SCORE.RESTR>
0.177461

>  <SCORE.RESTR.CAVITY>
0.177461

>  <SCORE.RESTR.norm>
0.00682541

>  <SCORE.SYSTEM>
0

>  <SCORE.SYSTEM.CONST>
0

>  <SCORE.SYSTEM.DIHEDRAL>
0

>  <SCORE.SYSTEM.SOLV>
0

>  <SCORE.SYSTEM.norm>
0

>  <SCORE.heavy>
26

>  <SCORE.norm>
-0.529133

>  <RMSD>
1.692

$$$$
ligand
 OpenBabel11021811443D
libRbt.so/2013.1/901 2013/11/27
 26 28  0  0  0  0  0  0  0  0999 V2000
   16.3585   40.1016   63.8427 C   0  0  0  0  0  0  0  0  0  0  0  0
   21.9321   38.9883   67.4763 C   0  0  0  0  0  0  0  0  0  0  0  0
   27.1170   39.2599   68.2777 P   0  0  1  0  0  0  0  0  0  0  0  0
   29.4464   39.5776   67.2010 P   0  0  1  0  0  0  0  0  0  0  0  0
   21.0060   41.5477   66.7970 C   0  0  0  0  0  0  0  0  0  0  0  0
   19.3619   39.8511   65.9426 C   0  0  0  0  0  0  0  0  0  0  0  0
   19.7757   41.1663   66.0146 C   0  0  0  0  0  0  0  0  0  0  0  0
   19.0254   42.1341   65.3446 C   0  0  0  0  0  0  0  0  0  0  0  0
   19.3993   43.4690   65.3854 N   0  0  0  0  0  0  0  0  0  0  0  0
   17.9491   41.7562   64.6611 N   0  0  0  0  0  0  0  0  0  0  0  0
   17.5873   40.4903   64.6228 C   0  0  0  0  0  0  0  0  0  0  0  0
   18.2745   39.5520   65.2445 N   0  0  0  0  0  0  0  0  0  0  0  0
   26.9701   38.4284   69.4937 O   0  0  0  0  0  0  0  0  0  0  0  0
   29.4032   40.5634   68.3904 O   0  0  0  0  0  0  0  0  0  0  0  0
   24.1115   40.7329   64.7287 S   0  0  0  0  0  0  0  0  0  0  0  0
   22.8007   41.7604   65.2222 C   0  0  0  0  0  0  0  0  0  0  0  0
   27.6277   40.7287   68.6896 O   0  0  0  0  0  0  0  0  0  0  0  0
   30.8128   38.7287   67.2546 O   0  5  0  0  0  0  0  0  0  0  0  0
   22.1958   41.0221   66.1238 N   0  0  0  0  0  0  0  0  0  0  0  0
   28.1879   38.5770   67.2875 O   0  0  0  0  0  0  0  0  0  0  0  0
   29.3846   40.3695   65.8756 O   0  0  0  0  0  0  0  0  0  0  0  0
   22.6372   39.8236   66.4375 C   0  0  2  0  0  0  0  0  0  0  0  0
   23.7383   39.3519   65.7991 C   0  0  2  0  0  0  0  0  0  0  0  0
   24.4499   38.0333   65.9531 C   0  0  0  0  0  0  0  0  0  0  0  0
   25.2697   38.0413   67.2453 C   0  0  0  0  0  0  0  0  0  0  0  0
   25.6953   39.3753   67.5303 O   0  0  0  0  0  0  0  0  0  0  0  0
  1 11  1  0  0  0  0
  3 13  1  1  0  0  0
  3 17  1  0  0  0  0
  3 20  1  0  0  0  0
  3 26  1  0  0  0  0
  4 14  1  0  0  0  0
  4 18  1  1  0  0  0
  4 21  2  0  0  0  0
  4 20  1  0  0  0  0
  5 19  1  0  0  0  0
  5  7  1  0  0  0  0
  6  7  2  0  0  0  0
  6 12  1  0  0  0  0
  7  8  1  0  0  0  0
  8  9  1  0  0  0  0
  8 10  2  0  0  0  0
 10 11  1  0  0  0  0
 11 12  2  0  0  0  0
 14 17  1  0  0  0  0
 15 23  1  0  0  0  0
 15 16  1  0  0  0  0
 16 19  1  0  0  0  0
 19 22  1  0  0  0  0
 22  2  1  6  0  0  0
 22 23  1  0  0  0  0
 23 24  1  1  0  0  0
 24 25  1  0  0  0  0
 25 26  1  0  0  0  0
M  CHG  1  18  -1
M  END
>  <CHROM.1>
89.92870220,68.73709011,104.05444544,-30.24410157,-148.33043585,-57.38599146
24.13020879,40.05978021,66.51988844,2.88198209,-0.12912363,-0.56672368

>  <Name>
ligand

>  <RI>
0

>  <Rbt.Current_Directory>
/home/itssahil/PROJECTS/Mol_Feturizer/New_Systems/rnas/2HOL

>  <Rbt.Executable>
rbdock ($Id: //depot/dev/client3/rdock/2013.1/src/exe/rbdock.cxx#4 $)

>  <Rbt.Library>
libRbt.so (2013.1, Build901 2013/11/27)

>  <Rbt.Parameter_File>
/export/apps/rDock/src/rDock_2013.1_src/data/scripts/dock_solv.prm

>  <Rbt.Receptor>
prm/pocket_docking_2.prm

>  <SCORE>
-15.1353

>  <SCORE.INTER>
-15.3138

>  <SCORE.INTER.CONST>
1

>  <SCORE.INTER.POLAR>
0

>  <SCORE.INTER.ROT>
6

>  <SCORE.INTER.SOLV>
19.5003

>  <SCORE.INTER.VDW>
-24.3093

>  <SCORE.INTER.norm>
-0.588991

>  <SCORE.INTRA>
-0.182312

>  <SCORE.INTRA.DIHEDRAL>
1.96959

>  <SCORE.INTRA.DIHEDRAL.0>
9.33621

>  <SCORE.INTRA.POLAR>
0

>  <SCORE.INTRA.POLAR.0>
0

>  <SCORE.INTRA.REPUL>
0

>  <SCORE.INTRA.REPUL.0>
0

>  <SCORE.INTRA.SOLV>
0.0169933

>  <SCORE.INTRA.SOLV.lig_0>
-65.9238

>  <SCORE.INTRA.VDW>
-1.1756

>  <SCORE.INTRA.VDW.0>
-0.405582

>  <SCORE.INTRA.norm>
-0.00701202

>  <SCORE.RESTR>
0.360743

>  <SCORE.RESTR.CAVITY>
0.360743

>  <SCORE.RESTR.norm>
0.0138747

>  <SCORE.SYSTEM>
0

>  <SCORE.SYSTEM.CONST>
0

>  <SCORE.SYSTEM.DIHEDRAL>
0

>  <SCORE.SYSTEM.SOLV>
0

>  <SCORE.SYSTEM.norm>
0

>  <SCORE.heavy>
26

>  <SCORE.norm>
-0.582129

>  <RMSD>
1.723

$$$$
ligand
 OpenBabel11021811443D
libRbt.so/2013.1/901 2013/11/27
 26 28  0  0  0  0  0  0  0  0999 V2000
   16.2720   39.3469   63.8814 C   0  0  0  0  0  0  0  0  0  0  0  0
   23.4546   41.8456   65.9755 C   0  0  0  0  0  0  0  0  0  0  0  0
   27.8701   38.6850   66.1761 P   0  0  1  0  0  0  0  0  0  0  0  0
   30.0947   39.9182   66.6421 P   0  0  1  0  0  0  0  0  0  0  0  0
   20.7033   41.7624   66.5172 C   0  0  0  0  0  0  0  0  0  0  0  0
   19.4427   39.7524   65.6909 C   0  0  0  0  0  0  0  0  0  0  0  0
   19.5299   41.1244   65.8192 C   0  0  0  0  0  0  0  0  0  0  0  0
   18.5031   41.9057   65.2862 C   0  0  0  0  0  0  0  0  0  0  0  0
   18.5438   43.2882   65.3883 N   0  0  0  0  0  0  0  0  0  0  0  0
   17.4874   41.3047   64.6735 N   0  0  0  0  0  0  0  0  0  0  0  0
   17.4419   39.9917   64.5777 C   0  0  0  0  0  0  0  0  0  0  0  0
   18.3956   39.2256   65.0702 N   0  0  0  0  0  0  0  0  0  0  0  0
   27.8313   37.2051   66.1666 O   0  0  0  0  0  0  0  0  0  0  0  0
   29.5582   39.4956   68.0284 O   0  0  0  0  0  0  0  0  0  0  0  0
   22.4207   38.8069   68.2203 S   0  0  0  0  0  0  0  0  0  0  0  0
   21.0352   39.7702   67.8083 C   0  0  0  0  0  0  0  0  0  0  0  0
   27.8038   39.2145   67.6936 O   0  0  0  0  0  0  0  0  0  0  0  0
   31.6414   39.4931   66.5108 O   0  5  0  0  0  0  0  0  0  0  0  0
   21.5676   40.7189   67.0732 N   0  0  0  0  0  0  0  0  0  0  0  0
   29.2370   39.1898   65.4903 O   0  0  0  0  0  0  0  0  0  0  0  0
   29.9675   41.4504   66.4878 O   0  0  0  0  0  0  0  0  0  0  0  0
   22.8584   40.7500   66.8228 C   0  0  2  0  0  0  0  0  0  0  0  0
   23.6436   39.7770   67.3511 C   0  0  2  0  0  0  0  0  0  0  0  0
   25.1310   39.5703   67.2339 C   0  0  0  0  0  0  0  0  0  0  0  0
   25.4368   38.7487   65.9795 C   0  0  0  0  0  0  0  0  0  0  0  0
   26.6132   39.2611   65.3505 O   0  0  0  0  0  0  0  0  0  0  0  0
  1 11  1  0  0  0  0
  3 13  1  6  0  0  0
  3 17  1  0  0  0  0
  3 20  1  0  0  0  0
  3 26  1  0  0  0  0
  4 14  1  0  0  0  0
  4 18  1  6  0  0  0
  4 21  2  0  0  0  0
  4 20  1  0  0  0  0
  5 19  1  0  0  0  0
  5  7  1  0  0  0  0
  6  7  2  0  0  0  0
  6 12  1  0  0  0  0
  7  8  1  0  0  0  0
  8  9  1  0  0  0  0
  8 10  2  0  0  0  0
 10 11  1  0  0  0  0
 11 12  2  0  0  0  0
 14 17  1  0  0  0  0
 15 23  1  0  0  0  0
 15 16  1  0  0  0  0
 16 19  1  0  0  0  0
 19 22  1  0  0  0  0
 22  2  1  1  0  0  0
 22 23  1  0  0  0  0
 23 24  1  6  0  0  0
 24 25  1  0  0  0  0
 25 26  1  0  0  0  0
M  CHG  1  18  -1
M  END
>  <CHROM.1>
-50.33082189,-4.67481739,92.37818901,140.59147742,79.25910546,58.35286513
24.21708447,39.91143122,66.33323207,3.00969836,-0.08213518,-0.18569716

>  <Name>
ligand

>  <RI>
0

>  <Rbt.Current_Directory>
/home/itssahil/PROJECTS/Mol_Feturizer/New_Systems/rnas/2HOL

>  <Rbt.Executable>
rbdock ($Id: //depot/dev/client3/rdock/2013.1/src/exe/rbdock.cxx#4 $)

>  <Rbt.Library>
libRbt.so (2013.1, Build901 2013/11/27)

>  <Rbt.Parameter_File>
/export/apps/rDock/src/rDock_2013.1_src/data/scripts/dock_solv.prm

>  <Rbt.Receptor>
prm/pocket_docking_2.prm

>  <SCORE>
-12.8064

>  <SCORE.INTER>
-15.6916

>  <SCORE.INTER.CONST>
1

>  <SCORE.INTER.POLAR>
0

>  <SCORE.INTER.ROT>
6

>  <SCORE.INTER.SOLV>
22.0128

>  <SCORE.INTER.VDW>
-25.3987

>  <SCORE.INTER.norm>
-0.603524

>  <SCORE.INTRA>
2.26289

>  <SCORE.INTRA.DIHEDRAL>
1.2281

>  <SCORE.INTRA.DIHEDRAL.0>
9.33621

>  <SCORE.INTRA.POLAR>
0

>  <SCORE.INTRA.POLAR.0>
0

>  <SCORE.INTRA.REPUL>
0

>  <SCORE.INTRA.REPUL.0>
0

>  <SCORE.INTRA.SOLV>
-0.370222

>  <SCORE.INTRA.SOLV.lig_0>
-65.9238

>  <SCORE.INTRA.VDW>
1.83396

>  <SCORE.INTRA.VDW.0>
-0.405582

>  <SCORE.INTRA.norm>
0.0870344

>  <SCORE.RESTR>
0.622303

>  <SCORE.RESTR.CAVITY>
0.622303

>  <SCORE.RESTR.norm>
0.0239347

>  <SCORE.SYSTEM>
0

>  <SCORE.SYSTEM.CONST>
0

>  <SCORE.SYSTEM.DIHEDRAL>
0

>  <SCORE.SYSTEM.SOLV>
0

>  <SCORE.SYSTEM.norm>
0

>  <SCORE.heavy>
26

>  <SCORE.norm>
-0.492555

>  <RMSD>
1.766

$$$$
ligand
 OpenBabel11021811443D
libRbt.so/2013.1/901 2013/11/27
 26 28  0  0  0  0  0  0  0  0999 V2000
   16.2842   39.6755   63.8129 C   0  0  0  0  0  0  0  0  0  0  0  0
   21.6426   39.3519   67.9126 C   0  0  0  0  0  0  0  0  0  0  0  0
   27.6681   38.6271   68.2104 P   0  0  1  0  0  0  0  0  0  0  0  0
   29.9885   39.0102   67.1356 P   0  0  1  0  0  0  0  0  0  0  0  0
   20.7682   41.7107   66.6713 C   0  0  0  0  0  0  0  0  0  0  0  0
   19.3312   39.8166   65.8594 C   0  0  0  0  0  0  0  0  0  0  0  0
   19.5810   41.1734   65.9143 C   0  0  0  0  0  0  0  0  0  0  0  0
   18.7056   42.0350   65.2510 C   0  0  0  0  0  0  0  0  0  0  0  0
   18.9127   43.4061   65.2753 N   0  0  0  0  0  0  0  0  0  0  0  0
   17.6725   41.5211   64.5900 N   0  0  0  0  0  0  0  0  0  0  0  0
   17.4689   40.2199   64.5676 C   0  0  0  0  0  0  0  0  0  0  0  0
   18.2771   39.3793   65.1835 N   0  0  0  0  0  0  0  0  0  0  0  0
   27.5029   38.7421   69.6770 O   0  0  0  0  0  0  0  0  0  0  0  0
   29.4138   40.4217   67.3917 O   0  0  0  0  0  0  0  0  0  0  0  0
   23.9772   40.5063   64.9870 S   0  0  0  0  0  0  0  0  0  0  0  0
   22.6469   41.6054   65.1862 C   0  0  0  0  0  0  0  0  0  0  0  0
   27.6428   40.0939   67.5502 O   0  0  0  0  0  0  0  0  0  0  0  0
   31.4936   38.9310   67.7001 O   0  5  0  0  0  0  0  0  0  0  0  0
   21.9900   41.0650   66.1864 N   0  0  0  0  0  0  0  0  0  0  0  0
   29.0752   37.9152   67.8836 O   0  0  0  0  0  0  0  0  0  0  0  0
   29.9933   38.7259   65.6168 O   0  0  0  0  0  0  0  0  0  0  0  0
   22.4075   39.9596   66.7639 C   0  0  2  0  0  0  0  0  0  0  0  0
   23.5392   39.3733   66.2971 C   0  0  2  0  0  0  0  0  0  0  0  0
   24.2345   38.1190   66.7579 C   0  0  0  0  0  0  0  0  0  0  0  0
   25.2596   38.4691   67.8389 C   0  0  0  0  0  0  0  0  0  0  0  0
   26.4675   37.7432   67.6018 O   0  0  0  0  0  0  0  0  0  0  0  0
  1 11  1  0  0  0  0
  3 13  1  1  0  0  0
  3 17  1  0  0  0  0
  3 20  1  0  0  0  0
  3 26  1  0  0  0  0
  4 14  1  0  0  0  0
  4 18  1  1  0  0  0
  4 21  2  0  0  0  0
  4 20  1  0  0  0  0
  5 19  1  0  0  0  0
  5  7  1  0  0  0  0
  6  7  2  0  0  0  0
  6 12  1  0  0  0  0
  7  8  1  0  0  0  0
  8  9  1  0  0  0  0
  8 10  2  0  0  0  0
 10 11  1  0  0  0  0
 11 12  2  0  0  0  0
 14 17  1  0  0  0  0
 15 23  1  0  0  0  0
 15 16  1  0  0  0  0
 16 19  1  0  0  0  0
 19 22  1  0  0  0  0
 22  2  1  6  0  0  0
 22 23  1  0  0  0  0
 23 24  1  1  0  0  0
 24 25  1  0  0  0  0
 25 26  1  0  0  0  0
M  CHG  1  18  -1
M  END
>  <CHROM.1>
89.67297613,54.78566742,89.57811212,-137.10522943,151.82372781,64.08183394
24.23828203,39.78773877,66.55214360,2.86023472,-0.07233271,-0.63071946

>  <Name>
ligand

>  <RI>
0

>  <Rbt.Current_Directory>
/home/itssahil/PROJECTS/Mol_Feturizer/New_Systems/rnas/2HOL

>  <Rbt.Executable>
rbdock ($Id: //depot/dev/client3/rdock/2013.1/src/exe/rbdock.cxx#4 $)

>  <Rbt.Library>
libRbt.so (2013.1, Build901 2013/11/27)

>  <Rbt.Parameter_File>
/export/apps/rDock/src/rDock_2013.1_src/data/scripts/dock_solv.prm

>  <Rbt.Receptor>
prm/pocket_docking_2.prm

>  <SCORE>
-15.8075

>  <SCORE.INTER>
-16.1952

>  <SCORE.INTER.CONST>
1

>  <SCORE.INTER.POLAR>
0

>  <SCORE.INTER.ROT>
6

>  <SCORE.INTER.SOLV>
24.1051

>  <SCORE.INTER.VDW>
-26.4318

>  <SCORE.INTER.norm>
-0.622891

>  <SCORE.INTRA>
-0.178174

>  <SCORE.INTRA.DIHEDRAL>
3.29253

>  <SCORE.INTRA.DIHEDRAL.0>
9.33621

>  <SCORE.INTRA.POLAR>
0

>  <SCORE.INTRA.POLAR.0>
0

>  <SCORE.INTRA.REPUL>
0

>  <SCORE.INTRA.REPUL.0>
0

>  <SCORE.INTRA.SOLV>
-0.732594

>  <SCORE.INTRA.SOLV.lig_0>
-65.9238

>  <SCORE.INTRA.VDW>
-1.45814

>  <SCORE.INTRA.VDW.0>
-0.405582

>  <SCORE.INTRA.norm>
-0.00685285

>  <SCORE.RESTR>
0.565891

>  <SCORE.RESTR.CAVITY>
0.565891

>  <SCORE.RESTR.norm>
0.021765

>  <SCORE.SYSTEM>
0

>  <SCORE.SYSTEM.CONST>
0

>  <SCORE.SYSTEM.DIHEDRAL>
0

>  <SCORE.SYSTEM.SOLV>
0

>  <SCORE.SYSTEM.norm>
0

>  <SCORE.heavy>
26

>  <SCORE.norm>
-0.607979

>  <RMSD>
1.785

$$$$
ligand
 OpenBabel11021811443D
libRbt.so/2013.1/901 2013/11/27
 26 28  0  0  0  0  0  0  0  0999 V2000
   16.3764   40.1601   63.8186 C   0  0  0  0  0  0  0  0  0  0  0  0
   21.8451   39.0186   67.4371 C   0  0  0  0  0  0  0  0  0  0  0  0
   27.7514   38.4420   67.6762 P   0  0  1  0  0  0  0  0  0  0  0  0
   29.9498   39.7832   67.4421 P   0  0  1  0  0  0  0  0  0  0  0  0
   21.0234   41.6162   66.7687 C   0  0  0  0  0  0  0  0  0  0  0  0
   19.2822   39.9514   66.0556 C   0  0  0  0  0  0  0  0  0  0  0  0
   19.7934   41.2322   65.9872 C   0  0  0  0  0  0  0  0  0  0  0  0
   19.1415   42.1626   65.1759 C   0  0  0  0  0  0  0  0  0  0  0  0
   19.6154   43.4619   65.0726 N   0  0  0  0  0  0  0  0  0  0  0  0
   18.0621   41.7829   64.4985 N   0  0  0  0  0  0  0  0  0  0  0  0
   17.6055   40.5513   64.5968 C   0  0  0  0  0  0  0  0  0  0  0  0
   18.1981   39.6488   65.3539 N   0  0  0  0  0  0  0  0  0  0  0  0
   27.5889   37.4733   68.7838 O   0  0  0  0  0  0  0  0  0  0  0  0
   29.1344   40.5137   68.5328 O   0  0  0  0  0  0  0  0  0  0  0  0
   24.1481   40.7198   64.7642 S   0  0  0  0  0  0  0  0  0  0  0  0
   22.8616   41.7858   65.2395 C   0  0  0  0  0  0  0  0  0  0  0  0
   27.4535   39.9284   68.2144 O   0  0  0  0  0  0  0  0  0  0  0  0
   31.4524   39.5405   67.9651 O   0  5  0  0  0  0  0  0  0  0  0  0
   22.2104   41.0581   66.1171 N   0  0  0  0  0  0  0  0  0  0  0  0
   29.2588   38.3662   67.1145 O   0  0  0  0  0  0  0  0  0  0  0  0
   29.9842   40.6476   66.1618 O   0  0  0  0  0  0  0  0  0  0  0  0
   22.6030   39.8414   66.4260 C   0  0  2  0  0  0  0  0  0  0  0  0
   23.7025   39.3398   65.8078 C   0  0  2  0  0  0  0  0  0  0  0  0
   24.3648   37.9958   65.9618 C   0  0  0  0  0  0  0  0  0  0  0  0
   25.4151   38.0664   67.0726 C   0  0  0  0  0  0  0  0  0  0  0  0
   26.7208   38.0826   66.4921 O   0  0  0  0  0  0  0  0  0  0  0  0
  1 11  1  0  0  0  0
  3 13  1  1  0  0  0
  3 17  1  0  0  0  0
  3 20  1  0  0  0  0
  3 26  1  0  0  0  0
  4 14  1  0  0  0  0
  4 18  1  1  0  0  0
  4 21  2  0  0  0  0
  4 20  1  0  0  0  0
  5 19  1  0  0  0  0
  5  7  1  0  0  0  0
  6  7  2  0  0  0  0
  6 12  1  0  0  0  0
  7  8  1  0  0  0  0
  8  9  1  0  0  0  0
  8 10  2  0  0  0  0
 10 11  1  0  0  0  0
 11 12  2  0  0  0  0
 14 17  1  0  0  0  0
 15 23  1  0  0  0  0
 15 16  1  0  0  0  0
 16 19  1  0  0  0  0
 19 22  1  0  0  0  0
 22  2  1  6  0  0  0
 22 23  1  0  0  0  0
 23 24  1  1  0  0  0
 24 25  1  0  0  0  0
 25 26  1  0  0  0  0
M  CHG  1  18  -1
M  END
>  <CHROM.1>
92.54672898,75.50423000,90.24920329,-105.58101306,169.29558625,55.74772201
24.36249919,39.94698106,66.42391041,2.90775540,-0.16780126,-0.33941388

>  <Name>
ligand

>  <RI>
0

>  <Rbt.Current_Directory>
/home/itssahil/PROJECTS/Mol_Feturizer/New_Systems/rnas/2HOL

>  <Rbt.Executable>
rbdock ($Id: //depot/dev/client3/rdock/2013.1/src/exe/rbdock.cxx#4 $)

>  <Rbt.Library>
libRbt.so (2013.1, Build901 2013/11/27)

>  <Rbt.Parameter_File>
/export/apps/rDock/src/rDock_2013.1_src/data/scripts/dock_solv.prm

>  <Rbt.Receptor>
prm/pocket_docking_2.prm

>  <SCORE>
-16.1508

>  <SCORE.INTER>
-16.4542

>  <SCORE.INTER.CONST>
1

>  <SCORE.INTER.POLAR>
0

>  <SCORE.INTER.ROT>
6

>  <SCORE.INTER.SOLV>
21.1915

>  <SCORE.INTER.VDW>
-25.6333

>  <SCORE.INTER.norm>
-0.632854

>  <SCORE.INTRA>
-1.03404

>  <SCORE.INTRA.DIHEDRAL>
0.865407

>  <SCORE.INTRA.DIHEDRAL.0>
9.33621

>  <SCORE.INTRA.POLAR>
0

>  <SCORE.INTRA.POLAR.0>
0

>  <SCORE.INTRA.REPUL>
0

>  <SCORE.INTRA.REPUL.0>
0

>  <SCORE.INTRA.SOLV>
-0.170597

>  <SCORE.INTRA.SOLV.lig_0>
-65.9238

>  <SCORE.INTRA.VDW>
-1.38145

>  <SCORE.INTRA.VDW.0>
-0.405582

>  <SCORE.INTRA.norm>
-0.0397709

>  <SCORE.RESTR>
1.33743

>  <SCORE.RESTR.CAVITY>
1.33743

>  <SCORE.RESTR.norm>
0.0514396

>  <SCORE.SYSTEM>
0

>  <SCORE.SYSTEM.CONST>
0

>  <SCORE.SYSTEM.DIHEDRAL>
0

>  <SCORE.SYSTEM.SOLV>
0

>  <SCORE.SYSTEM.norm>
0

>  <SCORE.heavy>
26

>  <SCORE.norm>
-0.621186

>  <RMSD>
1.792

$$$$
ligand
 OpenBabel11021811443D
libRbt.so/2013.1/901 2013/11/27
 26 28  0  0  0  0  0  0  0  0999 V2000
   16.4974   39.8863   63.8078 C   0  0  0  0  0  0  0  0  0  0  0  0
   22.3431   38.9303   67.6185 C   0  0  0  0  0  0  0  0  0  0  0  0
   27.8783   38.5291   66.8275 P   0  0  1  0  0  0  0  0  0  0  0  0
   30.3598   39.2350   67.0008 P   0  0  1  0  0  0  0  0  0  0  0  0
   21.0409   41.3168   66.9269 C   0  0  0  0  0  0  0  0  0  0  0  0
   19.3785   39.6379   66.0727 C   0  0  0  0  0  0  0  0  0  0  0  0
   19.8382   40.9395   66.1008 C   0  0  0  0  0  0  0  0  0  0  0  0
   19.1604   41.8975   65.3448 C   0  0  0  0  0  0  0  0  0  0  0  0
   19.5826   43.2185   65.3387 N   0  0  0  0  0  0  0  0  0  0  0  0
   18.1065   41.5233   64.6253 N   0  0  0  0  0  0  0  0  0  0  0  0
   17.6989   40.2708   64.6311 C   0  0  0  0  0  0  0  0  0  0  0  0
   18.3173   39.3421   65.3342 N   0  0  0  0  0  0  0  0  0  0  0  0
   27.0572   38.4008   68.0526 O   0  0  0  0  0  0  0  0  0  0  0  0
   29.5488   40.5458   67.1113 O   0  0  0  0  0  0  0  0  0  0  0  0
   24.1384   40.8818   64.7357 S   0  0  0  0  0  0  0  0  0  0  0  0
   22.7194   41.7314   65.2665 C   0  0  0  0  0  0  0  0  0  0  0  0
   27.9573   40.0760   66.3932 O   0  0  0  0  0  0  0  0  0  0  0  0
   31.4455   39.1719   68.1873 O   0  5  0  0  0  0  0  0  0  0  0  0
   22.2625   40.9422   66.2111 N   0  0  0  0  0  0  0  0  0  0  0  0
   29.3628   37.9759   67.1167 O   0  0  0  0  0  0  0  0  0  0  0  0
   31.0852   39.1937   65.6371 O   0  0  0  0  0  0  0  0  0  0  0  0
   22.8798   39.8255   66.5302 C   0  0  2  0  0  0  0  0  0  0  0  0
   24.0076   39.4931   65.8521 C   0  0  2  0  0  0  0  0  0  0  0  0
   24.9021   38.2904   66.0018 C   0  0  0  0  0  0  0  0  0  0  0  0
   26.1383   38.4578   65.1154 C   0  0  0  0  0  0  0  0  0  0  0  0
   27.2098   37.6711   65.6400 O   0  0  0  0  0  0  0  0  0  0  0  0
  1 11  1  0  0  0  0
  3 13  1  1  0  0  0
  3 17  1  0  0  0  0
  3 20  1  0  0  0  0
  3 26  1  0  0  0  0
  4 14  1  0  0  0  0
  4 18  1  1  0  0  0
  4 21  2  0  0  0  0
  4 20  1  0  0  0  0
  5 19  1  0  0  0  0
  5  7  1  0  0  0  0
  6  7  2  0  0  0  0
  6 12  1  0  0  0  0
  7  8  1  0  0  0  0
  8  9  1  0  0  0  0
  8 10  2  0  0  0  0
 10 11  1  0  0  0  0
 11 12  2  0  0  0  0
 14 17  1  0  0  0  0
 15 23  1  0  0  0  0
 15 16  1  0  0  0  0
 16 19  1  0  0  0  0
 19 22  1  0  0  0  0
 22  2  1  6  0  0  0
 22 23  1  0  0  0  0
 23 24  1  1  0  0  0
 24 25  1  0  0  0  0
 25 26  1  0  0  0  0
M  CHG  1  18  -1
M  END
>  <CHROM.1>
80.97737092,79.71453013,6.40269631,155.70160055,-81.74990940,79.74703638
24.57196907,39.80547214,66.10750922,2.94865870,-0.12302726,-0.18313283

>  <Name>
ligand

>  <RI>
0

>  <Rbt.Current_Directory>
/home/itssahil/PROJECTS/Mol_Feturizer/New_Systems/rnas/2HOL

>  <Rbt.Executable>
rbdock ($Id: //depot/dev/client3/rdock/2013.1/src/exe/rbdock.cxx#4 $)

>  <Rbt.Library>
libRbt.so (2013.1, Build901 2013/11/27)

>  <Rbt.Parameter_File>
/export/apps/rDock/src/rDock_2013.1_src/data/scripts/dock_solv.prm

>  <Rbt.Receptor>
prm/pocket_docking_2.prm

>  <SCORE>
-16.9388

>  <SCORE.INTER>
-17.2399

>  <SCORE.INTER.CONST>
1

>  <SCORE.INTER.POLAR>
0

>  <SCORE.INTER.ROT>
6

>  <SCORE.INTER.SOLV>
22.9936

>  <SCORE.INTER.VDW>
-26.7578

>  <SCORE.INTER.norm>
-0.663075

>  <SCORE.INTRA>
-0.447692

>  <SCORE.INTRA.DIHEDRAL>
-0.124904

>  <SCORE.INTRA.DIHEDRAL.0>
9.33621

>  <SCORE.INTRA.POLAR>
0

>  <SCORE.INTRA.POLAR.0>
0

>  <SCORE.INTRA.REPUL>
0

>  <SCORE.INTRA.REPUL.0>
0

>  <SCORE.INTRA.SOLV>
0.587421

>  <SCORE.INTRA.SOLV.lig_0>
-65.9238

>  <SCORE.INTRA.VDW>
-0.678951

>  <SCORE.INTRA.VDW.0>
-0.405582

>  <SCORE.INTRA.norm>
-0.0172189

>  <SCORE.RESTR>
0.74888

>  <SCORE.RESTR.CAVITY>
0.74888

>  <SCORE.RESTR.norm>
0.0288031

>  <SCORE.SYSTEM>
0

>  <SCORE.SYSTEM.CONST>
0

>  <SCORE.SYSTEM.DIHEDRAL>
0

>  <SCORE.SYSTEM.SOLV>
0

>  <SCORE.SYSTEM.norm>
0

>  <SCORE.heavy>
26

>  <SCORE.norm>
-0.651491

>  <RMSD>
1.835

$$$$
ligand
 OpenBabel11021811443D
libRbt.so/2013.1/901 2013/11/27
 26 28  0  0  0  0  0  0  0  0999 V2000
   16.0388   39.5958   63.8409 C   0  0  0  0  0  0  0  0  0  0  0  0
   23.3427   40.6208   64.7164 C   0  0  0  0  0  0  0  0  0  0  0  0
   27.5231   39.2936   68.6555 P   0  0  1  0  0  0  0  0  0  0  0  0
   29.5047   39.3747   66.9962 P   0  0  1  0  0  0  0  0  0  0  0  0
   20.9706   41.7319   65.7205 C   0  0  0  0  0  0  0  0  0  0  0  0
   18.5587   41.9739   65.0604 C   0  0  0  0  0  0  0  0  0  0  0  0
   19.6659   41.1651   65.2229 C   0  0  0  0  0  0  0  0  0  0  0  0
   19.5461   39.8090   64.9144 C   0  0  0  0  0  0  0  0  0  0  0  0
   20.6286   38.9545   65.0611 N   0  0  0  0  0  0  0  0  0  0  0  0
   18.3762   39.3469   64.4830 N   0  0  0  0  0  0  0  0  0  0  0  0
   17.3463   40.1552   64.3378 C   0  0  0  0  0  0  0  0  0  0  0  0
   17.4266   41.4407   64.6207 N   0  0  0  0  0  0  0  0  0  0  0  0
   27.6293   38.4953   69.8977 O   0  0  0  0  0  0  0  0  0  0  0  0
   29.8640   40.3751   68.1179 O   0  0  0  0  0  0  0  0  0  0  0  0
   22.3274   39.1756   68.2124 S   0  0  0  0  0  0  0  0  0  0  0  0
   21.1735   40.3569   67.6735 C   0  0  0  0  0  0  0  0  0  0  0  0
   28.2521   40.7123   68.8646 O   0  0  0  0  0  0  0  0  0  0  0  0
   30.7563   38.4005   66.7223 O   0  5  0  0  0  0  0  0  0  0  0  0
   21.6717   40.7205   66.5144 N   0  0  0  0  0  0  0  0  0  0  0  0
   28.2302   38.4995   67.4459 O   0  0  0  0  0  0  0  0  0  0  0  0
   29.1657   40.1521   65.7045 O   0  0  0  0  0  0  0  0  0  0  0  0
   22.7838   40.1936   66.0501 C   0  0  2  0  0  0  0  0  0  0  0  0
   23.4217   39.2614   66.8028 C   0  0  2  0  0  0  0  0  0  0  0  0
   24.6952   38.5065   66.5252 C   0  0  0  0  0  0  0  0  0  0  0  0
   25.4558   38.2857   67.8347 C   0  0  0  0  0  0  0  0  0  0  0  0
   25.9706   39.5341   68.3020 O   0  0  0  0  0  0  0  0  0  0  0  0
  1 11  1  0  0  0  0
  3 13  1  1  0  0  0
  3 17  1  0  0  0  0
  3 20  1  0  0  0  0
  3 26  1  0  0  0  0
  4 14  1  0  0  0  0
  4 18  1  6  0  0  0
  4 21  2  0  0  0  0
  4 20  1  0  0  0  0
  5 19  1  0  0  0  0
  5  7  1  0  0  0  0
  6  7  2  0  0  0  0
  6 12  1  0  0  0  0
  7  8  1  0  0  0  0
  8  9  1  0  0  0  0
  8 10  2  0  0  0  0
 10 11  1  0  0  0  0
 11 12  2  0  0  0  0
 14 17  1  0  0  0  0
 15 23  1  0  0  0  0
 15 16  1  0  0  0  0
 16 19  1  0  0  0  0
 19 22  1  0  0  0  0
 22  2  1  1  0  0  0
 22 23  1  0  0  0  0
 23 24  1  6  0  0  0
 24 25  1  0  0  0  0
 25 26  1  0  0  0  0
M  CHG  1  18  -1
M  END
>  <CHROM.1>
-68.30004963,147.31268728,-35.26447444,-69.92882224,-131.01239709,-72.77578261
24.08842977,39.74913510,66.71853457,-2.85871023,-0.02521434,1.84132805

>  <Name>
ligand

>  <RI>
0

>  <Rbt.Current_Directory>
/home/itssahil/PROJECTS/Mol_Feturizer/New_Systems/rnas/2HOL

>  <Rbt.Executable>
rbdock ($Id: //depot/dev/client3/rdock/2013.1/src/exe/rbdock.cxx#4 $)

>  <Rbt.Library>
libRbt.so (2013.1, Build901 2013/11/27)

>  <Rbt.Parameter_File>
/export/apps/rDock/src/rDock_2013.1_src/data/scripts/dock_solv.prm

>  <Rbt.Receptor>
prm/pocket_docking_2.prm

>  <SCORE>
-11.8983

>  <SCORE.INTER>
-15.6228

>  <SCORE.INTER.CONST>
1

>  <SCORE.INTER.POLAR>
0

>  <SCORE.INTER.ROT>
6

>  <SCORE.INTER.SOLV>
16.5359

>  <SCORE.INTER.VDW>
-23.5272

>  <SCORE.INTER.norm>
-0.600877

>  <SCORE.INTRA>
3.16865

>  <SCORE.INTRA.DIHEDRAL>
2.83367

>  <SCORE.INTRA.DIHEDRAL.0>
9.33621

>  <SCORE.INTRA.POLAR>
0

>  <SCORE.INTRA.POLAR.0>
0

>  <SCORE.INTRA.REPUL>
0

>  <SCORE.INTRA.REPUL.0>
0

>  <SCORE.INTRA.SOLV>
5.30416

>  <SCORE.INTRA.SOLV.lig_0>
-65.9238

>  <SCORE.INTRA.VDW>
-0.900261

>  <SCORE.INTRA.VDW.0>
-0.405582

>  <SCORE.INTRA.norm>
0.121871

>  <SCORE.RESTR>
0.555884

>  <SCORE.RESTR.CAVITY>
0.555884

>  <SCORE.RESTR.norm>
0.0213801

>  <SCORE.SYSTEM>
0

>  <SCORE.SYSTEM.CONST>
0

>  <SCORE.SYSTEM.DIHEDRAL>
0

>  <SCORE.SYSTEM.SOLV>
0

>  <SCORE.SYSTEM.norm>
0

>  <SCORE.heavy>
26

>  <SCORE.norm>
-0.457626

>  <RMSD>
1.838

$$$$
ligand
 OpenBabel11021811443D
libRbt.so/2013.1/901 2013/11/27
 26 28  0  0  0  0  0  0  0  0999 V2000
   16.1597   39.4159   63.9690 C   0  0  0  0  0  0  0  0  0  0  0  0
   21.8022   40.0771   68.4988 C   0  0  0  0  0  0  0  0  0  0  0  0
   27.2914   39.9239   67.9968 P   0  0  1  0  0  0  0  0  0  0  0  0
   29.5346   39.1293   66.9850 P   0  0  1  0  0  0  0  0  0  0  0  0
   21.0036   41.4350   66.1776 C   0  0  0  0  0  0  0  0  0  0  0  0
   19.4025   39.5620   65.6882 C   0  0  0  0  0  0  0  0  0  0  0  0
   19.7212   40.9019   65.5925 C   0  0  0  0  0  0  0  0  0  0  0  0
   18.8251   41.7506   64.9402 C   0  0  0  0  0  0  0  0  0  0  0  0
   19.0991   43.1046   64.8171 N   0  0  0  0  0  0  0  0  0  0  0  0
   17.7067   41.2404   64.4332 N   0  0  0  0  0  0  0  0  0  0  0  0
   17.4398   39.9559   64.5514 C   0  0  0  0  0  0  0  0  0  0  0  0
   18.2653   39.1279   65.1612 N   0  0  0  0  0  0  0  0  0  0  0  0
   27.2437   40.4291   69.3875 O   0  0  0  0  0  0  0  0  0  0  0  0
   29.5575   40.6710   66.8810 O   0  0  0  0  0  0  0  0  0  0  0  0
   23.7341   38.9146   65.2959 S   0  0  0  0  0  0  0  0  0  0  0  0
   22.5866   40.1595   64.9075 C   0  0  0  0  0  0  0  0  0  0  0  0
   27.8046   41.0928   67.0179 O   0  0  0  0  0  0  0  0  0  0  0  0
   30.9155   38.6126   67.6303 O   0  5  0  0  0  0  0  0  0  0  0  0
   22.0482   40.4134   66.0778 N   0  0  0  0  0  0  0  0  0  0  0  0
   28.3022   38.6728   67.9154 O   0  0  0  0  0  0  0  0  0  0  0  0
   29.3672   38.5221   65.5741 O   0  0  0  0  0  0  0  0  0  0  0  0
   22.4293   39.7731   67.1616 C   0  0  2  0  0  0  0  0  0  0  0  0
   23.3953   38.8263   67.0479 C   0  0  2  0  0  0  0  0  0  0  0  0
   24.0125   37.9485   68.1049 C   0  0  0  0  0  0  0  0  0  0  0  0
   25.3552   38.5391   68.5414 C   0  0  0  0  0  0  0  0  0  0  0  0
   25.8194   39.4524   67.5452 O   0  0  0  0  0  0  0  0  0  0  0  0
  1 11  1  0  0  0  0
  3 13  1  1  0  0  0
  3 17  1  0  0  0  0
  3 20  1  0  0  0  0
  3 26  1  0  0  0  0
  4 14  1  0  0  0  0
  4 18  1  1  0  0  0
  4 21  2  0  0  0  0
  4 20  1  0  0  0  0
  5 19  1  0  0  0  0
  5  7  1  0  0  0  0
  6  7  2  0  0  0  0
  6 12  1  0  0  0  0
  7  8  1  0  0  0  0
  8  9  1  0  0  0  0
  8 10  2  0  0  0  0
 10 11  1  0  0  0  0
 11 12  2  0  0  0  0
 14 17  1  0  0  0  0
 15 23  1  0  0  0  0
 15 16  1  0  0  0  0
 16 19  1  0  0  0  0
 19 22  1  0  0  0  0
 22  2  1  6  0  0  0
 22 23  1  0  0  0  0
 23 24  1  1  0  0  0
 24 25  1  0  0  0  0
 25 26  1  0  0  0  0
M  CHG  1  18  -1
M  END
>  <CHROM.1>
73.87886651,32.99115357,80.48366924,-19.03588424,-174.64652324,-52.96192701
24.07677299,39.81819767,66.54793333,2.89005519,-0.02377874,-1.04303072

>  <Name>
ligand

>  <RI>
0

>  <Rbt.Current_Directory>
/home/itssahil/PROJECTS/Mol_Feturizer/New_Systems/rnas/2HOL

>  <Rbt.Executable>
rbdock ($Id: //depot/dev/client3/rdock/2013.1/src/exe/rbdock.cxx#4 $)

>  <Rbt.Library>
libRbt.so (2013.1, Build901 2013/11/27)

>  <Rbt.Parameter_File>
/export/apps/rDock/src/rDock_2013.1_src/data/scripts/dock_solv.prm

>  <Rbt.Receptor>
prm/pocket_docking_2.prm

>  <SCORE>
-16.5269

>  <SCORE.INTER>
-16.387

>  <SCORE.INTER.CONST>
1

>  <SCORE.INTER.POLAR>
0

>  <SCORE.INTER.ROT>
6

>  <SCORE.INTER.SOLV>
21.4671

>  <SCORE.INTER.VDW>
-25.6804

>  <SCORE.INTER.norm>
-0.630269

>  <SCORE.INTRA>
-1.04704

>  <SCORE.INTRA.DIHEDRAL>
0.138489

>  <SCORE.INTRA.DIHEDRAL.0>
9.33621

>  <SCORE.INTRA.POLAR>
0

>  <SCORE.INTRA.POLAR.0>
0

>  <SCORE.INTRA.REPUL>
0

>  <SCORE.INTRA.REPUL.0>
0

>  <SCORE.INTRA.SOLV>
-0.350699

>  <SCORE.INTRA.SOLV.lig_0>
-65.9238

>  <SCORE.INTRA.VDW>
-0.94093

>  <SCORE.INTRA.VDW.0>
-0.405582

>  <SCORE.INTRA.norm>
-0.0402706

>  <SCORE.RESTR>
0.907081

>  <SCORE.RESTR.CAVITY>
0.907081

>  <SCORE.RESTR.norm>
0.0348877

>  <SCORE.SYSTEM>
0

>  <SCORE.SYSTEM.CONST>
0

>  <SCORE.SYSTEM.DIHEDRAL>
0

>  <SCORE.SYSTEM.SOLV>
0

>  <SCORE.SYSTEM.norm>
0

>  <SCORE.heavy>
26

>  <SCORE.norm>
-0.635652

>  <RMSD>
1.876

$$$$
ligand
 OpenBabel11021811443D
libRbt.so/2013.1/901 2013/11/27
 26 28  0  0  0  0  0  0  0  0999 V2000
   16.1547   39.4274   63.8028 C   0  0  0  0  0  0  0  0  0  0  0  0
   21.9590   39.9040   68.5286 C   0  0  0  0  0  0  0  0  0  0  0  0
   27.9503   39.5599   68.0322 P   0  0  1  0  0  0  0  0  0  0  0  0
   29.9460   39.2746   66.4128 P   0  0  1  0  0  0  0  0  0  0  0  0
   20.6543   41.4895   66.6171 C   0  0  0  0  0  0  0  0  0  0  0  0
   19.2535   39.5842   65.7688 C   0  0  0  0  0  0  0  0  0  0  0  0
   19.4629   40.9450   65.8718 C   0  0  0  0  0  0  0  0  0  0  0  0
   18.5427   41.8040   65.2683 C   0  0  0  0  0  0  0  0  0  0  0  0
   18.7083   43.1789   65.3425 N   0  0  0  0  0  0  0  0  0  0  0  0
   17.5074   41.2840   64.6157 N   0  0  0  0  0  0  0  0  0  0  0  0
   17.3433   39.9789   64.5461 C   0  0  0  0  0  0  0  0  0  0  0  0
   18.1943   39.1407   65.1049 N   0  0  0  0  0  0  0  0  0  0  0  0
   28.0693   40.4569   69.2038 O   0  0  0  0  0  0  0  0  0  0  0  0
   29.2695   40.6028   66.0049 O   0  0  0  0  0  0  0  0  0  0  0  0
   23.6953   39.8216   65.0185 S   0  0  0  0  0  0  0  0  0  0  0  0
   22.2945   40.8484   64.9908 C   0  0  0  0  0  0  0  0  0  0  0  0
   27.6181   40.4302   66.7207 O   0  0  0  0  0  0  0  0  0  0  0  0
   31.5320   39.5023   66.5641 O   0  5  0  0  0  0  0  0  0  0  0  0
   21.8560   40.7501   66.2245 N   0  0  0  0  0  0  0  0  0  0  0  0
   29.3384   38.7723   67.8168 O   0  0  0  0  0  0  0  0  0  0  0  0
   29.6807   38.2086   65.3261 O   0  0  0  0  0  0  0  0  0  0  0  0
   22.4743   40.0055   67.1151 C   0  0  2  0  0  0  0  0  0  0  0  0
   23.5835   39.3240   66.7308 C   0  0  2  0  0  0  0  0  0  0  0  0
   24.4743   38.4069   67.5272 C   0  0  0  0  0  0  0  0  0  0  0  0
   25.5406   39.2309   68.2526 C   0  0  0  0  0  0  0  0  0  0  0  0
   26.7668   38.4979   68.2863 O   0  0  0  0  0  0  0  0  0  0  0  0
  1 11  1  0  0  0  0
  3 13  1  1  0  0  0
  3 17  1  0  0  0  0
  3 20  1  0  0  0  0
  3 26  1  0  0  0  0
  4 14  1  0  0  0  0
  4 18  1  1  0  0  0
  4 21  2  0  0  0  0
  4 20  1  0  0  0  0
  5 19  1  0  0  0  0
  5  7  1  0  0  0  0
  6  7  2  0  0  0  0
  6 12  1  0  0  0  0
  7  8  1  0  0  0  0
  8  9  1  0  0  0  0
  8 10  2  0  0  0  0
 10 11  1  0  0  0  0
 11 12  2  0  0  0  0
 14 17  1  0  0  0  0
 15 23  1  0  0  0  0
 15 16  1  0  0  0  0
 16 19  1  0  0  0  0
 19 22  1  0  0  0  0
 22  2  1  6  0  0  0
 22 23  1  0  0  0  0
 23 24  1  1  0  0  0
 24 25  1  0  0  0  0
 25 26  1  0  0  0  0
M  CHG  1  18  -1
M  END
>  <CHROM.1>
65.86044258,45.79210209,93.69625529,-144.22043559,140.46327489,69.26740498
24.24055212,39.92901847,66.42838415,-2.96528858,-0.11211466,1.58782472

>  <Name>
ligand

>  <RI>
0

>  <Rbt.Current_Directory>
/home/itssahil/PROJECTS/Mol_Feturizer/New_Systems/rnas/2HOL

>  <Rbt.Executable>
rbdock ($Id: //depot/dev/client3/rdock/2013.1/src/exe/rbdock.cxx#4 $)

>  <Rbt.Library>
libRbt.so (2013.1, Build901 2013/11/27)

>  <Rbt.Parameter_File>
/export/apps/rDock/src/rDock_2013.1_src/data/scripts/dock_solv.prm

>  <Rbt.Receptor>
prm/pocket_docking_2.prm

>  <SCORE>
-13.3516

>  <SCORE.INTER>
-13.9577

>  <SCORE.INTER.CONST>
1

>  <SCORE.INTER.POLAR>
0

>  <SCORE.INTER.ROT>
6

>  <SCORE.INTER.SOLV>
21.6752

>  <SCORE.INTER.VDW>
-24.1302

>  <SCORE.INTER.norm>
-0.536835

>  <SCORE.INTRA>
0.25737

>  <SCORE.INTRA.DIHEDRAL>
4.49899

>  <SCORE.INTRA.DIHEDRAL.0>
9.33621

>  <SCORE.INTRA.POLAR>
0

>  <SCORE.INTRA.POLAR.0>
0

>  <SCORE.INTRA.REPUL>
0

>  <SCORE.INTRA.REPUL.0>
0

>  <SCORE.INTRA.SOLV>
-0.734412

>  <SCORE.INTRA.SOLV.lig_0>
-65.9238

>  <SCORE.INTRA.VDW>
-1.62492

>  <SCORE.INTRA.VDW.0>
-0.405582

>  <SCORE.INTRA.norm>
0.00989884

>  <SCORE.RESTR>
0.348757

>  <SCORE.RESTR.CAVITY>
0.348757

>  <SCORE.RESTR.norm>
0.0134137

>  <SCORE.SYSTEM>
0

>  <SCORE.SYSTEM.CONST>
0

>  <SCORE.SYSTEM.DIHEDRAL>
0

>  <SCORE.SYSTEM.SOLV>
0

>  <SCORE.SYSTEM.norm>
0

>  <SCORE.heavy>
26

>  <SCORE.norm>
-0.513522

>  <RMSD>
1.887

$$$$
ligand
 OpenBabel11021811443D
libRbt.so/2013.1/901 2013/11/27
 26 28  0  0  0  0  0  0  0  0999 V2000
   15.7819   39.5017   63.5717 C   0  0  0  0  0  0  0  0  0  0  0  0
   22.8060   42.4308   65.7070 C   0  0  0  0  0  0  0  0  0  0  0  0
   27.4191   39.0537   67.2818 P   0  0  1  0  0  0  0  0  0  0  0  0
   29.8950   39.7993   67.2522 P   0  0  1  0  0  0  0  0  0  0  0  0
   20.4681   41.0494   66.4110 C   0  0  0  0  0  0  0  0  0  0  0  0
   18.7451   39.3498   65.7369 C   0  0  0  0  0  0  0  0  0  0  0  0
   19.2276   40.6411   65.6589 C   0  0  0  0  0  0  0  0  0  0  0  0
   18.5370   41.5591   64.8658 C   0  0  0  0  0  0  0  0  0  0  0  0
   18.9810   42.8682   64.7539 N   0  0  0  0  0  0  0  0  0  0  0  0
   17.4495   41.1582   64.2141 N   0  0  0  0  0  0  0  0  0  0  0  0
   17.0212   39.9171   64.3206 C   0  0  0  0  0  0  0  0  0  0  0  0
   17.6508   39.0258   65.0611 N   0  0  0  0  0  0  0  0  0  0  0  0
   27.0796   37.6134   67.3227 O   0  0  0  0  0  0  0  0  0  0  0  0
   29.5784   39.4764   68.7300 O   0  0  0  0  0  0  0  0  0  0  0  0
   23.0899   38.5597   65.1810 S   0  0  0  0  0  0  0  0  0  0  0  0
   21.5231   38.9861   65.7981 C   0  0  0  0  0  0  0  0  0  0  0  0
   27.7728   39.5647   68.7656 O   0  0  0  0  0  0  0  0  0  0  0  0
   31.2632   39.0687   66.8226 O   0  5  0  0  0  0  0  0  0  0  0  0
   21.6160   40.2911   65.9089 N   0  0  0  0  0  0  0  0  0  0  0  0
   28.6908   39.2776   66.3193 O   0  0  0  0  0  0  0  0  0  0  0  0
   30.0527   41.3271   67.0831 O   0  0  0  0  0  0  0  0  0  0  0  0
   22.7154   40.9313   65.5753 C   0  0  2  0  0  0  0  0  0  0  0  0
   23.7701   40.2105   65.1166 C   0  0  2  0  0  0  0  0  0  0  0  0
   25.1330   40.6737   64.6731 C   0  0  0  0  0  0  0  0  0  0  0  0
   26.2058   39.7720   65.2880 C   0  0  0  0  0  0  0  0  0  0  0  0
   26.1639   39.8859   66.7118 O   0  0  0  0  0  0  0  0  0  0  0  0
  1 11  1  0  0  0  0
  3 13  1  1  0  0  0
  3 17  1  0  0  0  0
  3 20  1  0  0  0  0
  3 26  1  0  0  0  0
  4 14  1  0  0  0  0
  4 18  1  6  0  0  0
  4 21  2  0  0  0  0
  4 20  1  0  0  0  0
  5 19  1  0  0  0  0
  5  7  1  0  0  0  0
  6  7  2  0  0  0  0
  6 12  1  0  0  0  0
  7  8  1  0  0  0  0
  8  9  1  0  0  0  0
  8 10  2  0  0  0  0
 10 11  1  0  0  0  0
 11 12  2  0  0  0  0
 14 17  1  0  0  0  0
 15 23  1  0  0  0  0
 15 16  1  0  0  0  0
 16 19  1  0  0  0  0
 19 22  1  0  0  0  0
 22  2  1  1  0  0  0
 22 23  1  0  0  0  0
 23 24  1  6  0  0  0
 24 25  1  0  0  0  0
 25 26  1  0  0  0  0
M  CHG  1  18  -1
M  END
>  <CHROM.1>
-49.66606192,63.41628642,-45.71150366,-62.74772032,-173.52347269,-81.09709237
24.08253882,39.93719988,66.06808920,3.04016105,-0.21758400,-0.10395968

>  <Name>
ligand

>  <RI>
0

>  <Rbt.Current_Directory>
/home/itssahil/PROJECTS/Mol_Feturizer/New_Systems/rnas/2HOL

>  <Rbt.Executable>
rbdock ($Id: //depot/dev/client3/rdock/2013.1/src/exe/rbdock.cxx#4 $)

>  <Rbt.Library>
libRbt.so (2013.1, Build901 2013/11/27)

>  <Rbt.Parameter_File>
/export/apps/rDock/src/rDock_2013.1_src/data/scripts/dock_solv.prm

>  <Rbt.Receptor>
prm/pocket_docking_4.prm

>  <SCORE>
-20.1698

>  <SCORE.INTER>
-18.1522

>  <SCORE.INTER.CONST>
1

>  <SCORE.INTER.POLAR>
0

>  <SCORE.INTER.ROT>
6

>  <SCORE.INTER.SOLV>
20.506

>  <SCORE.INTER.VDW>
-26.5368

>  <SCORE.INTER.norm>
-0.698163

>  <SCORE.INTRA>
-2.01751

>  <SCORE.INTRA.DIHEDRAL>
-3.36451

>  <SCORE.INTRA.DIHEDRAL.0>
9.33621

>  <SCORE.INTRA.POLAR>
0

>  <SCORE.INTRA.POLAR.0>
0

>  <SCORE.INTRA.REPUL>
0

>  <SCORE.INTRA.REPUL.0>
0

>  <SCORE.INTRA.SOLV>
0.746007

>  <SCORE.INTRA.SOLV.lig_0>
-65.9238

>  <SCORE.INTRA.VDW>
-0.70826

>  <SCORE.INTRA.VDW.0>
-0.405582

>  <SCORE.INTRA.norm>
-0.0775965

>  <SCORE.RESTR>
0

>  <SCORE.RESTR.CAVITY>
0

>  <SCORE.RESTR.norm>
0

>  <SCORE.SYSTEM>
0

>  <SCORE.SYSTEM.CONST>
0

>  <SCORE.SYSTEM.DIHEDRAL>
0

>  <SCORE.SYSTEM.SOLV>
0

>  <SCORE.SYSTEM.norm>
0

>  <SCORE.heavy>
26

>  <SCORE.norm>
-0.77576

>  <RMSD>
1.953

$$$$
ligand
 OpenBabel11021811443D
libRbt.so/2013.1/901 2013/11/27
 26 28  0  0  0  0  0  0  0  0999 V2000
   15.8449   39.5480   63.6170 C   0  0  0  0  0  0  0  0  0  0  0  0
   22.8184   42.5658   65.6939 C   0  0  0  0  0  0  0  0  0  0  0  0
   27.3670   39.0889   67.1521 P   0  0  1  0  0  0  0  0  0  0  0  0
   29.9480   39.2412   67.1084 P   0  0  1  0  0  0  0  0  0  0  0  0
   20.5365   41.1134   66.4377 C   0  0  0  0  0  0  0  0  0  0  0  0
   18.8094   39.4110   65.7814 C   0  0  0  0  0  0  0  0  0  0  0  0
   19.2946   40.7004   65.6905 C   0  0  0  0  0  0  0  0  0  0  0  0
   18.6054   41.6121   64.8889 C   0  0  0  0  0  0  0  0  0  0  0  0
   19.0521   42.9191   64.7638 N   0  0  0  0  0  0  0  0  0  0  0  0
   17.5165   41.2071   64.2419 N   0  0  0  0  0  0  0  0  0  0  0  0
   17.0857   39.9680   64.3609 C   0  0  0  0  0  0  0  0  0  0  0  0
   17.7139   39.0828   65.1096 N   0  0  0  0  0  0  0  0  0  0  0  0
   26.7037   37.7663   67.2001 O   0  0  0  0  0  0  0  0  0  0  0  0
   29.5732   39.0043   68.5888 O   0  0  0  0  0  0  0  0  0  0  0  0
   23.1957   38.7096   65.1201 S   0  0  0  0  0  0  0  0  0  0  0  0
   21.6329   39.0863   65.7782 C   0  0  0  0  0  0  0  0  0  0  0  0
   27.8372   39.5082   68.6323 O   0  0  0  0  0  0  0  0  0  0  0  0
   31.1077   38.2126   66.6753 O   0  5  0  0  0  0  0  0  0  0  0  0
   21.6926   40.3921   65.9007 N   0  0  0  0  0  0  0  0  0  0  0  0
   28.6508   39.0098   66.1830 O   0  0  0  0  0  0  0  0  0  0  0  0
   30.4540   40.6906   66.9327 O   0  0  0  0  0  0  0  0  0  0  0  0
   22.7658   41.0659   65.5484 C   0  0  2  0  0  0  0  0  0  0  0  0
   23.8287   40.3791   65.0574 C   0  0  2  0  0  0  0  0  0  0  0  0
   25.1675   40.8843   64.5871 C   0  0  0  0  0  0  0  0  0  0  0  0
   26.2790   40.0073   65.1682 C   0  0  0  0  0  0  0  0  0  0  0  0
   26.3354   40.1874   66.5846 O   0  0  0  0  0  0  0  0  0  0  0  0
  1 11  1  0  0  0  0
  3 13  1  1  0  0  0
  3 17  1  0  0  0  0
  3 20  1  0  0  0  0
  3 26  1  0  0  0  0
  4 14  1  0  0  0  0
  4 18  1  6  0  0  0
  4 21  2  0  0  0  0
  4 20  1  0  0  0  0
  5 19  1  0  0  0  0
  5  7  1  0  0  0  0
  6  7  2  0  0  0  0
  6 12  1  0  0  0  0
  7  8  1  0  0  0  0
  8  9  1  0  0  0  0
  8 10  2  0  0  0  0
 10 11  1  0  0  0  0
 11 12  2  0  0  0  0
 14 17  1  0  0  0  0
 15 23  1  0  0  0  0
 15 16  1  0  0  0  0
 16 19  1  0  0  0  0
 19 22  1  0  0  0  0
 22  2  1  1  0  0  0
 22 23  1  0  0  0  0
 23 24  1  6  0  0  0
 24 25  1  0  0  0  0
 25 26  1  0  0  0  0
M  CHG  1  18  -1
M  END
>  <CHROM.1>
-50.87600805,65.97488500,-45.76686804,-67.24988547,171.93988943,-77.55341511
24.12482137,39.89006108,66.00522751,2.99915574,-0.19629254,-0.12361379

>  <Name>
ligand

>  <RI>
0

>  <Rbt.Current_Directory>
/home/itssahil/PROJECTS/Mol_Feturizer/New_Systems/rnas/2HOL

>  <Rbt.Executable>
rbdock ($Id: //depot/dev/client3/rdock/2013.1/src/exe/rbdock.cxx#4 $)

>  <Rbt.Library>
libRbt.so (2013.1, Build901 2013/11/27)

>  <Rbt.Parameter_File>
/export/apps/rDock/src/rDock_2013.1_src/data/scripts/dock_solv.prm

>  <Rbt.Receptor>
prm/pocket_docking_3.prm

>  <SCORE>
-20.2641

>  <SCORE.INTER>
-18.04

>  <SCORE.INTER.CONST>
1

>  <SCORE.INTER.POLAR>
0

>  <SCORE.INTER.ROT>
6

>  <SCORE.INTER.SOLV>
21.325

>  <SCORE.INTER.VDW>
-26.735

>  <SCORE.INTER.norm>
-0.693848

>  <SCORE.INTRA>
-2.23433

>  <SCORE.INTRA.DIHEDRAL>
-3.27411

>  <SCORE.INTRA.DIHEDRAL.0>
9.33621

>  <SCORE.INTRA.POLAR>
0

>  <SCORE.INTRA.POLAR.0>
0

>  <SCORE.INTRA.REPUL>
0

>  <SCORE.INTRA.REPUL.0>
0

>  <SCORE.INTRA.SOLV>
0.829987

>  <SCORE.INTRA.SOLV.lig_0>
-65.9238

>  <SCORE.INTRA.VDW>
-1.01227

>  <SCORE.INTRA.VDW.0>
-0.405582

>  <SCORE.INTRA.norm>
-0.0859359

>  <SCORE.RESTR>
0.0102358

>  <SCORE.RESTR.CAVITY>
0.0102358

>  <SCORE.RESTR.norm>
0.000393684

>  <SCORE.SYSTEM>
0

>  <SCORE.SYSTEM.CONST>
0

>  <SCORE.SYSTEM.DIHEDRAL>
0

>  <SCORE.SYSTEM.SOLV>
0

>  <SCORE.SYSTEM.norm>
0

>  <SCORE.heavy>
26

>  <SCORE.norm>
-0.77939

>  <RMSD>
1.959

$$$$
ligand
 OpenBabel11021811443D
libRbt.so/2013.1/901 2013/11/27
 26 28  0  0  0  0  0  0  0  0999 V2000
   15.9927   39.5680   63.6863 C   0  0  0  0  0  0  0  0  0  0  0  0
   23.1389   41.1807   65.3827 C   0  0  0  0  0  0  0  0  0  0  0  0
   28.1800   40.4395   66.6619 P   0  0  1  0  0  0  0  0  0  0  0  0
   29.9265   42.0736   65.6790 P   0  0  1  0  0  0  0  0  0  0  0  0
   20.6312   41.0564   66.6338 C   0  0  0  0  0  0  0  0  0  0  0  0
   18.9045   39.3780   65.9173 C   0  0  0  0  0  0  0  0  0  0  0  0
   19.4034   40.6639   65.8531 C   0  0  0  0  0  0  0  0  0  0  0  0
   18.7413   41.5913   65.0467 C   0  0  0  0  0  0  0  0  0  0  0  0
   19.2026   42.8954   64.9477 N   0  0  0  0  0  0  0  0  0  0  0  0
   17.6642   41.2041   64.3697 N   0  0  0  0  0  0  0  0  0  0  0  0
   17.2195   39.9678   64.4638 C   0  0  0  0  0  0  0  0  0  0  0  0
   17.8221   39.0679   65.2163 N   0  0  0  0  0  0  0  0  0  0  0  0
   28.3630   39.8915   68.0249 O   0  0  0  0  0  0  0  0  0  0  0  0
   29.0360   42.9300   66.6073 O   0  0  0  0  0  0  0  0  0  0  0  0
   22.5172   37.7927   67.2473 S   0  0  0  0  0  0  0  0  0  0  0  0
   21.1465   38.8474   67.4089 C   0  0  0  0  0  0  0  0  0  0  0  0
   27.5469   41.9153   66.7567 O   0  0  0  0  0  0  0  0  0  0  0  0
   31.4763   42.3605   66.0047 O   0  5  0  0  0  0  0  0  0  0  0  0
   21.5330   39.9071   66.7370 N   0  0  0  0  0  0  0  0  0  0  0  0
   29.6064   40.5138   65.9180 O   0  0  0  0  0  0  0  0  0  0  0  0
   29.6340   42.4396   64.2065 O   0  0  0  0  0  0  0  0  0  0  0  0
   22.7099   39.9569   66.1521 C   0  0  2  0  0  0  0  0  0  0  0  0
   23.5336   38.8837   66.2631 C   0  0  2  0  0  0  0  0  0  0  0  0
   24.9175   38.6703   65.7079 C   0  0  0  0  0  0  0  0  0  0  0  0
   25.9155   39.5462   66.4688 C   0  0  0  0  0  0  0  0  0  0  0  0
   27.1903   39.4829   65.8262 O   0  0  0  0  0  0  0  0  0  0  0  0
  1 11  1  0  0  0  0
  3 13  1  1  0  0  0
  3 17  1  0  0  0  0
  3 20  1  0  0  0  0
  3 26  1  0  0  0  0
  4 14  1  0  0  0  0
  4 18  1  1  0  0  0
  4 21  2  0  0  0  0
  4 20  1  0  0  0  0
  5 19  1  0  0  0  0
  5  7  1  0  0  0  0
  6  7  2  0  0  0  0
  6 12  1  0  0  0  0
  7  8  1  0  0  0  0
  8  9  1  0  0  0  0
  8 10  2  0  0  0  0
 10 11  1  0  0  0  0
 11 12  2  0  0  0  0
 14 17  1  0  0  0  0
 15 23  1  0  0  0  0
 15 16  1  0  0  0  0
 16 19  1  0  0  0  0
 19 22  1  0  0  0  0
 22  2  1  1  0  0  0
 22 23  1  0  0  0  0
 23 24  1  6  0  0  0
 24 25  1  0  0  0  0
 25 26  1  0  0  0  0
M  CHG  1  18  -1
M  END
>  <CHROM.1>
-64.98996265,32.46599799,-108.72109295,-172.12679982,179.16794670,64.84146124
24.21248840,40.46667747,65.97700248,3.06793075,0.12650994,2.65029204

>  <Name>
ligand

>  <RI>
0

>  <Rbt.Current_Directory>
/home/itssahil/PROJECTS/Mol_Feturizer/New_Systems/rnas/2HOL

>  <Rbt.Executable>
rbdock ($Id: //depot/dev/client3/rdock/2013.1/src/exe/rbdock.cxx#4 $)

>  <Rbt.Library>
libRbt.so (2013.1, Build901 2013/11/27)

>  <Rbt.Parameter_File>
/export/apps/rDock/src/rDock_2013.1_src/data/scripts/dock_solv.prm

>  <Rbt.Receptor>
prm/pocket_docking_7.prm

>  <SCORE>
-18.7061

>  <SCORE.INTER>
-15.9847

>  <SCORE.INTER.CONST>
1

>  <SCORE.INTER.POLAR>
0

>  <SCORE.INTER.ROT>
6

>  <SCORE.INTER.SOLV>
16.7713

>  <SCORE.INTER.VDW>
-23.8469

>  <SCORE.INTER.norm>
-0.614794

>  <SCORE.INTRA>
-2.72145

>  <SCORE.INTRA.DIHEDRAL>
-4.44875

>  <SCORE.INTRA.DIHEDRAL.0>
9.33621

>  <SCORE.INTRA.POLAR>
0

>  <SCORE.INTRA.POLAR.0>
0

>  <SCORE.INTRA.REPUL>
0

>  <SCORE.INTRA.REPUL.0>
0

>  <SCORE.INTRA.SOLV>
-0.218739

>  <SCORE.INTRA.SOLV.lig_0>
-65.9238

>  <SCORE.INTRA.VDW>
-0.387707

>  <SCORE.INTRA.VDW.0>
-0.405582

>  <SCORE.INTRA.norm>
-0.104671

>  <SCORE.RESTR>
0

>  <SCORE.RESTR.CAVITY>
0

>  <SCORE.RESTR.norm>
0

>  <SCORE.SYSTEM>
0

>  <SCORE.SYSTEM.CONST>
0

>  <SCORE.SYSTEM.DIHEDRAL>
0

>  <SCORE.SYSTEM.SOLV>
0

>  <SCORE.SYSTEM.norm>
0

>  <SCORE.heavy>
26

>  <SCORE.norm>
-0.719465

>  <RMSD>
2.004

$$$$
ligand
 OpenBabel11021811443D
libRbt.so/2013.1/901 2013/11/27
 26 28  0  0  0  0  0  0  0  0999 V2000
   15.8512   39.5586   63.5900 C   0  0  0  0  0  0  0  0  0  0  0  0
   22.9230   40.5064   64.9968 C   0  0  0  0  0  0  0  0  0  0  0  0
   26.7504   40.3267   67.5907 P   0  0  1  0  0  0  0  0  0  0  0  0
   28.8203   41.6269   66.7472 P   0  0  1  0  0  0  0  0  0  0  0  0
   20.5690   40.9559   66.4549 C   0  0  0  0  0  0  0  0  0  0  0  0
   18.9257   39.2696   65.5789 C   0  0  0  0  0  0  0  0  0  0  0  0
   19.3201   40.5875   65.6963 C   0  0  0  0  0  0  0  0  0  0  0  0
   18.5322   41.5703   65.0946 C   0  0  0  0  0  0  0  0  0  0  0  0
   18.8853   42.9086   65.1830 N   0  0  0  0  0  0  0  0  0  0  0  0
   17.4404   41.2038   64.4298 N   0  0  0  0  0  0  0  0  0  0  0  0
   17.0984   39.9345   64.3467 C   0  0  0  0  0  0  0  0  0  0  0  0
   17.8210   38.9822   64.9035 N   0  0  0  0  0  0  0  0  0  0  0  0
   26.8496   39.4813   68.8020 O   0  0  0  0  0  0  0  0  0  0  0  0
   28.2458   42.4720   67.9065 O   0  0  0  0  0  0  0  0  0  0  0  0
   22.1577   37.6746   67.5924 S   0  0  0  0  0  0  0  0  0  0  0  0
   20.9315   38.9040   67.6400 C   0  0  0  0  0  0  0  0  0  0  0  0
   26.5473   41.8629   68.0227 O   0  0  0  0  0  0  0  0  0  0  0  0
   30.4048   41.4351   66.9544 O   0  5  0  0  0  0  0  0  0  0  0  0
   21.3510   39.7475   66.7254 N   0  0  0  0  0  0  0  0  0  0  0  0
   28.1022   40.1859   66.7267 O   0  0  0  0  0  0  0  0  0  0  0  0
   28.5608   42.3507   65.4069 O   0  0  0  0  0  0  0  0  0  0  0  0
   22.4551   39.5287   66.0451 C   0  0  2  0  0  0  0  0  0  0  0  0
   23.1687   38.4056   66.3136 C   0  0  2  0  0  0  0  0  0  0  0  0
   24.4530   37.9113   65.7011 C   0  0  0  0  0  0  0  0  0  0  0  0
   25.6417   38.4398   66.5071 C   0  0  0  0  0  0  0  0  0  0  0  0
   25.4956   39.8479   66.7023 O   0  0  0  0  0  0  0  0  0  0  0  0
  1 11  1  0  0  0  0
  3 13  1  1  0  0  0
  3 17  1  0  0  0  0
  3 20  1  0  0  0  0
  3 26  1  0  0  0  0
  4 14  1  0  0  0  0
  4 18  1  1  0  0  0
  4 21  2  0  0  0  0
  4 20  1  0  0  0  0
  5 19  1  0  0  0  0
  5  7  1  0  0  0  0
  6  7  2  0  0  0  0
  6 12  1  0  0  0  0
  7  8  1  0  0  0  0
  8  9  1  0  0  0  0
  8 10  2  0  0  0  0
 10 11  1  0  0  0  0
 11 12  2  0  0  0  0
 14 17  1  0  0  0  0
 15 23  1  0  0  0  0
 15 16  1  0  0  0  0
 16 19  1  0  0  0  0
 19 22  1  0  0  0  0
 22  2  1  1  0  0  0
 22 23  1  0  0  0  0
 23 24  1  6  0  0  0
 24 25  1  0  0  0  0
 25 26  1  0  0  0  0
M  CHG  1  18  -1
M  END
>  <CHROM.1>
-73.47356212,12.32888020,-89.19886715,-49.46318309,178.31303174,-52.12563560
23.56718357,40.21403406,66.39144703,3.12239064,0.22294476,2.76402031

>  <Name>
ligand

>  <RI>
0

>  <Rbt.Current_Directory>
/home/itssahil/PROJECTS/Mol_Feturizer/New_Systems/rnas/2HOL

>  <Rbt.Executable>
rbdock ($Id: //depot/dev/client3/rdock/2013.1/src/exe/rbdock.cxx#4 $)

>  <Rbt.Library>
libRbt.so (2013.1, Build901 2013/11/27)

>  <Rbt.Parameter_File>
/export/apps/rDock/src/rDock_2013.1_src/data/scripts/dock_solv.prm

>  <Rbt.Receptor>
prm/pocket_docking_4.prm

>  <SCORE>
-21.8375

>  <SCORE.INTER>
-18.7093

>  <SCORE.INTER.CONST>
1

>  <SCORE.INTER.POLAR>
0

>  <SCORE.INTER.ROT>
6

>  <SCORE.INTER.SOLV>
17.3197

>  <SCORE.INTER.VDW>
-25.8461

>  <SCORE.INTER.norm>
-0.719589

>  <SCORE.INTRA>
-3.12818

>  <SCORE.INTRA.DIHEDRAL>
-3.93304

>  <SCORE.INTRA.DIHEDRAL.0>
9.33621

>  <SCORE.INTRA.POLAR>
0

>  <SCORE.INTRA.POLAR.0>
0

>  <SCORE.INTRA.REPUL>
0

>  <SCORE.INTRA.REPUL.0>
0

>  <SCORE.INTRA.SOLV>
-0.0448012

>  <SCORE.INTRA.SOLV.lig_0>
-65.9238

>  <SCORE.INTRA.VDW>
-1.13926

>  <SCORE.INTRA.VDW.0>
-0.405582

>  <SCORE.INTRA.norm>
-0.120314

>  <SCORE.RESTR>
0

>  <SCORE.RESTR.CAVITY>
0

>  <SCORE.RESTR.norm>
0

>  <SCORE.SYSTEM>
0

>  <SCORE.SYSTEM.CONST>
0

>  <SCORE.SYSTEM.DIHEDRAL>
0

>  <SCORE.SYSTEM.SOLV>
0

>  <SCORE.SYSTEM.norm>
0

>  <SCORE.heavy>
26

>  <SCORE.norm>
-0.839904

>  <RMSD>
2.040

$$$$
ligand
 OpenBabel11021811443D
libRbt.so/2013.1/901 2013/11/27
 26 28  0  0  0  0  0  0  0  0999 V2000
   16.0555   39.4993   63.9403 C   0  0  0  0  0  0  0  0  0  0  0  0
   22.8832   39.9127   64.8291 C   0  0  0  0  0  0  0  0  0  0  0  0
   27.0891   40.3946   66.5921 P   0  0  1  0  0  0  0  0  0  0  0  0
   29.0486   38.7828   67.0914 P   0  0  1  0  0  0  0  0  0  0  0  0
   20.9914   41.8743   65.4945 C   0  0  0  0  0  0  0  0  0  0  0  0
   19.6040   39.8978   64.8014 C   0  0  0  0  0  0  0  0  0  0  0  0
   19.6843   41.2470   65.0832 C   0  0  0  0  0  0  0  0  0  0  0  0
   18.5236   42.0154   64.9777 C   0  0  0  0  0  0  0  0  0  0  0  0
   18.5515   43.3752   65.2494 N   0  0  0  0  0  0  0  0  0  0  0  0
   17.3912   41.4253   64.6069 N   0  0  0  0  0  0  0  0  0  0  0  0
   17.3586   40.1334   64.3520 C   0  0  0  0  0  0  0  0  0  0  0  0
   18.4371   39.3798   64.4421 N   0  0  0  0  0  0  0  0  0  0  0  0
   27.3596   41.8185   66.2904 O   0  0  0  0  0  0  0  0  0  0  0  0
   29.0005   38.9104   65.5520 O   0  0  0  0  0  0  0  0  0  0  0  0
   22.2069   40.1530   68.6797 S   0  0  0  0  0  0  0  0  0  0  0  0
   21.2413   41.3055   67.8097 C   0  0  0  0  0  0  0  0  0  0  0  0
   27.3193   39.5116   65.2673 O   0  0  0  0  0  0  0  0  0  0  0  0
   30.5582   39.0051   67.6033 O   0  5  0  0  0  0  0  0  0  0  0  0
   21.5981   41.0815   66.5662 N   0  0  0  0  0  0  0  0  0  0  0  0
   28.0877   39.8933   67.7519 O   0  0  0  0  0  0  0  0  0  0  0  0
   28.5674   37.3739   67.5049 O   0  0  0  0  0  0  0  0  0  0  0  0
   22.4849   40.1590   66.2625 C   0  0  2  0  0  0  0  0  0  0  0  0
   23.0396   39.4380   67.2699 C   0  0  2  0  0  0  0  0  0  0  0  0
   24.0678   38.3387   67.2146 C   0  0  0  0  0  0  0  0  0  0  0  0
   25.4393   38.9002   67.5962 C   0  0  0  0  0  0  0  0  0  0  0  0
   25.5664   40.2303   67.0896 O   0  0  0  0  0  0  0  0  0  0  0  0
  1 11  1  0  0  0  0
  3 13  1  6  0  0  0
  3 17  1  0  0  0  0
  3 20  1  0  0  0  0
  3 26  1  0  0  0  0
  4 14  1  0  0  0  0
  4 18  1  1  0  0  0
  4 21  2  0  0  0  0
  4 20  1  0  0  0  0
  5 19  1  0  0  0  0
  5  7  1  0  0  0  0
  6  7  2  0  0  0  0
  6 12  1  0  0  0  0
  7  8  1  0  0  0  0
  8  9  1  0  0  0  0
  8 10  2  0  0  0  0
 10 11  1  0  0  0  0
 11 12  2  0  0  0  0
 14 17  1  0  0  0  0
 15 23  1  0  0  0  0
 15 16  1  0  0  0  0
 16 19  1  0  0  0  0
 19 22  1  0  0  0  0
 22  2  1  1  0  0  0
 22 23  1  0  0  0  0
 23 24  1  6  0  0  0
 24 25  1  0  0  0  0
 25 26  1  0  0  0  0
M  CHG  1  18  -1
M  END
>  <CHROM.1>
-85.18515764,-49.39366056,-78.86636870,-36.20083811,-142.03212455,-169.50247337
23.75880405,40.07205735,66.33832227,-3.03833206,-0.22241242,1.15019893

>  <Name>
ligand

>  <RI>
0

>  <Rbt.Current_Directory>
/home/itssahil/PROJECTS/Mol_Feturizer/New_Systems/rnas/2HOL

>  <Rbt.Executable>
rbdock ($Id: //depot/dev/client3/rdock/2013.1/src/exe/rbdock.cxx#4 $)

>  <Rbt.Library>
libRbt.so (2013.1, Build901 2013/11/27)

>  <Rbt.Parameter_File>
/export/apps/rDock/src/rDock_2013.1_src/data/scripts/dock_solv.prm

>  <Rbt.Receptor>
prm/pocket_docking_2.prm

>  <SCORE>
-8.40348

>  <SCORE.INTER>
-9.10002

>  <SCORE.INTER.CONST>
1

>  <SCORE.INTER.POLAR>
0

>  <SCORE.INTER.ROT>
6

>  <SCORE.INTER.SOLV>
22.0409

>  <SCORE.INTER.VDW>
-21.0136

>  <SCORE.INTER.norm>
-0.350001

>  <SCORE.INTRA>
-0.388562

>  <SCORE.INTRA.DIHEDRAL>
2.8071

>  <SCORE.INTRA.DIHEDRAL.0>
9.33621

>  <SCORE.INTRA.POLAR>
0

>  <SCORE.INTRA.POLAR.0>
0

>  <SCORE.INTRA.REPUL>
0

>  <SCORE.INTRA.REPUL.0>
0

>  <SCORE.INTRA.SOLV>
0.603395

>  <SCORE.INTRA.SOLV.lig_0>
-65.9238

>  <SCORE.INTRA.VDW>
-2.09381

>  <SCORE.INTRA.VDW.0>
-0.405582

>  <SCORE.INTRA.norm>
-0.0149447

>  <SCORE.RESTR>
1.0851

>  <SCORE.RESTR.CAVITY>
1.0851

>  <SCORE.RESTR.norm>
0.0417347

>  <SCORE.SYSTEM>
0

>  <SCORE.SYSTEM.CONST>
0

>  <SCORE.SYSTEM.DIHEDRAL>
0

>  <SCORE.SYSTEM.SOLV>
0

>  <SCORE.SYSTEM.norm>
0

>  <SCORE.heavy>
26

>  <SCORE.norm>
-0.323211

>  <RMSD>
2.133

$$$$
ligand
 OpenBabel11021811443D
libRbt.so/2013.1/901 2013/11/27
 26 28  0  0  0  0  0  0  0  0999 V2000
   16.2693   39.7946   63.7157 C   0  0  0  0  0  0  0  0  0  0  0  0
   21.8782   38.5389   66.9986 C   0  0  0  0  0  0  0  0  0  0  0  0
   27.4319   38.5129   67.6716 P   0  0  1  0  0  0  0  0  0  0  0  0
   29.0833   40.4961   67.5096 P   0  0  1  0  0  0  0  0  0  0  0  0
   20.8554   41.1442   66.8084 C   0  0  0  0  0  0  0  0  0  0  0  0
   19.0854   39.5265   66.0588 C   0  0  0  0  0  0  0  0  0  0  0  0
   19.6416   40.7883   65.9892 C   0  0  0  0  0  0  0  0  0  0  0  0
   19.0507   41.7263   65.1408 C   0  0  0  0  0  0  0  0  0  0  0  0
   19.5715   43.0073   65.0347 N   0  0  0  0  0  0  0  0  0  0  0  0
   17.9837   41.3716   64.4309 N   0  0  0  0  0  0  0  0  0  0  0  0
   17.4826   40.1575   64.5315 C   0  0  0  0  0  0  0  0  0  0  0  0
   18.0173   39.2485   65.3232 N   0  0  0  0  0  0  0  0  0  0  0  0
   27.9423   37.1234   67.6893 O   0  0  0  0  0  0  0  0  0  0  0  0
   29.0993   40.0654   68.9937 O   0  0  0  0  0  0  0  0  0  0  0  0
   23.9979   40.8557   64.6574 S   0  0  0  0  0  0  0  0  0  0  0  0
   22.6462   41.7203   65.3227 C   0  0  0  0  0  0  0  0  0  0  0  0
   27.5491   39.1472   69.1453 O   0  0  0  0  0  0  0  0  0  0  0  0
   30.5943   40.6339   66.9726 O   0  5  0  0  0  0  0  0  0  0  0  0
   22.0673   40.8016   66.0607 N   0  0  0  0  0  0  0  0  0  0  0  0
   28.3016   39.3904   66.6385 O   0  0  0  0  0  0  0  0  0  0  0  0
   28.3645   41.8577   67.3781 O   0  0  0  0  0  0  0  0  0  0  0  0
   22.5540   39.5827   66.1456 C   0  0  2  0  0  0  0  0  0  0  0  0
   23.6750   39.2831   65.4414 C   0  0  2  0  0  0  0  0  0  0  0  0
   24.4370   37.9870   65.3496 C   0  0  0  0  0  0  0  0  0  0  0  0
   25.8792   38.2066   65.8118 C   0  0  0  0  0  0  0  0  0  0  0  0
   25.8899   38.5133   67.2074 O   0  0  0  0  0  0  0  0  0  0  0  0
  1 11  1  0  0  0  0
  3 13  1  1  0  0  0
  3 17  1  0  0  0  0
  3 20  1  0  0  0  0
  3 26  1  0  0  0  0
  4 14  1  0  0  0  0
  4 18  1  6  0  0  0
  4 21  2  0  0  0  0
  4 20  1  0  0  0  0
  5 19  1  0  0  0  0
  5  7  1  0  0  0  0
  6  7  2  0  0  0  0
  6 12  1  0  0  0  0
  7  8  1  0  0  0  0
  8  9  1  0  0  0  0
  8 10  2  0  0  0  0
 10 11  1  0  0  0  0
 11 12  2  0  0  0  0
 14 17  1  0  0  0  0
 15 23  1  0  0  0  0
 15 16  1  0  0  0  0
 16 19  1  0  0  0  0
 19 22  1  0  0  0  0
 22  2  1  6  0  0  0
 22 23  1  0  0  0  0
 23 24  1  1  0  0  0
 24 25  1  0  0  0  0
 25 26  1  0  0  0  0
M  CHG  1  18  -1
M  END
>  <CHROM.1>
93.62067802,88.16902545,58.54287470,66.67286265,171.69615375,-71.68976783
24.08602004,39.94626614,66.34315447,2.99117863,-0.23164894,-0.21954999

>  <Name>
ligand

>  <RI>
0

>  <Rbt.Current_Directory>
/home/itssahil/PROJECTS/Mol_Feturizer/New_Systems/rnas/2HOL

>  <Rbt.Executable>
rbdock ($Id: //depot/dev/client3/rdock/2013.1/src/exe/rbdock.cxx#4 $)

>  <Rbt.Library>
libRbt.so (2013.1, Build901 2013/11/27)

>  <Rbt.Parameter_File>
/export/apps/rDock/src/rDock_2013.1_src/data/scripts/dock_solv.prm

>  <Rbt.Receptor>
prm/pocket_docking_5.prm

>  <SCORE>
-21.1189

>  <SCORE.INTER>
-18.0078

>  <SCORE.INTER.CONST>
1

>  <SCORE.INTER.POLAR>
0

>  <SCORE.INTER.ROT>
6

>  <SCORE.INTER.SOLV>
17.4723

>  <SCORE.INTER.VDW>
-25.4293

>  <SCORE.INTER.norm>
-0.692609

>  <SCORE.INTRA>
-3.11379

>  <SCORE.INTRA.DIHEDRAL>
-3.44837

>  <SCORE.INTRA.DIHEDRAL.0>
9.33621

>  <SCORE.INTRA.POLAR>
0

>  <SCORE.INTRA.POLAR.0>
0

>  <SCORE.INTRA.REPUL>
0

>  <SCORE.INTRA.REPUL.0>
0

>  <SCORE.INTRA.SOLV>
0.66728

>  <SCORE.INTRA.SOLV.lig_0>
-65.9238

>  <SCORE.INTRA.VDW>
-1.72325

>  <SCORE.INTRA.VDW.0>
-0.405582

>  <SCORE.INTRA.norm>
-0.119761

>  <SCORE.RESTR>
0.00270398

>  <SCORE.RESTR.CAVITY>
0.00270398

>  <SCORE.RESTR.norm>
0.000103999

>  <SCORE.SYSTEM>
0

>  <SCORE.SYSTEM.CONST>
0

>  <SCORE.SYSTEM.DIHEDRAL>
0

>  <SCORE.SYSTEM.SOLV>
0

>  <SCORE.SYSTEM.norm>
0

>  <SCORE.heavy>
26

>  <SCORE.norm>
-0.812266

>  <RMSD>
2.136

$$$$
ligand
 OpenBabel11021811443D
libRbt.so/2013.1/901 2013/11/27
 26 28  0  0  0  0  0  0  0  0999 V2000
   16.6680   40.6031   63.9587 C   0  0  0  0  0  0  0  0  0  0  0  0
   22.2899   38.9755   67.0823 C   0  0  0  0  0  0  0  0  0  0  0  0
   27.4980   40.0193   66.4176 P   0  0  1  0  0  0  0  0  0  0  0  0
   29.1179   39.4942   68.3635 P   0  0  1  0  0  0  0  0  0  0  0  0
   21.5233   41.6524   66.7414 C   0  0  0  0  0  0  0  0  0  0  0  0
   19.9063   40.0936   65.6158 C   0  0  0  0  0  0  0  0  0  0  0  0
   20.2379   41.3762   66.0049 C   0  0  0  0  0  0  0  0  0  0  0  0
   19.3519   42.4106   65.6989 C   0  0  0  0  0  0  0  0  0  0  0  0
   19.6390   43.7165   66.0673 N   0  0  0  0  0  0  0  0  0  0  0  0
   18.2304   42.1262   65.0434 N   0  0  0  0  0  0  0  0  0  0  0  0
   17.9512   40.8869   64.6952 C   0  0  0  0  0  0  0  0  0  0  0  0
   18.7669   39.8876   64.9689 N   0  0  0  0  0  0  0  0  0  0  0  0
   26.5899   41.1853   66.5037 O   0  0  0  0  0  0  0  0  0  0  0  0
   29.7952   40.6242   67.5557 O   0  0  0  0  0  0  0  0  0  0  0  0
   24.4990   40.8872   64.4731 S   0  0  0  0  0  0  0  0  0  0  0  0
   23.2787   41.9325   65.1332 C   0  0  0  0  0  0  0  0  0  0  0  0
   28.9592   40.5092   65.9565 O   0  0  0  0  0  0  0  0  0  0  0  0
   29.1240   39.8725   69.9279 O   0  5  0  0  0  0  0  0  0  0  0  0
   22.6522   41.1337   65.9659 N   0  0  0  0  0  0  0  0  0  0  0  0
   27.5994   39.3110   67.8604 O   0  0  0  0  0  0  0  0  0  0  0  0
   29.8937   38.1750   68.1503 O   0  0  0  0  0  0  0  0  0  0  0  0
   23.0188   39.8801   66.1208 C   0  0  2  0  0  0  0  0  0  0  0  0
   24.0641   39.4165   65.3896 C   0  0  2  0  0  0  0  0  0  0  0  0
   24.6868   38.0453   65.3615 C   0  0  0  0  0  0  0  0  0  0  0  0
   26.0491   38.0868   66.0574 C   0  0  0  0  0  0  0  0  0  0  0  0
   26.9208   38.9665   65.3444 O   0  0  0  0  0  0  0  0  0  0  0  0
  1 11  1  0  0  0  0
  3 13  1  1  0  0  0
  3 17  1  0  0  0  0
  3 20  1  0  0  0  0
  3 26  1  0  0  0  0
  4 14  1  0  0  0  0
  4 18  1  1  0  0  0
  4 21  2  0  0  0  0
  4 20  1  0  0  0  0
  5 19  1  0  0  0  0
  5  7  1  0  0  0  0
  6  7  2  0  0  0  0
  6 12  1  0  0  0  0
  7  8  1  0  0  0  0
  8  9  1  0  0  0  0
  8 10  2  0  0  0  0
 10 11  1  0  0  0  0
 11 12  2  0  0  0  0
 14 17  1  0  0  0  0
 15 23  1  0  0  0  0
 15 16  1  0  0  0  0
 16 19  1  0  0  0  0
 19 22  1  0  0  0  0
 22  2  1  6  0  0  0
 22 23  1  0  0  0  0
 23 24  1  1  0  0  0
 24 25  1  0  0  0  0
 25 26  1  0  0  0  0
M  CHG  1  18  -1
M  END
>  <CHROM.1>
93.18183131,54.99051624,72.34867437,-62.49191013,127.03527541,-89.06670661
24.40183585,40.29270150,66.25412284,3.07459197,-0.28723238,0.38357802

>  <Name>
ligand

>  <RI>
0

>  <Rbt.Current_Directory>
/home/itssahil/PROJECTS/Mol_Feturizer/New_Systems/rnas/2HOL

>  <Rbt.Executable>
rbdock ($Id: //depot/dev/client3/rdock/2013.1/src/exe/rbdock.cxx#4 $)

>  <Rbt.Library>
libRbt.so (2013.1, Build901 2013/11/27)

>  <Rbt.Parameter_File>
/export/apps/rDock/src/rDock_2013.1_src/data/scripts/dock_solv.prm

>  <Rbt.Receptor>
prm/pocket_docking_2.prm

>  <SCORE>
-12.184

>  <SCORE.INTER>
-13.4882

>  <SCORE.INTER.CONST>
1

>  <SCORE.INTER.POLAR>
0

>  <SCORE.INTER.ROT>
6

>  <SCORE.INTER.SOLV>
20.7841

>  <SCORE.INTER.VDW>
-23.5202

>  <SCORE.INTER.norm>
-0.518778

>  <SCORE.INTRA>
0.658995

>  <SCORE.INTRA.DIHEDRAL>
3.88792

>  <SCORE.INTRA.DIHEDRAL.0>
9.33621

>  <SCORE.INTRA.POLAR>
0

>  <SCORE.INTRA.POLAR.0>
0

>  <SCORE.INTRA.REPUL>
0

>  <SCORE.INTRA.REPUL.0>
0

>  <SCORE.INTRA.SOLV>
0.650153

>  <SCORE.INTRA.SOLV.lig_0>
-65.9238

>  <SCORE.INTRA.VDW>
-1.61004

>  <SCORE.INTRA.VDW.0>
-0.405582

>  <SCORE.INTRA.norm>
0.0253459

>  <SCORE.RESTR>
0.64521

>  <SCORE.RESTR.CAVITY>
0.64521

>  <SCORE.RESTR.norm>
0.0248158

>  <SCORE.SYSTEM>
0

>  <SCORE.SYSTEM.CONST>
0

>  <SCORE.SYSTEM.DIHEDRAL>
0

>  <SCORE.SYSTEM.SOLV>
0

>  <SCORE.SYSTEM.norm>
0

>  <SCORE.heavy>
26

>  <SCORE.norm>
-0.468616

>  <RMSD>
2.166

$$$$
ligand
 OpenBabel11021811443D
libRbt.so/2013.1/901 2013/11/27
 26 28  0  0  0  0  0  0  0  0999 V2000
   16.5641   39.6092   63.9461 C   0  0  0  0  0  0  0  0  0  0  0  0
   23.8258   41.2255   66.1028 C   0  0  0  0  0  0  0  0  0  0  0  0
   27.7502   38.7606   65.5721 P   0  0  1  0  0  0  0  0  0  0  0  0
   29.2937   40.2005   67.0657 P   0  0  1  0  0  0  0  0  0  0  0  0
   21.1161   41.6195   66.7130 C   0  0  0  0  0  0  0  0  0  0  0  0
   19.6140   39.7404   65.9889 C   0  0  0  0  0  0  0  0  0  0  0  0
   19.9110   41.0887   65.9802 C   0  0  0  0  0  0  0  0  0  0  0  0
   19.0662   41.9481   65.2755 C   0  0  0  0  0  0  0  0  0  0  0  0
   19.3211   43.3108   65.2355 N   0  0  0  0  0  0  0  0  0  0  0  0
   18.0159   41.4399   64.6377 N   0  0  0  0  0  0  0  0  0  0  0  0
   17.7670   40.1469   64.6763 C   0  0  0  0  0  0  0  0  0  0  0  0
   18.5453   39.3087   65.3325 N   0  0  0  0  0  0  0  0  0  0  0  0
   27.3513   39.2476   64.2322 O   0  0  0  0  0  0  0  0  0  0  0  0
   30.2318   39.4976   66.0586 O   0  0  0  0  0  0  0  0  0  0  0  0
   22.4257   38.5995   68.6496 S   0  0  0  0  0  0  0  0  0  0  0  0
   21.1887   39.7249   68.1798 C   0  0  0  0  0  0  0  0  0  0  0  0
   29.2195   38.1106   65.4922 O   0  0  0  0  0  0  0  0  0  0  0  0
   29.6331   41.7731   67.1106 O   0  5  0  0  0  0  0  0  0  0  0  0
   21.8315   40.5091   67.3458 N   0  0  0  0  0  0  0  0  0  0  0  0
   27.7638   39.9933   66.6084 O   0  0  0  0  0  0  0  0  0  0  0  0
   29.4985   39.5898   68.4702 O   0  0  0  0  0  0  0  0  0  0  0  0
   23.1017   40.3168   67.0639 C   0  0  2  0  0  0  0  0  0  0  0  0
   23.7487   39.2855   67.6642 C   0  0  2  0  0  0  0  0  0  0  0  0
   25.1818   38.8407   67.5330 C   0  0  0  0  0  0  0  0  0  0  0  0
   25.4196   38.2866   66.1264 C   0  0  0  0  0  0  0  0  0  0  0  0
   26.6981   37.6503   66.0757 O   0  0  0  0  0  0  0  0  0  0  0  0
  1 11  1  0  0  0  0
  3 13  1  6  0  0  0
  3 17  1  0  0  0  0
  3 20  1  0  0  0  0
  3 26  1  0  0  0  0
  4 14  1  0  0  0  0
  4 18  1  1  0  0  0
  4 21  2  0  0  0  0
  4 20  1  0  0  0  0
  5 19  1  0  0  0  0
  5  7  1  0  0  0  0
  6  7  2  0  0  0  0
  6 12  1  0  0  0  0
  7  8  1  0  0  0  0
  8  9  1  0  0  0  0
  8 10  2  0  0  0  0
 10 11  1  0  0  0  0
 11 12  2  0  0  0  0
 14 17  1  0  0  0  0
 15 23  1  0  0  0  0
 15 16  1  0  0  0  0
 16 19  1  0  0  0  0
 19 22  1  0  0  0  0
 22  2  1  1  0  0  0
 22 23  1  0  0  0  0
 23 24  1  6  0  0  0
 24 25  1  0  0  0  0
 25 26  1  0  0  0  0
M  CHG  1  18  -1
M  END
>  <CHROM.1>
-56.35236059,0.81390490,111.78585229,-169.74713400,-92.74318309,-59.96139345
24.21513656,39.86304568,66.37081352,-2.99860422,-0.03465851,2.22279735

>  <Name>
ligand

>  <RI>
0

>  <Rbt.Current_Directory>
/home/itssahil/PROJECTS/Mol_Feturizer/New_Systems/rnas/2HOL

>  <Rbt.Executable>
rbdock ($Id: //depot/dev/client3/rdock/2013.1/src/exe/rbdock.cxx#4 $)

>  <Rbt.Library>
libRbt.so (2013.1, Build901 2013/11/27)

>  <Rbt.Parameter_File>
/export/apps/rDock/src/rDock_2013.1_src/data/scripts/dock_solv.prm

>  <Rbt.Receptor>
prm/pocket_docking_3.prm

>  <SCORE>
-16.0082

>  <SCORE.INTER>
-16.4241

>  <SCORE.INTER.CONST>
1

>  <SCORE.INTER.POLAR>
0

>  <SCORE.INTER.ROT>
6

>  <SCORE.INTER.SOLV>
19.6058

>  <SCORE.INTER.VDW>
-25.0846

>  <SCORE.INTER.norm>
-0.631695

>  <SCORE.INTRA>
0.221317

>  <SCORE.INTRA.DIHEDRAL>
-0.249246

>  <SCORE.INTRA.DIHEDRAL.0>
9.33621

>  <SCORE.INTRA.POLAR>
0

>  <SCORE.INTRA.POLAR.0>
0

>  <SCORE.INTRA.REPUL>
0

>  <SCORE.INTRA.REPUL.0>
0

>  <SCORE.INTRA.SOLV>
0.294477

>  <SCORE.INTRA.SOLV.lig_0>
-65.9238

>  <SCORE.INTRA.VDW>
0.198702

>  <SCORE.INTRA.VDW.0>
-0.405582

>  <SCORE.INTRA.norm>
0.0085122

>  <SCORE.RESTR>
0.194532

>  <SCORE.RESTR.CAVITY>
0.194532

>  <SCORE.RESTR.norm>
0.00748201

>  <SCORE.SYSTEM>
0

>  <SCORE.SYSTEM.CONST>
0

>  <SCORE.SYSTEM.DIHEDRAL>
0

>  <SCORE.SYSTEM.SOLV>
0

>  <SCORE.SYSTEM.norm>
0

>  <SCORE.heavy>
26

>  <SCORE.norm>
-0.615701

>  <RMSD>
2.212

$$$$
ligand
 OpenBabel11021811443D
libRbt.so/2013.1/901 2013/11/27
 26 28  0  0  0  0  0  0  0  0999 V2000
   16.6272   39.8112   63.9514 C   0  0  0  0  0  0  0  0  0  0  0  0
   23.6464   40.9727   65.4654 C   0  0  0  0  0  0  0  0  0  0  0  0
   28.0472   38.7192   67.9754 P   0  0  1  0  0  0  0  0  0  0  0  0
   27.3682   41.2118   68.0866 P   0  0  1  0  0  0  0  0  0  0  0  0
   21.2372   41.7342   66.6842 C   0  0  0  0  0  0  0  0  0  0  0  0
   19.7731   39.8723   65.8466 C   0  0  0  0  0  0  0  0  0  0  0  0
   20.0166   41.2266   65.9605 C   0  0  0  0  0  0  0  0  0  0  0  0
   19.1032   42.1139   65.3886 C   0  0  0  0  0  0  0  0  0  0  0  0
   19.3026   43.4836   65.4749 N   0  0  0  0  0  0  0  0  0  0  0  0
   18.0413   41.6260   64.7542 N   0  0  0  0  0  0  0  0  0  0  0  0
   17.8451   40.3260   64.6732 C   0  0  0  0  0  0  0  0  0  0  0  0
   18.6889   39.4616   65.2024 N   0  0  0  0  0  0  0  0  0  0  0  0
   29.4552   38.3460   67.7114 O   0  0  0  0  0  0  0  0  0  0  0  0
   27.9911   40.8915   69.4641 O   0  0  0  0  0  0  0  0  0  0  0  0
   22.7138   38.7475   68.5509 S   0  0  0  0  0  0  0  0  0  0  0  0
   21.5089   39.9700   68.2841 C   0  0  0  0  0  0  0  0  0  0  0  0
   27.8719   39.0886   69.5313 O   0  0  0  0  0  0  0  0  0  0  0  0
   28.0211   42.5614   67.5010 O   0  5  0  0  0  0  0  0  0  0  0  0
   21.9844   40.6019   67.2360 N   0  0  0  0  0  0  0  0  0  0  0  0
   27.6521   39.9933   67.0731 O   0  0  0  0  0  0  0  0  0  0  0  0
   25.8433   41.4050   68.2453 O   0  0  0  0  0  0  0  0  0  0  0  0
   23.1141   40.2377   66.6696 C   0  0  2  0  0  0  0  0  0  0  0  0
   23.7946   39.1890   67.1985 C   0  0  2  0  0  0  0  0  0  0  0  0
   25.0962   38.5680   66.7640 C   0  0  0  0  0  0  0  0  0  0  0  0
   25.7563   37.8737   67.9575 C   0  0  0  0  0  0  0  0  0  0  0  0
   27.0847   37.4825   67.6050 O   0  0  0  0  0  0  0  0  0  0  0  0
  1 11  1  0  0  0  0
  3 13  1  6  0  0  0
  3 17  1  0  0  0  0
  3 20  1  0  0  0  0
  3 26  1  0  0  0  0
  4 14  1  0  0  0  0
  4 18  1  6  0  0  0
  4 21  2  0  0  0  0
  4 20  1  0  0  0  0
  5 19  1  0  0  0  0
  5  7  1  0  0  0  0
  6  7  2  0  0  0  0
  6 12  1  0  0  0  0
  7  8  1  0  0  0  0
  8  9  1  0  0  0  0
  8 10  2  0  0  0  0
 10 11  1  0  0  0  0
 11 12  2  0  0  0  0
 14 17  1  0  0  0  0
 15 23  1  0  0  0  0
 15 16  1  0  0  0  0
 16 19  1  0  0  0  0
 19 22  1  0  0  0  0
 22  2  1  1  0  0  0
 22 23  1  0  0  0  0
 23 24  1  6  0  0  0
 24 25  1  0  0  0  0
 25 26  1  0  0  0  0
M  CHG  1  18  -1
M  END
>  <CHROM.1>
-73.40520750,-2.62250032,-25.22557588,-170.33493221,89.53512421,176.51847679
23.90909818,40.11455996,67.10992800,2.97498473,-0.28608931,-0.12401759

>  <Name>
ligand

>  <RI>
0

>  <Rbt.Current_Directory>
/home/itssahil/PROJECTS/Mol_Feturizer/New_Systems/rnas/2HOL

>  <Rbt.Executable>
rbdock ($Id: //depot/dev/client3/rdock/2013.1/src/exe/rbdock.cxx#4 $)

>  <Rbt.Library>
libRbt.so (2013.1, Build901 2013/11/27)

>  <Rbt.Parameter_File>
/export/apps/rDock/src/rDock_2013.1_src/data/scripts/dock_solv.prm

>  <Rbt.Receptor>
prm/pocket_docking_3.prm

>  <SCORE>
-18.4327

>  <SCORE.INTER>
-17.3502

>  <SCORE.INTER.CONST>
1

>  <SCORE.INTER.POLAR>
0

>  <SCORE.INTER.ROT>
6

>  <SCORE.INTER.SOLV>
17.3295

>  <SCORE.INTER.VDW>
-24.9433

>  <SCORE.INTER.norm>
-0.667317

>  <SCORE.INTRA>
-1.08249

>  <SCORE.INTRA.DIHEDRAL>
-0.687023

>  <SCORE.INTRA.DIHEDRAL.0>
9.33621

>  <SCORE.INTRA.POLAR>
0

>  <SCORE.INTRA.POLAR.0>
0

>  <SCORE.INTRA.REPUL>
0

>  <SCORE.INTRA.REPUL.0>
0

>  <SCORE.INTRA.SOLV>
2.59269

>  <SCORE.INTRA.SOLV.lig_0>
-65.9238

>  <SCORE.INTRA.VDW>
-2.03532

>  <SCORE.INTRA.VDW.0>
-0.405582

>  <SCORE.INTRA.norm>
-0.0416342

>  <SCORE.RESTR>
0

>  <SCORE.RESTR.CAVITY>
0

>  <SCORE.RESTR.norm>
0

>  <SCORE.SYSTEM>
0

>  <SCORE.SYSTEM.CONST>
0

>  <SCORE.SYSTEM.DIHEDRAL>
0

>  <SCORE.SYSTEM.SOLV>
0

>  <SCORE.SYSTEM.norm>
0

>  <SCORE.heavy>
26

>  <SCORE.norm>
-0.708951

>  <RMSD>
2.233

$$$$
ligand
 OpenBabel11021811443D
libRbt.so/2013.1/901 2013/11/27
 26 28  0  0  0  0  0  0  0  0999 V2000
   16.6541   40.1924   63.9184 C   0  0  0  0  0  0  0  0  0  0  0  0
   23.0008   40.6033   64.9091 C   0  0  0  0  0  0  0  0  0  0  0  0
   28.1373   38.8888   66.4650 P   0  0  1  0  0  0  0  0  0  0  0  0
   28.2595   39.4224   68.9922 P   0  0  1  0  0  0  0  0  0  0  0  0
   21.2950   41.5643   66.9181 C   0  0  0  0  0  0  0  0  0  0  0  0
   19.5978   39.9042   66.0964 C   0  0  0  0  0  0  0  0  0  0  0  0
   20.0665   41.2026   66.1236 C   0  0  0  0  0  0  0  0  0  0  0  0
   19.3733   42.1720   65.3967 C   0  0  0  0  0  0  0  0  0  0  0  0
   19.8037   43.4904   65.3911 N   0  0  0  0  0  0  0  0  0  0  0  0
   18.2967   41.8115   64.7045 N   0  0  0  0  0  0  0  0  0  0  0  0
   17.8814   40.5614   64.7102 C   0  0  0  0  0  0  0  0  0  0  0  0
   18.5138   39.6221   65.3860 N   0  0  0  0  0  0  0  0  0  0  0  0
   28.7712   39.7987   65.4842 O   0  0  0  0  0  0  0  0  0  0  0  0
   29.6227   38.7865   68.6379 O   0  0  0  0  0  0  0  0  0  0  0  0
   23.0708   38.4196   68.1601 S   0  0  0  0  0  0  0  0  0  0  0  0
   21.9725   39.7539   68.3356 C   0  0  0  0  0  0  0  0  0  0  0  0
   29.2534   37.9172   67.0961 O   0  0  0  0  0  0  0  0  0  0  0  0
   28.4983   40.7795   69.8240 O   0  5  0  0  0  0  0  0  0  0  0  0
   22.0838   40.3574   67.1749 N   0  0  0  0  0  0  0  0  0  0  0  0
   27.4551   39.7562   67.6379 O   0  0  0  0  0  0  0  0  0  0  0  0
   27.4383   38.4323   69.8482 O   0  0  0  0  0  0  0  0  0  0  0  0
   22.8850   39.8996   66.2377 C   0  0  2  0  0  0  0  0  0  0  0  0
   23.6116   38.7826   66.4964 C   0  0  2  0  0  0  0  0  0  0  0  0
   24.5964   38.0506   65.6228 C   0  0  0  0  0  0  0  0  0  0  0  0
   25.8882   38.8639   65.5141 C   0  0  0  0  0  0  0  0  0  0  0  0
   27.0102   38.0054   65.7285 O   0  0  0  0  0  0  0  0  0  0  0  0
  1 11  1  0  0  0  0
  3 13  1  6  0  0  0
  3 17  1  0  0  0  0
  3 20  1  0  0  0  0
  3 26  1  0  0  0  0
  4 14  1  0  0  0  0
  4 18  1  1  0  0  0
  4 21  2  0  0  0  0
  4 20  1  0  0  0  0
  5 19  1  0  0  0  0
  5  7  1  0  0  0  0
  6  7  2  0  0  0  0
  6 12  1  0  0  0  0
  7  8  1  0  0  0  0
  8  9  1  0  0  0  0
  8 10  2  0  0  0  0
 10 11  1  0  0  0  0
 11 12  2  0  0  0  0
 14 17  1  0  0  0  0
 15 23  1  0  0  0  0
 15 16  1  0  0  0  0
 16 19  1  0  0  0  0
 19 22  1  0  0  0  0
 22  2  1  1  0  0  0
 22 23  1  0  0  0  0
 23 24  1  6  0  0  0
 24 25  1  0  0  0  0
 25 26  1  0  0  0  0
M  CHG  1  18  -1
M  END
>  <CHROM.1>
-98.64739065,20.13592463,-107.30623470,133.07753541,-146.60643184,-75.31433297
24.16396074,39.72405675,66.77337754,-2.92624797,-0.24305705,1.39029788

>  <Name>
ligand

>  <RI>
0

>  <Rbt.Current_Directory>
/home/itssahil/PROJECTS/Mol_Feturizer/New_Systems/rnas/2HOL

>  <Rbt.Executable>
rbdock ($Id: //depot/dev/client3/rdock/2013.1/src/exe/rbdock.cxx#4 $)

>  <Rbt.Library>
libRbt.so (2013.1, Build901 2013/11/27)

>  <Rbt.Parameter_File>
/export/apps/rDock/src/rDock_2013.1_src/data/scripts/dock_solv.prm

>  <Rbt.Receptor>
prm/pocket_docking_2.prm

>  <SCORE>
-16.0238

>  <SCORE.INTER>
-17.4283

>  <SCORE.INTER.CONST>
1

>  <SCORE.INTER.POLAR>
0

>  <SCORE.INTER.ROT>
6

>  <SCORE.INTER.SOLV>
18.5334

>  <SCORE.INTER.VDW>
-25.3967

>  <SCORE.INTER.norm>
-0.670321

>  <SCORE.INTRA>
0.936688

>  <SCORE.INTRA.DIHEDRAL>
4.79109

>  <SCORE.INTRA.DIHEDRAL.0>
9.33621

>  <SCORE.INTRA.POLAR>
0

>  <SCORE.INTRA.POLAR.0>
0

>  <SCORE.INTRA.REPUL>
0

>  <SCORE.INTRA.REPUL.0>
0

>  <SCORE.INTRA.SOLV>
0.0865399

>  <SCORE.INTRA.SOLV.lig_0>
-65.9238

>  <SCORE.INTRA.VDW>
-1.50213

>  <SCORE.INTRA.VDW.0>
-0.405582

>  <SCORE.INTRA.norm>
0.0360265

>  <SCORE.RESTR>
0.467879

>  <SCORE.RESTR.CAVITY>
0.467879

>  <SCORE.RESTR.norm>
0.0179953

>  <SCORE.SYSTEM>
0

>  <SCORE.SYSTEM.CONST>
0

>  <SCORE.SYSTEM.DIHEDRAL>
0

>  <SCORE.SYSTEM.SOLV>
0

>  <SCORE.SYSTEM.norm>
0

>  <SCORE.heavy>
26

>  <SCORE.norm>
-0.616299

>  <RMSD>
2.240

$$$$
ligand
 OpenBabel11021811443D
libRbt.so/2013.1/901 2013/11/27
 26 28  0  0  0  0  0  0  0  0999 V2000
   16.0103   39.5124   63.7776 C   0  0  0  0  0  0  0  0  0  0  0  0
   22.0407   40.0963   68.2511 C   0  0  0  0  0  0  0  0  0  0  0  0
   26.8232   39.9085   68.7849 P   0  0  1  0  0  0  0  0  0  0  0  0
   28.6059   40.8517   67.1667 P   0  0  1  0  0  0  0  0  0  0  0  0
   21.1400   40.9980   65.7521 C   0  0  0  0  0  0  0  0  0  0  0  0
   19.4419   39.2780   65.0666 C   0  0  0  0  0  0  0  0  0  0  0  0
   19.7819   40.6062   65.2293 C   0  0  0  0  0  0  0  0  0  0  0  0
   18.8354   41.5772   64.8975 C   0  0  0  0  0  0  0  0  0  0  0  0
   19.1280   42.9251   65.0423 N   0  0  0  0  0  0  0  0  0  0  0  0
   17.6502   41.1906   64.4347 N   0  0  0  0  0  0  0  0  0  0  0  0
   17.3659   39.9116   64.2996 C   0  0  0  0  0  0  0  0  0  0  0  0
   18.2377   38.9700   64.6037 N   0  0  0  0  0  0  0  0  0  0  0  0
   27.2408   39.1988   70.0152 O   0  0  0  0  0  0  0  0  0  0  0  0
   28.5006   41.8835   68.3122 O   0  0  0  0  0  0  0  0  0  0  0  0
   23.3279   37.9050   65.2706 S   0  0  0  0  0  0  0  0  0  0  0  0
   22.3321   39.2069   64.6953 C   0  0  0  0  0  0  0  0  0  0  0  0
   26.8880   41.4967   69.0325 O   0  0  0  0  0  0  0  0  0  0  0  0
   30.1535   40.4981   66.9010 O   0  5  0  0  0  0  0  0  0  0  0  0
   22.0010   39.8147   65.8110 N   0  0  0  0  0  0  0  0  0  0  0  0
   27.8110   39.5126   67.5762 O   0  0  0  0  0  0  0  0  0  0  0  0
   27.9862   41.4460   65.8820 O   0  0  0  0  0  0  0  0  0  0  0  0
   22.4286   39.3863   66.9786 C   0  0  2  0  0  0  0  0  0  0  0  0
   23.2217   38.2852   67.0130 C   0  0  2  0  0  0  0  0  0  0  0  0
   23.8425   37.5821   68.1916 C   0  0  0  0  0  0  0  0  0  0  0  0
   25.2865   38.0567   68.3689 C   0  0  0  0  0  0  0  0  0  0  0  0
   25.3167   39.4849   68.4050 O   0  0  0  0  0  0  0  0  0  0  0  0
  1 11  1  0  0  0  0
  3 13  1  1  0  0  0
  3 17  1  0  0  0  0
  3 20  1  0  0  0  0
  3 26  1  0  0  0  0
  4 14  1  0  0  0  0
  4 18  1  6  0  0  0
  4 21  2  0  0  0  0
  4 20  1  0  0  0  0
  5 19  1  0  0  0  0
  5  7  1  0  0  0  0
  6  7  2  0  0  0  0
  6 12  1  0  0  0  0
  7  8  1  0  0  0  0
  8  9  1  0  0  0  0
  8 10  2  0  0  0  0
 10 11  1  0  0  0  0
 11 12  2  0  0  0  0
 14 17  1  0  0  0  0
 15 23  1  0  0  0  0
 15 16  1  0  0  0  0
 16 19  1  0  0  0  0
 19 22  1  0  0  0  0
 22  2  1  1  0  0  0
 22 23  1  0  0  0  0
 23 24  1  6  0  0  0
 24 25  1  0  0  0  0
 25 26  1  0  0  0  0
M  CHG  1  18  -1
M  END
>  <CHROM.1>
64.76320813,9.18048825,82.77584343,51.79853259,172.72698441,-52.57146003
23.73166893,39.95044831,66.67538898,3.03214158,-0.31547806,-0.39707967

>  <Name>
ligand

>  <RI>
0

>  <Rbt.Current_Directory>
/home/itssahil/PROJECTS/Mol_Feturizer/New_Systems/rnas/2HOL

>  <Rbt.Executable>
rbdock ($Id: //depot/dev/client3/rdock/2013.1/src/exe/rbdock.cxx#4 $)

>  <Rbt.Library>
libRbt.so (2013.1, Build901 2013/11/27)

>  <Rbt.Parameter_File>
/export/apps/rDock/src/rDock_2013.1_src/data/scripts/dock_solv.prm

>  <Rbt.Receptor>
prm/pocket_docking_5.prm

>  <SCORE>
-23.2092

>  <SCORE.INTER>
-20.0642

>  <SCORE.INTER.CONST>
1

>  <SCORE.INTER.POLAR>
0

>  <SCORE.INTER.ROT>
6

>  <SCORE.INTER.SOLV>
18.116

>  <SCORE.INTER.VDW>
-27.0148

>  <SCORE.INTER.norm>
-0.7717

>  <SCORE.INTRA>
-3.14504

>  <SCORE.INTRA.DIHEDRAL>
-3.7786

>  <SCORE.INTRA.DIHEDRAL.0>
9.33621

>  <SCORE.INTRA.POLAR>
0

>  <SCORE.INTRA.POLAR.0>
0

>  <SCORE.INTRA.REPUL>
0

>  <SCORE.INTRA.REPUL.0>
0

>  <SCORE.INTRA.SOLV>
-0.247815

>  <SCORE.INTRA.SOLV.lig_0>
-65.9238

>  <SCORE.INTRA.VDW>
-1.13183

>  <SCORE.INTRA.VDW.0>
-0.405582

>  <SCORE.INTRA.norm>
-0.120963

>  <SCORE.RESTR>
0

>  <SCORE.RESTR.CAVITY>
0

>  <SCORE.RESTR.norm>
0

>  <SCORE.SYSTEM>
0

>  <SCORE.SYSTEM.CONST>
0

>  <SCORE.SYSTEM.DIHEDRAL>
0

>  <SCORE.SYSTEM.SOLV>
0

>  <SCORE.SYSTEM.norm>
0

>  <SCORE.heavy>
26

>  <SCORE.norm>
-0.892663

>  <RMSD>
2.246

$$$$
ligand
 OpenBabel11021811443D
libRbt.so/2013.1/901 2013/11/27
 26 28  0  0  0  0  0  0  0  0999 V2000
   19.5004   45.0042   65.9827 C   0  0  0  0  0  0  0  0  0  0  0  0
   22.7658   38.5639   64.9421 C   0  0  0  0  0  0  0  0  0  0  0  0
   27.8045   39.5602   68.7442 P   0  0  1  0  0  0  0  0  0  0  0  0
   29.6253   39.1280   66.9597 P   0  0  1  0  0  0  0  0  0  0  0  0
   20.3077   39.3682   66.0287 C   0  0  0  0  0  0  0  0  0  0  0  0
   21.0233   41.7141   66.5731 C   0  0  0  0  0  0  0  0  0  0  0  0
   20.0927   40.8598   66.0159 C   0  0  0  0  0  0  0  0  0  0  0  0
   18.9477   41.4128   65.4400 C   0  0  0  0  0  0  0  0  0  0  0  0
   17.9826   40.5976   64.8676 N   0  0  0  0  0  0  0  0  0  0  0  0
   18.7928   42.7334   65.4534 N   0  0  0  0  0  0  0  0  0  0  0  0
   19.7085   43.5122   65.9919 C   0  0  0  0  0  0  0  0  0  0  0  0
   20.8008   43.0214   66.5440 N   0  0  0  0  0  0  0  0  0  0  0  0
   28.1772   39.6618   70.1734 O   0  0  0  0  0  0  0  0  0  0  0  0
   29.7056   40.6388   67.2743 O   0  0  0  0  0  0  0  0  0  0  0  0
   22.7724   38.6566   68.8579 S   0  0  0  0  0  0  0  0  0  0  0  0
   21.2229   39.1297   68.2314 C   0  0  0  0  0  0  0  0  0  0  0  0
   28.0882   40.9651   68.0138 O   0  0  0  0  0  0  0  0  0  0  0  0
   31.1001   38.4863   67.0198 O   0  5  0  0  0  0  0  0  0  0  0  0
   21.4108   39.0412   66.9349 N   0  0  0  0  0  0  0  0  0  0  0  0
   28.6792   38.4040   68.0430 O   0  0  0  0  0  0  0  0  0  0  0  0
   29.0350   38.9288   65.5457 O   0  0  0  0  0  0  0  0  0  0  0  0
   22.5660   38.6620   66.4335 C   0  0  2  0  0  0  0  0  0  0  0  0
   23.5777   38.3679   67.2894 C   0  0  2  0  0  0  0  0  0  0  0  0
   24.9858   37.9193   66.9981 C   0  0  0  0  0  0  0  0  0  0  0  0
   25.9521   39.0840   67.2259 C   0  0  0  0  0  0  0  0  0  0  0  0
   26.2406   39.1966   68.6210 O   0  0  0  0  0  0  0  0  0  0  0  0
  1 11  1  0  0  0  0
  3 13  1  1  0  0  0
  3 17  1  0  0  0  0
  3 20  1  0  0  0  0
  3 26  1  0  0  0  0
  4 14  1  0  0  0  0
  4 18  1  1  0  0  0
  4 21  2  0  0  0  0
  4 20  1  0  0  0  0
  5 19  1  0  0  0  0
  5  7  1  0  0  0  0
  6  7  2  0  0  0  0
  6 12  1  0  0  0  0
  7  8  1  0  0  0  0
  8  9  1  0  0  0  0
  8 10  2  0  0  0  0
 10 11  1  0  0  0  0
 11 12  2  0  0  0  0
 14 17  1  0  0  0  0
 15 23  1  0  0  0  0
 15 16  1  0  0  0  0
 16 19  1  0  0  0  0
 19 22  1  0  0  0  0
 22  2  1  6  0  0  0
 22 23  1  0  0  0  0
 23 24  1  1  0  0  0
 24 25  1  0  0  0  0
 25 26  1  0  0  0  0
M  CHG  1  18  -1
M  END
>  <CHROM.1>
72.92023168,12.42847928,-75.36485795,81.26630200,140.86876347,-178.73763571
24.46737144,39.94988309,67.12317420,-2.86726789,0.11240864,2.89811296

>  <Name>
ligand

>  <RI>
0

>  <Rbt.Current_Directory>
/home/itssahil/PROJECTS/Mol_Feturizer/New_Systems/rnas/2HOL

>  <Rbt.Executable>
rbdock ($Id: //depot/dev/client3/rdock/2013.1/src/exe/rbdock.cxx#4 $)

>  <Rbt.Library>
libRbt.so (2013.1, Build901 2013/11/27)

>  <Rbt.Parameter_File>
/export/apps/rDock/src/rDock_2013.1_src/data/scripts/dock_solv.prm

>  <Rbt.Receptor>
prm/pocket_docking_2.prm

>  <SCORE>
-7.67962

>  <SCORE.INTER>
-9.4636

>  <SCORE.INTER.CONST>
1

>  <SCORE.INTER.POLAR>
0

>  <SCORE.INTER.ROT>
6

>  <SCORE.INTER.SOLV>
19.4622

>  <SCORE.INTER.VDW>
-20.3965

>  <SCORE.INTER.norm>
-0.363985

>  <SCORE.INTRA>
-0.479215

>  <SCORE.INTRA.DIHEDRAL>
2.54383

>  <SCORE.INTRA.DIHEDRAL.0>
9.33621

>  <SCORE.INTRA.POLAR>
0

>  <SCORE.INTRA.POLAR.0>
0

>  <SCORE.INTRA.REPUL>
0

>  <SCORE.INTRA.REPUL.0>
0

>  <SCORE.INTRA.SOLV>
0.392327

>  <SCORE.INTRA.SOLV.lig_0>
-65.9238

>  <SCORE.INTRA.VDW>
-1.94729

>  <SCORE.INTRA.VDW.0>
-0.405582

>  <SCORE.INTRA.norm>
-0.0184314

>  <SCORE.RESTR>
2.2632

>  <SCORE.RESTR.CAVITY>
2.2632

>  <SCORE.RESTR.norm>
0.0870461

>  <SCORE.SYSTEM>
0

>  <SCORE.SYSTEM.CONST>
0

>  <SCORE.SYSTEM.DIHEDRAL>
0

>  <SCORE.SYSTEM.SOLV>
0

>  <SCORE.SYSTEM.norm>
0

>  <SCORE.heavy>
26

>  <SCORE.norm>
-0.29537

>  <RMSD>
2.264

$$$$
ligand
 OpenBabel11021811443D
libRbt.so/2013.1/901 2013/11/27
 26 28  0  0  0  0  0  0  0  0999 V2000
   16.3980   39.8108   63.7972 C   0  0  0  0  0  0  0  0  0  0  0  0
   22.0486   39.1306   67.5962 C   0  0  0  0  0  0  0  0  0  0  0  0
   27.8118   38.1714   67.7504 P   0  0  1  0  0  0  0  0  0  0  0  0
   28.3158   40.6934   67.4822 P   0  0  1  0  0  0  0  0  0  0  0  0
   20.8804   41.5658   66.8381 C   0  0  0  0  0  0  0  0  0  0  0  0
   19.3424   39.7681   65.9930 C   0  0  0  0  0  0  0  0  0  0  0  0
   19.6938   41.1027   66.0327 C   0  0  0  0  0  0  0  0  0  0  0  0
   18.9216   42.0124   65.3082 C   0  0  0  0  0  0  0  0  0  0  0  0
   19.2332   43.3638   65.3150 N   0  0  0  0  0  0  0  0  0  0  0  0
   17.8856   41.5631   64.6061 N   0  0  0  0  0  0  0  0  0  0  0  0
   17.5829   40.2811   64.6000 C   0  0  0  0  0  0  0  0  0  0  0  0
   18.2920   39.3964   65.2733 N   0  0  0  0  0  0  0  0  0  0  0  0
   28.9069   37.1813   67.6408 O   0  0  0  0  0  0  0  0  0  0  0  0
   28.7219   40.3428   68.9314 O   0  0  0  0  0  0  0  0  0  0  0  0
   24.0517   40.9891   64.7898 S   0  0  0  0  0  0  0  0  0  0  0  0
   22.6475   41.9005   65.2533 C   0  0  0  0  0  0  0  0  0  0  0  0
   27.8103   38.8096   69.2270 O   0  0  0  0  0  0  0  0  0  0  0  0
   29.5058   41.5123   66.7726 O   0  5  0  0  0  0  0  0  0  0  0  0
   22.1159   41.1364   66.1793 N   0  0  0  0  0  0  0  0  0  0  0  0
   28.0323   39.3374   66.6616 O   0  0  0  0  0  0  0  0  0  0  0  0
   27.0364   41.5597   67.5030 O   0  0  0  0  0  0  0  0  0  0  0  0
   22.6706   39.9966   66.5299 C   0  0  2  0  0  0  0  0  0  0  0  0
   23.8127   39.6133   65.9043 C   0  0  2  0  0  0  0  0  0  0  0  0
   24.6480   38.3750   66.0984 C   0  0  0  0  0  0  0  0  0  0  0  0
   25.4110   38.4739   67.4214 C   0  0  0  0  0  0  0  0  0  0  0  0
   26.4009   37.4448   67.4776 O   0  0  0  0  0  0  0  0  0  0  0  0
  1 11  1  0  0  0  0
  3 13  1  6  0  0  0
  3 17  1  0  0  0  0
  3 20  1  0  0  0  0
  3 26  1  0  0  0  0
  4 14  1  0  0  0  0
  4 18  1  6  0  0  0
  4 21  2  0  0  0  0
  4 20  1  0  0  0  0
  5 19  1  0  0  0  0
  5  7  1  0  0  0  0
  6  7  2  0  0  0  0
  6 12  1  0  0  0  0
  7  8  1  0  0  0  0
  8  9  1  0  0  0  0
  8 10  2  0  0  0  0
 10 11  1  0  0  0  0
 11 12  2  0  0  0  0
 14 17  1  0  0  0  0
 15 23  1  0  0  0  0
 15 16  1  0  0  0  0
 16 19  1  0  0  0  0
 19 22  1  0  0  0  0
 22  2  1  6  0  0  0
 22 23  1  0  0  0  0
 23 24  1  1  0  0  0
 24 25  1  0  0  0  0
 25 26  1  0  0  0  0
M  CHG  1  18  -1
M  END
>  <CHROM.1>
87.06713300,71.79110033,106.74420070,-168.21342792,124.88512016,-172.49783254
24.02526617,40.07179044,66.51486511,2.93272299,-0.22790068,-0.21825554

>  <Name>
ligand

>  <RI>
0

>  <Rbt.Current_Directory>
/home/itssahil/PROJECTS/Mol_Feturizer/New_Systems/rnas/2HOL

>  <Rbt.Executable>
rbdock ($Id: //depot/dev/client3/rdock/2013.1/src/exe/rbdock.cxx#4 $)

>  <Rbt.Library>
libRbt.so (2013.1, Build901 2013/11/27)

>  <Rbt.Parameter_File>
/export/apps/rDock/src/rDock_2013.1_src/data/scripts/dock_solv.prm

>  <Rbt.Receptor>
prm/pocket_docking_2.prm

>  <SCORE>
-13.5383

>  <SCORE.INTER>
-14.6669

>  <SCORE.INTER.CONST>
1

>  <SCORE.INTER.POLAR>
0

>  <SCORE.INTER.ROT>
6

>  <SCORE.INTER.SOLV>
17.8457

>  <SCORE.INTER.VDW>
-23.3265

>  <SCORE.INTER.norm>
-0.564111

>  <SCORE.INTRA>
-0.158622

>  <SCORE.INTRA.DIHEDRAL>
2.97402

>  <SCORE.INTRA.DIHEDRAL.0>
9.33621

>  <SCORE.INTRA.POLAR>
0

>  <SCORE.INTRA.POLAR.0>
0

>  <SCORE.INTRA.REPUL>
0

>  <SCORE.INTRA.REPUL.0>
0

>  <SCORE.INTRA.SOLV>
1.06965

>  <SCORE.INTRA.SOLV.lig_0>
-65.9238

>  <SCORE.INTRA.VDW>
-2.18046

>  <SCORE.INTRA.VDW.0>
-0.405582

>  <SCORE.INTRA.norm>
-0.00610084

>  <SCORE.RESTR>
1.28724

>  <SCORE.RESTR.CAVITY>
1.28724

>  <SCORE.RESTR.norm>
0.0495091

>  <SCORE.SYSTEM>
0

>  <SCORE.SYSTEM.CONST>
0

>  <SCORE.SYSTEM.DIHEDRAL>
0

>  <SCORE.SYSTEM.SOLV>
0

>  <SCORE.SYSTEM.norm>
0

>  <SCORE.heavy>
26

>  <SCORE.norm>
-0.520703

>  <RMSD>
2.297

$$$$
ligand
 OpenBabel11021811443D
libRbt.so/2013.1/901 2013/11/27
 26 28  0  0  0  0  0  0  0  0999 V2000
   16.9215   40.1932   64.3189 C   0  0  0  0  0  0  0  0  0  0  0  0
   23.8575   41.2512   64.7006 C   0  0  0  0  0  0  0  0  0  0  0  0
   28.4117   39.3882   67.3546 P   0  0  1  0  0  0  0  0  0  0  0  0
   27.6600   39.7696   69.7991 P   0  0  1  0  0  0  0  0  0  0  0  0
   21.9020   41.6268   66.6766 C   0  0  0  0  0  0  0  0  0  0  0  0
   20.0441   39.9922   66.2427 C   0  0  0  0  0  0  0  0  0  0  0  0
   20.5836   41.2487   66.0519 C   0  0  0  0  0  0  0  0  0  0  0  0
   19.8767   42.1602   65.2658 C   0  0  0  0  0  0  0  0  0  0  0  0
   20.3760   43.4348   65.0432 N   0  0  0  0  0  0  0  0  0  0  0  0
   18.7194   41.7863   64.7281 N   0  0  0  0  0  0  0  0  0  0  0  0
   18.2388   40.5783   64.9401 C   0  0  0  0  0  0  0  0  0  0  0  0
   18.8820   39.6941   65.6773 N   0  0  0  0  0  0  0  0  0  0  0  0
   29.2618   40.3922   66.6756 O   0  0  0  0  0  0  0  0  0  0  0  0
   29.1075   39.2363   69.8905 O   0  0  0  0  0  0  0  0  0  0  0  0
   23.8226   38.4038   67.3901 S   0  0  0  0  0  0  0  0  0  0  0  0
   22.6024   39.5919   67.7323 C   0  0  0  0  0  0  0  0  0  0  0  0
   29.3291   38.4449   68.2799 O   0  0  0  0  0  0  0  0  0  0  0  0
   27.5114   41.0837   70.7165 O   0  5  0  0  0  0  0  0  0  0  0  0
   22.7653   40.4459   66.7485 N   0  0  0  0  0  0  0  0  0  0  0  0
   27.3204   40.1403   68.2695 O   0  0  0  0  0  0  0  0  0  0  0  0
   26.6803   38.6826   70.2952 O   0  0  0  0  0  0  0  0  0  0  0  0
   23.6837   40.2618   65.8252 C   0  0  2  0  0  0  0  0  0  0  0  0
   24.4773   39.1640   65.9118 C   0  0  2  0  0  0  0  0  0  0  0  0
   25.5958   38.7108   65.0104 C   0  0  0  0  0  0  0  0  0  0  0  0
   26.9018   39.3859   65.4353 C   0  0  0  0  0  0  0  0  0  0  0  0
   27.6570   38.4891   66.2522 O   0  0  0  0  0  0  0  0  0  0  0  0
  1 11  1  0  0  0  0
  3 13  1  6  0  0  0
  3 17  1  0  0  0  0
  3 20  1  0  0  0  0
  3 26  1  0  0  0  0
  4 14  1  0  0  0  0
  4 18  1  1  0  0  0
  4 21  2  0  0  0  0
  4 20  1  0  0  0  0
  5 19  1  0  0  0  0
  5  7  1  0  0  0  0
  6  7  2  0  0  0  0
  6 12  1  0  0  0  0
  7  8  1  0  0  0  0
  8  9  1  0  0  0  0
  8 10  2  0  0  0  0
 10 11  1  0  0  0  0
 11 12  2  0  0  0  0
 14 17  1  0  0  0  0
 15 23  1  0  0  0  0
 15 16  1  0  0  0  0
 16 19  1  0  0  0  0
 19 22  1  0  0  0  0
 22  2  1  1  0  0  0
 22 23  1  0  0  0  0
 23 24  1  6  0  0  0
 24 25  1  0  0  0  0
 25 26  1  0  0  0  0
M  CHG  1  18  -1
M  END
>  <CHROM.1>
-81.33271007,32.65317991,-94.49022640,98.26446319,-145.07730312,-57.81516055
24.46731467,39.98846700,66.99346002,2.79849863,0.18772873,-1.60857481

>  <Name>
ligand

>  <RI>
0

>  <Rbt.Current_Directory>
/home/itssahil/PROJECTS/Mol_Feturizer/New_Systems/rnas/2HOL

>  <Rbt.Executable>
rbdock ($Id: //depot/dev/client3/rdock/2013.1/src/exe/rbdock.cxx#4 $)

>  <Rbt.Library>
libRbt.so (2013.1, Build901 2013/11/27)

>  <Rbt.Parameter_File>
/export/apps/rDock/src/rDock_2013.1_src/data/scripts/dock_solv.prm

>  <Rbt.Receptor>
prm/pocket_docking_2.prm

>  <SCORE>
-12.3062

>  <SCORE.INTER>
-13.5546

>  <SCORE.INTER.CONST>
1

>  <SCORE.INTER.POLAR>
0

>  <SCORE.INTER.ROT>
6

>  <SCORE.INTER.SOLV>
19.3871

>  <SCORE.INTER.VDW>
-23.0988

>  <SCORE.INTER.norm>
-0.521332

>  <SCORE.INTRA>
-0.1563

>  <SCORE.INTRA.DIHEDRAL>
3.90212

>  <SCORE.INTRA.DIHEDRAL.0>
9.33621

>  <SCORE.INTRA.POLAR>
0

>  <SCORE.INTRA.POLAR.0>
0

>  <SCORE.INTRA.REPUL>
0

>  <SCORE.INTRA.REPUL.0>
0

>  <SCORE.INTRA.SOLV>
0.243694

>  <SCORE.INTRA.SOLV.lig_0>
-65.9238

>  <SCORE.INTRA.VDW>
-2.22921

>  <SCORE.INTRA.VDW.0>
-0.405582

>  <SCORE.INTRA.norm>
-0.00601154

>  <SCORE.RESTR>
1.40477

>  <SCORE.RESTR.CAVITY>
1.40477

>  <SCORE.RESTR.norm>
0.0540294

>  <SCORE.SYSTEM>
0

>  <SCORE.SYSTEM.CONST>
0

>  <SCORE.SYSTEM.DIHEDRAL>
0

>  <SCORE.SYSTEM.SOLV>
0

>  <SCORE.SYSTEM.norm>
0

>  <SCORE.heavy>
26

>  <SCORE.norm>
-0.473314

>  <RMSD>
2.326

$$$$
ligand
 OpenBabel11021811443D
libRbt.so/2013.1/901 2013/11/27
 26 28  0  0  0  0  0  0  0  0999 V2000
   15.7259   39.3945   63.5813 C   0  0  0  0  0  0  0  0  0  0  0  0
   21.9522   40.4252   68.1120 C   0  0  0  0  0  0  0  0  0  0  0  0
   27.1901   38.9442   69.5377 P   0  0  1  0  0  0  0  0  0  0  0  0
   28.6030   39.6257   67.4820 P   0  0  1  0  0  0  0  0  0  0  0  0
   20.7922   41.0009   65.6235 C   0  0  0  0  0  0  0  0  0  0  0  0
   19.1746   39.2469   64.8369 C   0  0  0  0  0  0  0  0  0  0  0  0
   19.4508   40.5771   65.0829 C   0  0  0  0  0  0  0  0  0  0  0  0
   18.4556   41.5197   64.8184 C   0  0  0  0  0  0  0  0  0  0  0  0
   18.6833   42.8684   65.0480 N   0  0  0  0  0  0  0  0  0  0  0  0
   17.2871   41.1058   64.3372 N   0  0  0  0  0  0  0  0  0  0  0  0
   17.0644   39.8256   64.1216 C   0  0  0  0  0  0  0  0  0  0  0  0
   17.9833   38.9105   64.3607 N   0  0  0  0  0  0  0  0  0  0  0  0
   27.8488   38.6963   70.8401 O   0  0  0  0  0  0  0  0  0  0  0  0
   28.4216   40.9203   68.3062 O   0  0  0  0  0  0  0  0  0  0  0  0
   22.9374   37.8554   65.3249 S   0  0  0  0  0  0  0  0  0  0  0  0
   21.8794   39.0787   64.6912 C   0  0  0  0  0  0  0  0  0  0  0  0
   26.9854   40.5264   69.3316 O   0  0  0  0  0  0  0  0  0  0  0  0
   30.1558   39.4438   67.0999 O   0  5  0  0  0  0  0  0  0  0  0  0
   21.6619   39.8290   65.7465 N   0  0  0  0  0  0  0  0  0  0  0  0
   28.1116   38.3629   68.3517 O   0  0  0  0  0  0  0  0  0  0  0  0
   27.7626   39.7187   66.1887 O   0  0  0  0  0  0  0  0  0  0  0  0
   22.2107   39.5529   66.9094 C   0  0  2  0  0  0  0  0  0  0  0  0
   23.0098   38.4598   67.0047 C   0  0  2  0  0  0  0  0  0  0  0  0
   23.7535   37.9113   68.1941 C   0  0  0  0  0  0  0  0  0  0  0  0
   25.1456   38.5432   68.2639 C   0  0  0  0  0  0  0  0  0  0  0  0
   25.7576   38.2091   69.5112 O   0  0  0  0  0  0  0  0  0  0  0  0
  1 11  1  0  0  0  0
  3 13  1  1  0  0  0
  3 17  1  0  0  0  0
  3 20  1  0  0  0  0
  3 26  1  0  0  0  0
  4 14  1  0  0  0  0
  4 18  1  6  0  0  0
  4 21  2  0  0  0  0
  4 20  1  0  0  0  0
  5 19  1  0  0  0  0
  5  7  1  0  0  0  0
  6  7  2  0  0  0  0
  6 12  1  0  0  0  0
  7  8  1  0  0  0  0
  8  9  1  0  0  0  0
  8 10  2  0  0  0  0
 10 11  1  0  0  0  0
 11 12  2  0  0  0  0
 14 17  1  0  0  0  0
 15 23  1  0  0  0  0
 15 16  1  0  0  0  0
 16 19  1  0  0  0  0
 19 22  1  0  0  0  0
 22  2  1  1  0  0  0
 22 23  1  0  0  0  0
 23 24  1  6  0  0  0
 24 25  1  0  0  0  0
 25 26  1  0  0  0  0
M  CHG  1  18  -1
M  END
>  <CHROM.1>
55.63365121,2.74099522,90.42302750,169.78095949,-178.10447755,177.00449311
23.63076725,39.52113402,66.83903779,2.77614778,-0.15089823,-0.96987959

>  <Name>
ligand

>  <RI>
0

>  <Rbt.Current_Directory>
/home/itssahil/PROJECTS/Mol_Feturizer/New_Systems/rnas/2HOL

>  <Rbt.Executable>
rbdock ($Id: //depot/dev/client3/rdock/2013.1/src/exe/rbdock.cxx#4 $)

>  <Rbt.Library>
libRbt.so (2013.1, Build901 2013/11/27)

>  <Rbt.Parameter_File>
/export/apps/rDock/src/rDock_2013.1_src/data/scripts/dock_solv.prm

>  <Rbt.Receptor>
prm/pocket_docking_3.prm

>  <SCORE>
-22.9422

>  <SCORE.INTER>
-20.4158

>  <SCORE.INTER.CONST>
1

>  <SCORE.INTER.POLAR>
0

>  <SCORE.INTER.ROT>
6

>  <SCORE.INTER.SOLV>
19.8832

>  <SCORE.INTER.VDW>
-27.8383

>  <SCORE.INTER.norm>
-0.785224

>  <SCORE.INTRA>
-2.52792

>  <SCORE.INTRA.DIHEDRAL>
-4.07768

>  <SCORE.INTRA.DIHEDRAL.0>
9.33621

>  <SCORE.INTRA.POLAR>
0

>  <SCORE.INTRA.POLAR.0>
0

>  <SCORE.INTRA.REPUL>
0

>  <SCORE.INTRA.REPUL.0>
0

>  <SCORE.INTRA.SOLV>
0.0680013

>  <SCORE.INTRA.SOLV.lig_0>
-65.9238

>  <SCORE.INTRA.VDW>
-0.523082

>  <SCORE.INTRA.VDW.0>
-0.405582

>  <SCORE.INTRA.norm>
-0.0972277

>  <SCORE.RESTR>
0.00157323

>  <SCORE.RESTR.CAVITY>
0.00157323

>  <SCORE.RESTR.norm>
6.0509e-05

>  <SCORE.SYSTEM>
0

>  <SCORE.SYSTEM.CONST>
0

>  <SCORE.SYSTEM.DIHEDRAL>
0

>  <SCORE.SYSTEM.SOLV>
0

>  <SCORE.SYSTEM.norm>
0

>  <SCORE.heavy>
26

>  <SCORE.norm>
-0.882391

>  <RMSD>
2.329

$$$$
ligand
 OpenBabel11021811443D
libRbt.so/2013.1/901 2013/11/27
 26 28  0  0  0  0  0  0  0  0999 V2000
   16.0351   39.6591   63.7401 C   0  0  0  0  0  0  0  0  0  0  0  0
   21.7290   39.9500   68.3222 C   0  0  0  0  0  0  0  0  0  0  0  0
   26.7714   38.7387   69.2159 P   0  0  1  0  0  0  0  0  0  0  0  0
   28.7444   39.0259   67.5693 P   0  0  1  0  0  0  0  0  0  0  0  0
   21.2507   40.8289   65.7014 C   0  0  0  0  0  0  0  0  0  0  0  0
   19.4776   39.2187   64.9431 C   0  0  0  0  0  0  0  0  0  0  0  0
   19.8699   40.5207   65.1822 C   0  0  0  0  0  0  0  0  0  0  0  0
   18.9548   41.5445   64.9311 C   0  0  0  0  0  0  0  0  0  0  0  0
   19.3002   42.8690   65.1545 N   0  0  0  0  0  0  0  0  0  0  0  0
   17.7480   41.2315   64.4686 N   0  0  0  0  0  0  0  0  0  0  0  0
   17.4136   39.9748   64.2590 C   0  0  0  0  0  0  0  0  0  0  0  0
   18.2547   38.9848   64.4859 N   0  0  0  0  0  0  0  0  0  0  0  0
   26.9734   38.0244   70.4968 O   0  0  0  0  0  0  0  0  0  0  0  0
   28.9396   40.1202   68.6429 O   0  0  0  0  0  0  0  0  0  0  0  0
   23.1937   37.5425   65.6018 S   0  0  0  0  0  0  0  0  0  0  0  0
   22.4044   38.9021   64.8631 C   0  0  0  0  0  0  0  0  0  0  0  0
   27.2854   40.2562   69.3600 O   0  0  0  0  0  0  0  0  0  0  0  0
   30.1270   38.2309   67.3531 O   0  5  0  0  0  0  0  0  0  0  0  0
   21.9857   39.5789   65.9074 N   0  0  0  0  0  0  0  0  0  0  0  0
   27.6029   37.9982   68.0523 O   0  0  0  0  0  0  0  0  0  0  0  0
   28.3157   39.6834   66.2383 O   0  0  0  0  0  0  0  0  0  0  0  0
   22.2153   39.1607   67.1330 C   0  0  2  0  0  0  0  0  0  0  0  0
   22.8938   37.9974   67.3033 C   0  0  2  0  0  0  0  0  0  0  0  0
   23.2877   37.2894   68.5731 C   0  0  0  0  0  0  0  0  0  0  0  0
   24.8055   37.3660   68.7527 C   0  0  0  0  0  0  0  0  0  0  0  0
   25.2057   38.7350   68.8395 O   0  0  0  0  0  0  0  0  0  0  0  0
  1 11  1  0  0  0  0
  3 13  1  1  0  0  0
  3 17  1  0  0  0  0
  3 20  1  0  0  0  0
  3 26  1  0  0  0  0
  4 14  1  0  0  0  0
  4 18  1  6  0  0  0
  4 21  2  0  0  0  0
  4 20  1  0  0  0  0
  5 19  1  0  0  0  0
  5  7  1  0  0  0  0
  6  7  2  0  0  0  0
  6 12  1  0  0  0  0
  7  8  1  0  0  0  0
  8  9  1  0  0  0  0
  8 10  2  0  0  0  0
 10 11  1  0  0  0  0
 11 12  2  0  0  0  0
 14 17  1  0  0  0  0
 15 23  1  0  0  0  0
 15 16  1  0  0  0  0
 16 19  1  0  0  0  0
 19 22  1  0  0  0  0
 22  2  1  6  0  0  0
 22 23  1  0  0  0  0
 23 24  1  1  0  0  0
 24 25  1  0  0  0  0
 25 26  1  0  0  0  0
M  CHG  1  18  -1
M  END
>  <CHROM.1>
72.29872826,-1.40908998,69.31331520,60.51485576,172.84949513,-58.77867822
23.71161388,39.22690375,66.91370524,2.79844667,-0.19609550,-0.70130219

>  <Name>
ligand

>  <RI>
0

>  <Rbt.Current_Directory>
/home/itssahil/PROJECTS/Mol_Feturizer/New_Systems/rnas/2HOL

>  <Rbt.Executable>
rbdock ($Id: //depot/dev/client3/rdock/2013.1/src/exe/rbdock.cxx#4 $)

>  <Rbt.Library>
libRbt.so (2013.1, Build901 2013/11/27)

>  <Rbt.Parameter_File>
/export/apps/rDock/src/rDock_2013.1_src/data/scripts/dock_solv.prm

>  <Rbt.Receptor>
prm/pocket_docking_3.prm

>  <SCORE>
-24.3509

>  <SCORE.INTER>
-20.8269

>  <SCORE.INTER.CONST>
1

>  <SCORE.INTER.POLAR>
0

>  <SCORE.INTER.ROT>
6

>  <SCORE.INTER.SOLV>
20.6161

>  <SCORE.INTER.VDW>
-28.3566

>  <SCORE.INTER.norm>
-0.801035

>  <SCORE.INTRA>
-3.5297

>  <SCORE.INTRA.DIHEDRAL>
-3.96067

>  <SCORE.INTRA.DIHEDRAL.0>
9.33621

>  <SCORE.INTRA.POLAR>
0

>  <SCORE.INTRA.POLAR.0>
0

>  <SCORE.INTRA.REPUL>
0

>  <SCORE.INTRA.REPUL.0>
0

>  <SCORE.INTRA.SOLV>
-0.371168

>  <SCORE.INTRA.SOLV.lig_0>
-65.9238

>  <SCORE.INTRA.VDW>
-1.36378

>  <SCORE.INTRA.VDW.0>
-0.405582

>  <SCORE.INTRA.norm>
-0.135758

>  <SCORE.RESTR>
0.00571046

>  <SCORE.RESTR.CAVITY>
0.00571046

>  <SCORE.RESTR.norm>
0.000219633

>  <SCORE.SYSTEM>
0

>  <SCORE.SYSTEM.CONST>
0

>  <SCORE.SYSTEM.DIHEDRAL>
0

>  <SCORE.SYSTEM.SOLV>
0

>  <SCORE.SYSTEM.norm>
0

>  <SCORE.heavy>
26

>  <SCORE.norm>
-0.936573

>  <RMSD>
2.342

$$$$
ligand
 OpenBabel11021811443D
libRbt.so/2013.1/901 2013/11/27
 26 28  0  0  0  0  0  0  0  0999 V2000
   16.4098   39.8209   63.8066 C   0  0  0  0  0  0  0  0  0  0  0  0
   22.1773   38.5964   67.1958 C   0  0  0  0  0  0  0  0  0  0  0  0
   28.2269   39.4989   65.8133 P   0  0  1  0  0  0  0  0  0  0  0  0
   29.7190   41.5242   66.4118 P   0  0  1  0  0  0  0  0  0  0  0  0
   21.0169   41.1315   66.8849 C   0  0  0  0  0  0  0  0  0  0  0  0
   19.2506   39.5190   66.1155 C   0  0  0  0  0  0  0  0  0  0  0  0
   19.7975   40.7859   66.0695 C   0  0  0  0  0  0  0  0  0  0  0  0
   19.1919   41.7390   65.2488 C   0  0  0  0  0  0  0  0  0  0  0  0
   19.7028   43.0257   65.1671 N   0  0  0  0  0  0  0  0  0  0  0  0
   18.1204   41.3931   64.5413 N   0  0  0  0  0  0  0  0  0  0  0  0
   17.6286   40.1736   64.6188 C   0  0  0  0  0  0  0  0  0  0  0  0
   18.1772   39.2504   65.3841 N   0  0  0  0  0  0  0  0  0  0  0  0
   28.8214   38.3049   65.1709 O   0  0  0  0  0  0  0  0  0  0  0  0
   29.9436   40.4967   67.5440 O   0  0  0  0  0  0  0  0  0  0  0  0
   24.1094   40.8711   64.6591 S   0  0  0  0  0  0  0  0  0  0  0  0
   22.7339   41.7058   65.3138 C   0  0  0  0  0  0  0  0  0  0  0  0
   28.4840   39.4393   67.4002 O   0  0  0  0  0  0  0  0  0  0  0  0
   31.1411   42.0468   65.8688 O   0  5  0  0  0  0  0  0  0  0  0  0
   22.2236   40.8053   66.1217 N   0  0  0  0  0  0  0  0  0  0  0  0
   28.9069   40.8275   65.2085 O   0  0  0  0  0  0  0  0  0  0  0  0
   28.9059   42.7196   66.9574 O   0  0  0  0  0  0  0  0  0  0  0  0
   22.7746   39.6195   66.2628 C   0  0  2  0  0  0  0  0  0  0  0  0
   23.8897   39.3342   65.5433 C   0  0  2  0  0  0  0  0  0  0  0  0
   24.7144   38.0745   65.5041 C   0  0  0  0  0  0  0  0  0  0  0  0
   26.0942   38.3464   66.1079 C   0  0  0  0  0  0  0  0  0  0  0  0
   26.6426   39.5310   65.5265 O   0  0  0  0  0  0  0  0  0  0  0  0
  1 11  1  0  0  0  0
  3 13  1  6  0  0  0
  3 17  1  0  0  0  0
  3 20  1  0  0  0  0
  3 26  1  0  0  0  0
  4 14  1  0  0  0  0
  4 18  1  6  0  0  0
  4 21  2  0  0  0  0
  4 20  1  0  0  0  0
  5 19  1  0  0  0  0
  5  7  1  0  0  0  0
  6  7  2  0  0  0  0
  6 12  1  0  0  0  0
  7  8  1  0  0  0  0
  8  9  1  0  0  0  0
  8 10  2  0  0  0  0
 10 11  1  0  0  0  0
 11 12  2  0  0  0  0
 14 17  1  0  0  0  0
 15 23  1  0  0  0  0
 15 16  1  0  0  0  0
 16 19  1  0  0  0  0
 19 22  1  0  0  0  0
 22  2  1  6  0  0  0
 22 23  1  0  0  0  0
 23 24  1  1  0  0  0
 24 25  1  0  0  0  0
 25 26  1  0  0  0  0
M  CHG  1  18  -1
M  END
>  <CHROM.1>
88.32217586,87.74779835,67.05359004,-48.91135371,-161.78510575,61.24062057
24.48555869,40.36477100,65.78432395,-3.13913919,-0.10101143,-0.03336667

>  <Name>
ligand

>  <RI>
0

>  <Rbt.Current_Directory>
/home/itssahil/PROJECTS/Mol_Feturizer/New_Systems/rnas/2HOL

>  <Rbt.Executable>
rbdock ($Id: //depot/dev/client3/rdock/2013.1/src/exe/rbdock.cxx#4 $)

>  <Rbt.Library>
libRbt.so (2013.1, Build901 2013/11/27)

>  <Rbt.Parameter_File>
/export/apps/rDock/src/rDock_2013.1_src/data/scripts/dock_solv.prm

>  <Rbt.Receptor>
prm/pocket_docking_6.prm

>  <SCORE>
-18.8109

>  <SCORE.INTER>
-16.1793

>  <SCORE.INTER.CONST>
1

>  <SCORE.INTER.POLAR>
0

>  <SCORE.INTER.ROT>
6

>  <SCORE.INTER.SOLV>
16.6227

>  <SCORE.INTER.VDW>
-23.9271

>  <SCORE.INTER.norm>
-0.62228

>  <SCORE.INTRA>
-2.63182

>  <SCORE.INTRA.DIHEDRAL>
-2.22274

>  <SCORE.INTRA.DIHEDRAL.0>
9.33621

>  <SCORE.INTRA.POLAR>
0

>  <SCORE.INTRA.POLAR.0>
0

>  <SCORE.INTRA.REPUL>
0

>  <SCORE.INTRA.REPUL.0>
0

>  <SCORE.INTRA.SOLV>
0.431853

>  <SCORE.INTRA.SOLV.lig_0>
-65.9238

>  <SCORE.INTRA.VDW>
-1.73638

>  <SCORE.INTRA.VDW.0>
-0.405582

>  <SCORE.INTRA.norm>
-0.101224

>  <SCORE.RESTR>
0.000205224

>  <SCORE.RESTR.CAVITY>
0.000205224

>  <SCORE.RESTR.norm>
7.89322e-06

>  <SCORE.SYSTEM>
0

>  <SCORE.SYSTEM.CONST>
0

>  <SCORE.SYSTEM.DIHEDRAL>
0

>  <SCORE.SYSTEM.SOLV>
0

>  <SCORE.SYSTEM.norm>
0

>  <SCORE.heavy>
26

>  <SCORE.norm>
-0.723496

>  <RMSD>
2.342

$$$$
ligand
 OpenBabel11021811443D
libRbt.so/2013.1/901 2013/11/27
 26 28  0  0  0  0  0  0  0  0999 V2000
   16.6130   40.2561   63.8252 C   0  0  0  0  0  0  0  0  0  0  0  0
   21.9954   39.5247   67.8056 C   0  0  0  0  0  0  0  0  0  0  0  0
   27.7501   38.0272   65.7168 P   0  0  1  0  0  0  0  0  0  0  0  0
   29.7397   39.0898   66.9813 P   0  0  1  0  0  0  0  0  0  0  0  0
   21.0988   42.0096   66.8618 C   0  0  0  0  0  0  0  0  0  0  0  0
   19.5011   40.2291   66.0946 C   0  0  0  0  0  0  0  0  0  0  0  0
   19.9113   41.5469   66.0575 C   0  0  0  0  0  0  0  0  0  0  0  0
   19.1979   42.4399   65.2561 C   0  0  0  0  0  0  0  0  0  0  0  0
   19.5700   43.7740   65.1839 N   0  0  0  0  0  0  0  0  0  0  0  0
   18.1591   41.9912   64.5578 N   0  0  0  0  0  0  0  0  0  0  0  0
   17.7990   40.7260   64.6264 C   0  0  0  0  0  0  0  0  0  0  0  0
   18.4519   39.8572   65.3734 N   0  0  0  0  0  0  0  0  0  0  0  0
   27.9118   36.7156   65.0496 O   0  0  0  0  0  0  0  0  0  0  0  0
   29.1471   38.0414   67.9498 O   0  0  0  0  0  0  0  0  0  0  0  0
   24.3104   41.0433   65.0349 S   0  0  0  0  0  0  0  0  0  0  0  0
   22.9727   42.0997   65.3696 C   0  0  0  0  0  0  0  0  0  0  0  0
   27.4821   37.8018   67.2869 O   0  0  0  0  0  0  0  0  0  0  0  0
   31.3351   38.8979   66.8905 O   0  5  0  0  0  0  0  0  0  0  0  0
   22.3236   41.4370   66.2988 N   0  0  0  0  0  0  0  0  0  0  0  0
   29.0908   38.8975   65.5203 O   0  0  0  0  0  0  0  0  0  0  0  0
   29.4212   40.5088   67.5036 O   0  0  0  0  0  0  0  0  0  0  0  0
   22.7514   40.2730   66.7368 C   0  0  2  0  0  0  0  0  0  0  0  0
   23.8857   39.7564   66.1993 C   0  0  2  0  0  0  0  0  0  0  0  0
   24.5920   38.4611   66.5027 C   0  0  0  0  0  0  0  0  0  0  0  0
   25.3513   37.9885   65.2609 C   0  0  0  0  0  0  0  0  0  0  0  0
   26.5033   38.8114   65.0660 O   0  0  0  0  0  0  0  0  0  0  0  0
  1 11  1  0  0  0  0
  3 13  1  6  0  0  0
  3 17  1  0  0  0  0
  3 20  1  0  0  0  0
  3 26  1  0  0  0  0
  4 14  1  0  0  0  0
  4 18  1  6  0  0  0
  4 21  2  0  0  0  0
  4 20  1  0  0  0  0
  5 19  1  0  0  0  0
  5  7  1  0  0  0  0
  6  7  2  0  0  0  0
  6 12  1  0  0  0  0
  7  8  1  0  0  0  0
  8  9  1  0  0  0  0
  8 10  2  0  0  0  0
 10 11  1  0  0  0  0
 11 12  2  0  0  0  0
 14 17  1  0  0  0  0
 15 23  1  0  0  0  0
 15 16  1  0  0  0  0
 16 19  1  0  0  0  0
 19 22  1  0  0  0  0
 22  2  1  6  0  0  0
 22 23  1  0  0  0  0
 23 24  1  1  0  0  0
 24 25  1  0  0  0  0
 25 26  1  0  0  0  0
M  CHG  1  18  -1
M  END
>  <CHROM.1>
90.27257564,69.34279568,-28.24624586,73.24656408,97.03307458,59.57875548
24.39792170,39.85139283,65.97612144,2.90713998,-0.18505970,0.22119031

>  <Name>
ligand

>  <RI>
0

>  <Rbt.Current_Directory>
/home/itssahil/PROJECTS/Mol_Feturizer/New_Systems/rnas/2HOL

>  <Rbt.Executable>
rbdock ($Id: //depot/dev/client3/rdock/2013.1/src/exe/rbdock.cxx#4 $)

>  <Rbt.Library>
libRbt.so (2013.1, Build901 2013/11/27)

>  <Rbt.Parameter_File>
/export/apps/rDock/src/rDock_2013.1_src/data/scripts/dock_solv.prm

>  <Rbt.Receptor>
prm/pocket_docking_2.prm

>  <SCORE>
-18.0647

>  <SCORE.INTER>
-18.5813

>  <SCORE.INTER.CONST>
1

>  <SCORE.INTER.POLAR>
0

>  <SCORE.INTER.ROT>
6

>  <SCORE.INTER.SOLV>
22.5715

>  <SCORE.INTER.VDW>
-27.5113

>  <SCORE.INTER.norm>
-0.714665

>  <SCORE.INTRA>
-0.652462

>  <SCORE.INTRA.DIHEDRAL>
1.02452

>  <SCORE.INTRA.DIHEDRAL.0>
9.33621

>  <SCORE.INTRA.POLAR>
0

>  <SCORE.INTRA.POLAR.0>
0

>  <SCORE.INTRA.REPUL>
0

>  <SCORE.INTRA.REPUL.0>
0

>  <SCORE.INTRA.SOLV>
-0.0709753

>  <SCORE.INTRA.SOLV.lig_0>
-65.9238

>  <SCORE.INTRA.VDW>
-1.12924

>  <SCORE.INTRA.VDW.0>
-0.405582

>  <SCORE.INTRA.norm>
-0.0250947

>  <SCORE.RESTR>
1.16907

>  <SCORE.RESTR.CAVITY>
1.16907

>  <SCORE.RESTR.norm>
0.0449643

>  <SCORE.SYSTEM>
0

>  <SCORE.SYSTEM.CONST>
0

>  <SCORE.SYSTEM.DIHEDRAL>
0

>  <SCORE.SYSTEM.SOLV>
0

>  <SCORE.SYSTEM.norm>
0

>  <SCORE.heavy>
26

>  <SCORE.norm>
-0.694795

>  <RMSD>
2.351

$$$$
ligand
 OpenBabel11021811443D
libRbt.so/2013.1/901 2013/11/27
 26 28  0  0  0  0  0  0  0  0999 V2000
   16.5196   39.8128   63.7772 C   0  0  0  0  0  0  0  0  0  0  0  0
   22.2426   39.1742   67.5248 C   0  0  0  0  0  0  0  0  0  0  0  0
   27.9363   37.7295   66.1293 P   0  0  1  0  0  0  0  0  0  0  0  0
   28.7266   39.9311   67.2316 P   0  0  1  0  0  0  0  0  0  0  0  0
   20.9357   41.5785   66.9076 C   0  0  0  0  0  0  0  0  0  0  0  0
   19.4215   39.7766   66.0288 C   0  0  0  0  0  0  0  0  0  0  0  0
   19.7666   41.1125   66.0785 C   0  0  0  0  0  0  0  0  0  0  0  0
   19.0048   42.0209   65.3415 C   0  0  0  0  0  0  0  0  0  0  0  0
   19.3106   43.3735   65.3575 N   0  0  0  0  0  0  0  0  0  0  0  0
   17.9842   41.5691   64.6186 N   0  0  0  0  0  0  0  0  0  0  0  0
   17.6869   40.2859   64.6036 C   0  0  0  0  0  0  0  0  0  0  0  0
   18.3867   39.4025   65.2883 N   0  0  0  0  0  0  0  0  0  0  0  0
   28.8423   36.5598   66.0780 O   0  0  0  0  0  0  0  0  0  0  0  0
   28.3049   39.0121   68.4002 O   0  0  0  0  0  0  0  0  0  0  0  0
   24.1110   41.2858   64.8060 S   0  0  0  0  0  0  0  0  0  0  0  0
   22.6645   42.0930   65.3288 C   0  0  0  0  0  0  0  0  0  0  0  0
   27.2389   37.8059   67.5769 O   0  0  0  0  0  0  0  0  0  0  0  0
   30.1790   40.5552   67.5343 O   0  5  0  0  0  0  0  0  0  0  0  0
   22.1853   41.2529   66.2168 N   0  0  0  0  0  0  0  0  0  0  0  0
   28.7825   39.0748   65.8691 O   0  0  0  0  0  0  0  0  0  0  0  0
   27.6973   41.0735   67.0799 O   0  0  0  0  0  0  0  0  0  0  0  0
   22.8050   40.1282   66.5014 C   0  0  2  0  0  0  0  0  0  0  0  0
   23.9592   39.8418   65.8471 C   0  0  2  0  0  0  0  0  0  0  0  0
   24.8627   38.6427   65.9679 C   0  0  0  0  0  0  0  0  0  0  0  0
   26.0455   38.7935   65.0086 C   0  0  0  0  0  0  0  0  0  0  0  0
   26.8036   37.5823   64.9942 O   0  0  0  0  0  0  0  0  0  0  0  0
  1 11  1  0  0  0  0
  3 13  1  6  0  0  0
  3 17  1  0  0  0  0
  3 20  1  0  0  0  0
  3 26  1  0  0  0  0
  4 14  1  0  0  0  0
  4 18  1  1  0  0  0
  4 21  2  0  0  0  0
  4 20  1  0  0  0  0
  5 19  1  0  0  0  0
  5  7  1  0  0  0  0
  6  7  2  0  0  0  0
  6 12  1  0  0  0  0
  7  8  1  0  0  0  0
  8  9  1  0  0  0  0
  8 10  2  0  0  0  0
 10 11  1  0  0  0  0
 11 12  2  0  0  0  0
 14 17  1  0  0  0  0
 15 23  1  0  0  0  0
 15 16  1  0  0  0  0
 16 19  1  0  0  0  0
 19 22  1  0  0  0  0
 22  2  1  6  0  0  0
 22 23  1  0  0  0  0
 23 24  1  1  0  0  0
 24 25  1  0  0  0  0
 25 26  1  0  0  0  0
M  CHG  1  18  -1
M  END
>  <CHROM.1>
86.23649455,76.42411887,-0.21295240,-172.40520266,-90.93474339,-174.51226355
24.19567259,39.87545168,66.04237705,2.95956271,-0.19996824,0.19804201

>  <Name>
ligand

>  <RI>
0

>  <Rbt.Current_Directory>
/home/itssahil/PROJECTS/Mol_Feturizer/New_Systems/rnas/2HOL

>  <Rbt.Executable>
rbdock ($Id: //depot/dev/client3/rdock/2013.1/src/exe/rbdock.cxx#4 $)

>  <Rbt.Library>
libRbt.so (2013.1, Build901 2013/11/27)

>  <Rbt.Parameter_File>
/export/apps/rDock/src/rDock_2013.1_src/data/scripts/dock_solv.prm

>  <Rbt.Receptor>
prm/pocket_docking_2.prm

>  <SCORE>
-16.4887

>  <SCORE.INTER>
-16.8258

>  <SCORE.INTER.CONST>
1

>  <SCORE.INTER.POLAR>
0

>  <SCORE.INTER.ROT>
6

>  <SCORE.INTER.SOLV>
18.1716

>  <SCORE.INTER.VDW>
-24.8744

>  <SCORE.INTER.norm>
-0.647145

>  <SCORE.INTRA>
-1.21373

>  <SCORE.INTRA.DIHEDRAL>
-0.730092

>  <SCORE.INTRA.DIHEDRAL.0>
9.33621

>  <SCORE.INTRA.POLAR>
0

>  <SCORE.INTRA.POLAR.0>
0

>  <SCORE.INTRA.REPUL>
0

>  <SCORE.INTRA.REPUL.0>
0

>  <SCORE.INTRA.SOLV>
1.56765

>  <SCORE.INTRA.SOLV.lig_0>
-65.9238

>  <SCORE.INTRA.VDW>
-1.63251

>  <SCORE.INTRA.VDW.0>
-0.405582

>  <SCORE.INTRA.norm>
-0.0466819

>  <SCORE.RESTR>
1.55076

>  <SCORE.RESTR.CAVITY>
1.55076

>  <SCORE.RESTR.norm>
0.0596448

>  <SCORE.SYSTEM>
0

>  <SCORE.SYSTEM.CONST>
0

>  <SCORE.SYSTEM.DIHEDRAL>
0

>  <SCORE.SYSTEM.SOLV>
0

>  <SCORE.SYSTEM.norm>
0

>  <SCORE.heavy>
26

>  <SCORE.norm>
-0.634182

>  <RMSD>
2.441

$$$$
ligand
 OpenBabel11021811443D
libRbt.so/2013.1/901 2013/11/27
 26 28  0  0  0  0  0  0  0  0999 V2000
   16.3712   39.6179   63.9493 C   0  0  0  0  0  0  0  0  0  0  0  0
   23.5646   41.7887   65.2879 C   0  0  0  0  0  0  0  0  0  0  0  0
   27.6946   37.9143   65.9303 P   0  0  1  0  0  0  0  0  0  0  0  0
   28.9785   39.6099   67.4011 P   0  0  1  0  0  0  0  0  0  0  0  0
   20.9521   42.0794   66.2676 C   0  0  0  0  0  0  0  0  0  0  0  0
   18.5288   42.0869   65.6049 C   0  0  0  0  0  0  0  0  0  0  0  0
   19.7404   41.4266   65.6537 C   0  0  0  0  0  0  0  0  0  0  0  0
   19.8146   40.1390   65.1197 C   0  0  0  0  0  0  0  0  0  0  0  0
   21.0083   39.4334   65.1446 N   0  0  0  0  0  0  0  0  0  0  0  0
   18.7216   39.5962   64.5915 N   0  0  0  0  0  0  0  0  0  0  0  0
   17.5866   40.2639   64.5614 C   0  0  0  0  0  0  0  0  0  0  0  0
   17.4833   41.4814   65.0575 N   0  0  0  0  0  0  0  0  0  0  0  0
   28.3768   36.6970   65.4358 O   0  0  0  0  0  0  0  0  0  0  0  0
   28.5611   38.4682   68.3553 O   0  0  0  0  0  0  0  0  0  0  0  0
   22.7100   39.2663   68.1601 S   0  0  0  0  0  0  0  0  0  0  0  0
   21.3514   40.2919   67.8141 C   0  0  0  0  0  0  0  0  0  0  0  0
   27.2109   37.6805   67.4466 O   0  0  0  0  0  0  0  0  0  0  0  0
   30.5418   39.9355   67.6025 O   0  5  0  0  0  0  0  0  0  0  0  0
   21.8180   41.0522   66.8506 N   0  0  0  0  0  0  0  0  0  0  0  0
   28.7149   39.1592   65.8779 O   0  0  0  0  0  0  0  0  0  0  0  0
   28.1453   40.8725   67.7161 O   0  0  0  0  0  0  0  0  0  0  0  0
   23.0438   40.9085   66.3960 C   0  0  2  0  0  0  0  0  0  0  0  0
   23.8326   39.9543   66.9525 C   0  0  2  0  0  0  0  0  0  0  0  0
   25.2565   39.5776   66.6370 C   0  0  0  0  0  0  0  0  0  0  0  0
   25.2778   38.2577   65.8629 C   0  0  0  0  0  0  0  0  0  0  0  0
   26.4176   38.2299   65.0015 O   0  0  0  0  0  0  0  0  0  0  0  0
  1 11  1  0  0  0  0
  3 13  1  6  0  0  0
  3 17  1  0  0  0  0
  3 20  1  0  0  0  0
  3 26  1  0  0  0  0
  4 14  1  0  0  0  0
  4 18  1  1  0  0  0
  4 21  2  0  0  0  0
  4 20  1  0  0  0  0
  5 19  1  0  0  0  0
  5  7  1  0  0  0  0
  6  7  2  0  0  0  0
  6 12  1  0  0  0  0
  7  8  1  0  0  0  0
  8  9  1  0  0  0  0
  8 10  2  0  0  0  0
 10 11  1  0  0  0  0
 11 12  2  0  0  0  0
 14 17  1  0  0  0  0
 15 23  1  0  0  0  0
 15 16  1  0  0  0  0
 16 19  1  0  0  0  0
 19 22  1  0  0  0  0
 22  2  1  1  0  0  0
 22 23  1  0  0  0  0
 23 24  1  6  0  0  0
 24 25  1  0  0  0  0
 25 26  1  0  0  0  0
M  CHG  1  18  -1
M  END
>  <CHROM.1>
-60.86714987,149.48555451,74.34975813,150.54142783,76.69763650,122.77389082
24.12230938,39.66345320,66.32257054,3.08711828,-0.23948274,0.63102370

>  <Name>
ligand

>  <RI>
0

>  <Rbt.Current_Directory>
/home/itssahil/PROJECTS/Mol_Feturizer/New_Systems/rnas/2HOL

>  <Rbt.Executable>
rbdock ($Id: //depot/dev/client3/rdock/2013.1/src/exe/rbdock.cxx#4 $)

>  <Rbt.Library>
libRbt.so (2013.1, Build901 2013/11/27)

>  <Rbt.Parameter_File>
/export/apps/rDock/src/rDock_2013.1_src/data/scripts/dock_solv.prm

>  <Rbt.Receptor>
prm/pocket_docking_2.prm

>  <SCORE>
-13.3362

>  <SCORE.INTER>
-20.1221

>  <SCORE.INTER.CONST>
1

>  <SCORE.INTER.POLAR>
0

>  <SCORE.INTER.ROT>
6

>  <SCORE.INTER.SOLV>
13.9896

>  <SCORE.INTER.VDW>
-25.6779

>  <SCORE.INTER.norm>
-0.773928

>  <SCORE.INTRA>
5.751

>  <SCORE.INTRA.DIHEDRAL>
2.09368

>  <SCORE.INTRA.DIHEDRAL.0>
9.33621

>  <SCORE.INTRA.POLAR>
0

>  <SCORE.INTRA.POLAR.0>
0

>  <SCORE.INTRA.REPUL>
0

>  <SCORE.INTRA.REPUL.0>
0

>  <SCORE.INTRA.SOLV>
6.35777

>  <SCORE.INTRA.SOLV.lig_0>
-65.9238

>  <SCORE.INTRA.VDW>
1.52528

>  <SCORE.INTRA.VDW.0>
-0.405582

>  <SCORE.INTRA.norm>
0.221192

>  <SCORE.RESTR>
1.0349

>  <SCORE.RESTR.CAVITY>
1.0349

>  <SCORE.RESTR.norm>
0.0398039

>  <SCORE.SYSTEM>
0

>  <SCORE.SYSTEM.CONST>
0

>  <SCORE.SYSTEM.DIHEDRAL>
0

>  <SCORE.SYSTEM.SOLV>
0

>  <SCORE.SYSTEM.norm>
0

>  <SCORE.heavy>
26

>  <SCORE.norm>
-0.512931

>  <RMSD>
2.456

$$$$
ligand
 OpenBabel11021811443D
libRbt.so/2013.1/901 2013/11/27
 26 28  0  0  0  0  0  0  0  0999 V2000
   16.3475   39.6547   63.8976 C   0  0  0  0  0  0  0  0  0  0  0  0
   23.2893   40.2884   64.9096 C   0  0  0  0  0  0  0  0  0  0  0  0
   27.4818   40.4205   67.2038 P   0  0  1  0  0  0  0  0  0  0  0  0
   27.6208   40.5579   69.7823 P   0  0  1  0  0  0  0  0  0  0  0  0
   21.1739   41.5697   66.2336 C   0  0  0  0  0  0  0  0  0  0  0  0
   19.7351   39.7261   65.3156 C   0  0  0  0  0  0  0  0  0  0  0  0
   19.8959   41.0642   65.6153 C   0  0  0  0  0  0  0  0  0  0  0  0
   18.8442   41.9372   65.3312 C   0  0  0  0  0  0  0  0  0  0  0  0
   18.9560   43.2906   65.6127 N   0  0  0  0  0  0  0  0  0  0  0  0
   17.7349   41.4526   64.7809 N   0  0  0  0  0  0  0  0  0  0  0  0
   17.6221   40.1673   64.5157 C   0  0  0  0  0  0  0  0  0  0  0  0
   18.5968   39.3168   64.7716 N   0  0  0  0  0  0  0  0  0  0  0  0
   28.1657   41.4346   66.3699 O   0  0  0  0  0  0  0  0  0  0  0  0
   28.9508   39.9136   69.3306 O   0  0  0  0  0  0  0  0  0  0  0  0
   22.5652   38.7937   68.4570 S   0  0  0  0  0  0  0  0  0  0  0  0
   21.4751   40.0988   68.1022 C   0  0  0  0  0  0  0  0  0  0  0  0
   28.5437   39.3083   67.6762 O   0  0  0  0  0  0  0  0  0  0  0  0
   27.9257   41.7591   70.8092 O   0  5  0  0  0  0  0  0  0  0  0  0
   21.8637   40.4645   66.9026 N   0  0  0  0  0  0  0  0  0  0  0  0
   26.8402   41.1341   68.4972 O   0  0  0  0  0  0  0  0  0  0  0  0
   26.7461   39.4931   70.4813 O   0  0  0  0  0  0  0  0  0  0  0  0
   22.8556   39.8576   66.2881 C   0  0  2  0  0  0  0  0  0  0  0  0
   23.4857   38.8387   66.9264 C   0  0  2  0  0  0  0  0  0  0  0  0
   24.6374   37.9820   66.4699 C   0  0  0  0  0  0  0  0  0  0  0  0
   25.9441   38.5297   67.0483 C   0  0  0  0  0  0  0  0  0  0  0  0
   26.3138   39.7182   66.3461 O   0  0  0  0  0  0  0  0  0  0  0  0
  1 11  1  0  0  0  0
  3 13  1  6  0  0  0
  3 17  1  0  0  0  0
  3 20  1  0  0  0  0
  3 26  1  0  0  0  0
  4 14  1  0  0  0  0
  4 18  1  1  0  0  0
  4 21  2  0  0  0  0
  4 20  1  0  0  0  0
  5 19  1  0  0  0  0
  5  7  1  0  0  0  0
  6  7  2  0  0  0  0
  6 12  1  0  0  0  0
  7  8  1  0  0  0  0
  8  9  1  0  0  0  0
  8 10  2  0  0  0  0
 10 11  1  0  0  0  0
 11 12  2  0  0  0  0
 14 17  1  0  0  0  0
 15 23  1  0  0  0  0
 15 16  1  0  0  0  0
 16 19  1  0  0  0  0
 19 22  1  0  0  0  0
 22  2  1  1  0  0  0
 22 23  1  0  0  0  0
 23 24  1  6  0  0  0
 24 25  1  0  0  0  0
 25 26  1  0  0  0  0
M  CHG  1  18  -1
M  END
>  <CHROM.1>
-80.74095357,-22.32672035,-82.95660262,-74.47952408,167.26510105,164.48796489
23.75921199,40.21926317,67.10939717,-2.79830087,-0.15844947,1.25043473

>  <Name>
ligand

>  <RI>
0

>  <Rbt.Current_Directory>
/home/itssahil/PROJECTS/Mol_Feturizer/New_Systems/rnas/2HOL

>  <Rbt.Executable>
rbdock ($Id: //depot/dev/client3/rdock/2013.1/src/exe/rbdock.cxx#4 $)

>  <Rbt.Library>
libRbt.so (2013.1, Build901 2013/11/27)

>  <Rbt.Parameter_File>
/export/apps/rDock/src/rDock_2013.1_src/data/scripts/dock_solv.prm

>  <Rbt.Receptor>
prm/pocket_docking_4.prm

>  <SCORE>
-20.602

>  <SCORE.INTER>
-17.2852

>  <SCORE.INTER.CONST>
1

>  <SCORE.INTER.POLAR>
0

>  <SCORE.INTER.ROT>
6

>  <SCORE.INTER.SOLV>
22.116

>  <SCORE.INTER.VDW>
-26.4955

>  <SCORE.INTER.norm>
-0.664814

>  <SCORE.INTRA>
-3.31687

>  <SCORE.INTRA.DIHEDRAL>
-2.45758

>  <SCORE.INTRA.DIHEDRAL.0>
9.33621

>  <SCORE.INTRA.POLAR>
0

>  <SCORE.INTRA.POLAR.0>
0

>  <SCORE.INTRA.REPUL>
0

>  <SCORE.INTRA.REPUL.0>
0

>  <SCORE.INTRA.SOLV>
0.239005

>  <SCORE.INTRA.SOLV.lig_0>
-65.9238

>  <SCORE.INTRA.VDW>
-2.20759

>  <SCORE.INTRA.VDW.0>
-0.405582

>  <SCORE.INTRA.norm>
-0.127572

>  <SCORE.RESTR>
0

>  <SCORE.RESTR.CAVITY>
0

>  <SCORE.RESTR.norm>
0

>  <SCORE.SYSTEM>
0

>  <SCORE.SYSTEM.CONST>
0

>  <SCORE.SYSTEM.DIHEDRAL>
0

>  <SCORE.SYSTEM.SOLV>
0

>  <SCORE.SYSTEM.norm>
0

>  <SCORE.heavy>
26

>  <SCORE.norm>
-0.792387

>  <RMSD>
2.458

$$$$
ligand
 OpenBabel11021811443D
libRbt.so/2013.1/901 2013/11/27
 26 28  0  0  0  0  0  0  0  0999 V2000
   16.1397   39.4437   63.8605 C   0  0  0  0  0  0  0  0  0  0  0  0
   21.9612   40.4614   68.6606 C   0  0  0  0  0  0  0  0  0  0  0  0
   27.5411   38.0882   66.3270 P   0  0  1  0  0  0  0  0  0  0  0  0
   29.0383   39.9858   67.2459 P   0  0  1  0  0  0  0  0  0  0  0  0
   20.8345   41.5229   66.3211 C   0  0  0  0  0  0  0  0  0  0  0  0
   19.2876   39.6292   65.7442 C   0  0  0  0  0  0  0  0  0  0  0  0
   19.5915   40.9739   65.6692 C   0  0  0  0  0  0  0  0  0  0  0  0
   18.7179   41.8123   64.9746 C   0  0  0  0  0  0  0  0  0  0  0  0
   18.9784   43.1705   64.8699 N   0  0  0  0  0  0  0  0  0  0  0  0
   17.6344   41.2882   64.4092 N   0  0  0  0  0  0  0  0  0  0  0  0
   17.3803   39.9996   64.5095 C   0  0  0  0  0  0  0  0  0  0  0  0
   18.1853   39.1810   65.1582 N   0  0  0  0  0  0  0  0  0  0  0  0
   27.8754   37.4384   65.0395 O   0  0  0  0  0  0  0  0  0  0  0  0
   29.7681   38.6723   67.6066 O   0  0  0  0  0  0  0  0  0  0  0  0
   23.5927   39.0504   65.3911 S   0  0  0  0  0  0  0  0  0  0  0  0
   22.3392   40.1920   65.0131 C   0  0  0  0  0  0  0  0  0  0  0  0
   28.4392   37.4509   67.4996 O   0  0  0  0  0  0  0  0  0  0  0  0
   30.0750   41.0062   66.5570 O   0  5  0  0  0  0  0  0  0  0  0  0
   21.9192   40.5456   66.2057 N   0  0  0  0  0  0  0  0  0  0  0  0
   27.8363   39.6679   66.2227 O   0  0  0  0  0  0  0  0  0  0  0  0
   28.4653   40.6242   68.5310 O   0  0  0  0  0  0  0  0  0  0  0  0
   22.4537   40.0441   67.2978 C   0  0  2  0  0  0  0  0  0  0  0  0
   23.4546   39.1361   67.1703 C   0  0  2  0  0  0  0  0  0  0  0  0
   24.2343   38.4068   68.2328 C   0  0  0  0  0  0  0  0  0  0  0  0
   25.7294   38.4850   67.9156 C   0  0  0  0  0  0  0  0  0  0  0  0
   25.9823   37.8561   66.6576 O   0  0  0  0  0  0  0  0  0  0  0  0
  1 11  1  0  0  0  0
  3 13  1  6  0  0  0
  3 17  1  0  0  0  0
  3 20  1  0  0  0  0
  3 26  1  0  0  0  0
  4 14  1  0  0  0  0
  4 18  1  6  0  0  0
  4 21  2  0  0  0  0
  4 20  1  0  0  0  0
  5 19  1  0  0  0  0
  5  7  1  0  0  0  0
  6  7  2  0  0  0  0
  6 12  1  0  0  0  0
  7  8  1  0  0  0  0
  8  9  1  0  0  0  0
  8 10  2  0  0  0  0
 10 11  1  0  0  0  0
 11 12  2  0  0  0  0
 14 17  1  0  0  0  0
 15 23  1  0  0  0  0
 15 16  1  0  0  0  0
 16 19  1  0  0  0  0
 19 22  1  0  0  0  0
 22  2  1  6  0  0  0
 22 23  1  0  0  0  0
 23 24  1  1  0  0  0
 24 25  1  0  0  0  0
 25 26  1  0  0  0  0
M  CHG  1  18  -1
M  END
>  <CHROM.1>
61.69901578,36.11464963,47.07844460,-61.22405103,175.11230568,179.07924728
24.01528214,39.64085133,66.31333599,3.04784154,-0.22654294,0.27855831

>  <Name>
ligand

>  <RI>
0

>  <Rbt.Current_Directory>
/home/itssahil/PROJECTS/Mol_Feturizer/New_Systems/rnas/2HOL

>  <Rbt.Executable>
rbdock ($Id: //depot/dev/client3/rdock/2013.1/src/exe/rbdock.cxx#4 $)

>  <Rbt.Library>
libRbt.so (2013.1, Build901 2013/11/27)

>  <Rbt.Parameter_File>
/export/apps/rDock/src/rDock_2013.1_src/data/scripts/dock_solv.prm

>  <Rbt.Receptor>
prm/pocket_docking_2.prm

>  <SCORE>
-21.974

>  <SCORE.INTER>
-18.7119

>  <SCORE.INTER.CONST>
1

>  <SCORE.INTER.POLAR>
0

>  <SCORE.INTER.ROT>
6

>  <SCORE.INTER.SOLV>
19.3778

>  <SCORE.INTER.VDW>
-26.5339

>  <SCORE.INTER.norm>
-0.719688

>  <SCORE.INTRA>
-3.88357

>  <SCORE.INTRA.DIHEDRAL>
-4.1106

>  <SCORE.INTRA.DIHEDRAL.0>
9.33621

>  <SCORE.INTRA.POLAR>
0

>  <SCORE.INTRA.POLAR.0>
0

>  <SCORE.INTRA.REPUL>
0

>  <SCORE.INTRA.REPUL.0>
0

>  <SCORE.INTRA.SOLV>
0.201141

>  <SCORE.INTRA.SOLV.lig_0>
-65.9238

>  <SCORE.INTRA.VDW>
-1.92884

>  <SCORE.INTRA.VDW.0>
-0.405582

>  <SCORE.INTRA.norm>
-0.149368

>  <SCORE.RESTR>
0.621413

>  <SCORE.RESTR.CAVITY>
0.621413

>  <SCORE.RESTR.norm>
0.0239005

>  <SCORE.SYSTEM>
0

>  <SCORE.SYSTEM.CONST>
0

>  <SCORE.SYSTEM.DIHEDRAL>
0

>  <SCORE.SYSTEM.SOLV>
0

>  <SCORE.SYSTEM.norm>
0

>  <SCORE.heavy>
26

>  <SCORE.norm>
-0.845155

>  <RMSD>
2.501

$$$$
ligand
 OpenBabel11021811443D
libRbt.so/2013.1/901 2013/11/27
 26 28  0  0  0  0  0  0  0  0999 V2000
   16.1513   39.4258   63.9853 C   0  0  0  0  0  0  0  0  0  0  0  0
   23.6295   40.9531   65.3936 C   0  0  0  0  0  0  0  0  0  0  0  0
   27.1990   40.4776   68.5197 P   0  0  1  0  0  0  0  0  0  0  0  0
   28.2150   42.2301   66.9126 P   0  0  1  0  0  0  0  0  0  0  0  0
   20.9860   41.5286   66.1352 C   0  0  0  0  0  0  0  0  0  0  0  0
   18.5407   41.7093   65.5880 C   0  0  0  0  0  0  0  0  0  0  0  0
   19.7070   40.9708   65.5659 C   0  0  0  0  0  0  0  0  0  0  0  0
   19.6715   39.6941   65.0023 C   0  0  0  0  0  0  0  0  0  0  0  0
   20.8159   38.9120   64.9563 N   0  0  0  0  0  0  0  0  0  0  0  0
   18.5221   39.2362   64.5152 N   0  0  0  0  0  0  0  0  0  0  0  0
   17.4335   39.9768   64.5526 C   0  0  0  0  0  0  0  0  0  0  0  0
   17.4336   41.1863   65.0781 N   0  0  0  0  0  0  0  0  0  0  0  0
   27.1828   40.7313   69.9782 O   0  0  0  0  0  0  0  0  0  0  0  0
   26.7955   42.7450   67.2413 O   0  0  0  0  0  0  0  0  0  0  0  0
   22.3297   38.7017   68.3234 S   0  0  0  0  0  0  0  0  0  0  0  0
   21.1006   39.8158   67.8083 C   0  0  0  0  0  0  0  0  0  0  0  0
   25.9683   41.2476   67.8268 O   0  0  0  0  0  0  0  0  0  0  0  0
   29.2788   43.4220   67.1081 O   0  5  0  0  0  0  0  0  0  0  0  0
   21.7074   40.4703   66.8454 N   0  0  0  0  0  0  0  0  0  0  0  0
   28.5853   41.0117   67.8981 O   0  0  0  0  0  0  0  0  0  0  0  0
   28.2565   41.7388   65.4482 O   0  0  0  0  0  0  0  0  0  0  0  0
   22.9467   40.1933   66.5028 C   0  0  2  0  0  0  0  0  0  0  0  0
   23.6003   39.2125   67.1760 C   0  0  2  0  0  0  0  0  0  0  0  0
   25.0044   38.6957   67.0016 C   0  0  0  0  0  0  0  0  0  0  0  0
   25.6786   38.5725   68.3698 C   0  0  0  0  0  0  0  0  0  0  0  0
   27.0651   38.8961   68.2477 O   0  0  0  0  0  0  0  0  0  0  0  0
  1 11  1  0  0  0  0
  3 13  1  1  0  0  0
  3 17  1  0  0  0  0
  3 20  1  0  0  0  0
  3 26  1  0  0  0  0
  4 14  1  0  0  0  0
  4 18  1  1  0  0  0
  4 21  2  0  0  0  0
  4 20  1  0  0  0  0
  5 19  1  0  0  0  0
  5  7  1  0  0  0  0
  6  7  2  0  0  0  0
  6 12  1  0  0  0  0
  7  8  1  0  0  0  0
  8  9  1  0  0  0  0
  8 10  2  0  0  0  0
 10 11  1  0  0  0  0
 11 12  2  0  0  0  0
 14 17  1  0  0  0  0
 15 23  1  0  0  0  0
 15 16  1  0  0  0  0
 16 19  1  0  0  0  0
 19 22  1  0  0  0  0
 22  2  1  1  0  0  0
 22 23  1  0  0  0  0
 23 24  1  6  0  0  0
 24 25  1  0  0  0  0
 25 26  1  0  0  0  0
M  CHG  1  18  -1
M  END
>  <CHROM.1>
-55.78902163,140.42610543,-46.59712190,-144.70253633,90.79515420,80.28083345
23.77120025,40.48748615,66.82345088,-3.08319191,0.29057309,2.45974943

>  <Name>
ligand

>  <RI>
0

>  <Rbt.Current_Directory>
/home/itssahil/PROJECTS/Mol_Feturizer/New_Systems/rnas/2HOL

>  <Rbt.Executable>
rbdock ($Id: //depot/dev/client3/rdock/2013.1/src/exe/rbdock.cxx#4 $)

>  <Rbt.Library>
libRbt.so (2013.1, Build901 2013/11/27)

>  <Rbt.Parameter_File>
/export/apps/rDock/src/rDock_2013.1_src/data/scripts/dock_solv.prm

>  <Rbt.Receptor>
prm/pocket_docking_6.prm

>  <SCORE>
-15.5296

>  <SCORE.INTER>
-18.1442

>  <SCORE.INTER.CONST>
1

>  <SCORE.INTER.POLAR>
0

>  <SCORE.INTER.ROT>
6

>  <SCORE.INTER.SOLV>
12.4242

>  <SCORE.INTER.VDW>
-23.8375

>  <SCORE.INTER.norm>
-0.697854

>  <SCORE.INTRA>
2.61389

>  <SCORE.INTRA.DIHEDRAL>
3.62394

>  <SCORE.INTRA.DIHEDRAL.0>
9.33621

>  <SCORE.INTRA.POLAR>
0

>  <SCORE.INTRA.POLAR.0>
0

>  <SCORE.INTRA.REPUL>
0

>  <SCORE.INTRA.REPUL.0>
0

>  <SCORE.INTRA.SOLV>
4.21313

>  <SCORE.INTRA.SOLV.lig_0>
-65.9238

>  <SCORE.INTRA.VDW>
-1.30464

>  <SCORE.INTRA.VDW.0>
-0.405582

>  <SCORE.INTRA.norm>
0.100534

>  <SCORE.RESTR>
0.00066962

>  <SCORE.RESTR.CAVITY>
0.00066962

>  <SCORE.RESTR.norm>
2.57546e-05

>  <SCORE.SYSTEM>
0

>  <SCORE.SYSTEM.CONST>
0

>  <SCORE.SYSTEM.DIHEDRAL>
0

>  <SCORE.SYSTEM.SOLV>
0

>  <SCORE.SYSTEM.norm>
0

>  <SCORE.heavy>
26

>  <SCORE.norm>
-0.597294

>  <RMSD>
2.531

$$$$
ligand
 OpenBabel11021811443D
libRbt.so/2013.1/901 2013/11/27
 26 28  0  0  0  0  0  0  0  0999 V2000
   15.7957   39.2876   63.6473 C   0  0  0  0  0  0  0  0  0  0  0  0
   22.4485   43.3441   66.5777 C   0  0  0  0  0  0  0  0  0  0  0  0
   26.2414   39.3453   67.6936 P   0  0  1  0  0  0  0  0  0  0  0  0
   28.2158   38.2881   66.4010 P   0  0  1  0  0  0  0  0  0  0  0  0
   20.1450   41.7567   66.3686 C   0  0  0  0  0  0  0  0  0  0  0  0
   18.6155   39.8097   65.9426 C   0  0  0  0  0  0  0  0  0  0  0  0
   18.9936   41.1044   65.6474 C   0  0  0  0  0  0  0  0  0  0  0  0
   18.2821   41.7941   64.6643 C   0  0  0  0  0  0  0  0  0  0  0  0
   18.6226   43.0964   64.3306 N   0  0  0  0  0  0  0  0  0  0  0  0
   17.2757   41.1815   64.0476 N   0  0  0  0  0  0  0  0  0  0  0  0
   16.9456   39.9462   64.3639 C   0  0  0  0  0  0  0  0  0  0  0  0
   17.5976   39.2674   65.2876 N   0  0  0  0  0  0  0  0  0  0  0  0
   25.3481   38.4918   68.5091 O   0  0  0  0  0  0  0  0  0  0  0  0
   28.7052   38.4286   67.8601 O   0  0  0  0  0  0  0  0  0  0  0  0
   23.1025   39.9108   64.8095 S   0  0  0  0  0  0  0  0  0  0  0  0
   21.4338   40.0617   65.2677 C   0  0  0  0  0  0  0  0  0  0  0  0
   27.5775   39.6749   68.5266 O   0  0  0  0  0  0  0  0  0  0  0  0
   28.5184   36.7983   65.8726 O   0  5  0  0  0  0  0  0  0  0  0  0
   21.4091   41.2463   65.8334 N   0  0  0  0  0  0  0  0  0  0  0  0
   26.6318   38.5701   66.3370 O   0  0  0  0  0  0  0  0  0  0  0  0
   28.9573   39.3102   65.5104 O   0  0  0  0  0  0  0  0  0  0  0  0
   22.4934   41.9849   65.9263 C   0  0  2  0  0  0  0  0  0  0  0  0
   23.6564   41.4925   65.4289 C   0  0  2  0  0  0  0  0  0  0  0  0
   25.0303   42.1092   65.4028 C   0  0  0  0  0  0  0  0  0  0  0  0
   26.0274   41.1683   66.0829 C   0  0  0  0  0  0  0  0  0  0  0  0
   25.4848   40.7184   67.3260 O   0  0  0  0  0  0  0  0  0  0  0  0
  1 11  1  0  0  0  0
  3 13  1  1  0  0  0
  3 17  1  0  0  0  0
  3 20  1  0  0  0  0
  3 26  1  0  0  0  0
  4 14  1  0  0  0  0
  4 18  1  6  0  0  0
  4 21  2  0  0  0  0
  4 20  1  0  0  0  0
  5 19  1  0  0  0  0
  5  7  1  0  0  0  0
  6  7  2  0  0  0  0
  6 12  1  0  0  0  0
  7  8  1  0  0  0  0
  8  9  1  0  0  0  0
  8 10  2  0  0  0  0
 10 11  1  0  0  0  0
 11 12  2  0  0  0  0
 14 17  1  0  0  0  0
 15 23  1  0  0  0  0
 15 16  1  0  0  0  0
 16 19  1  0  0  0  0
 19 22  1  0  0  0  0
 22  2  1  1  0  0  0
 22 23  1  0  0  0  0
 23 24  1  6  0  0  0
 24 25  1  0  0  0  0
 25 26  1  0  0  0  0
M  CHG  1  18  -1
M  END
>  <CHROM.1>
-25.07098802,76.89525304,-56.28071497,-47.37228460,157.77346387,-151.54687116
23.42190556,40.11333196,66.01159119,2.96289518,-0.24030525,0.10661051

>  <Name>
ligand

>  <RI>
0

>  <Rbt.Current_Directory>
/home/itssahil/PROJECTS/Mol_Feturizer/New_Systems/rnas/2HOL

>  <Rbt.Executable>
rbdock ($Id: //depot/dev/client3/rdock/2013.1/src/exe/rbdock.cxx#4 $)

>  <Rbt.Library>
libRbt.so (2013.1, Build901 2013/11/27)

>  <Rbt.Parameter_File>
/export/apps/rDock/src/rDock_2013.1_src/data/scripts/dock_solv.prm

>  <Rbt.Receptor>
prm/pocket_docking_3.prm

>  <SCORE>
-14.7686

>  <SCORE.INTER>
-14.612

>  <SCORE.INTER.CONST>
1

>  <SCORE.INTER.POLAR>
0

>  <SCORE.INTER.ROT>
6

>  <SCORE.INTER.SOLV>
21.0798

>  <SCORE.INTER.VDW>
-24.3679

>  <SCORE.INTER.norm>
-0.562001

>  <SCORE.INTRA>
-0.272382

>  <SCORE.INTRA.DIHEDRAL>
-0.321631

>  <SCORE.INTRA.DIHEDRAL.0>
9.33621

>  <SCORE.INTRA.POLAR>
0

>  <SCORE.INTRA.POLAR.0>
0

>  <SCORE.INTRA.REPUL>
0

>  <SCORE.INTRA.REPUL.0>
0

>  <SCORE.INTRA.SOLV>
1.0391

>  <SCORE.INTRA.SOLV.lig_0>
-65.9238

>  <SCORE.INTRA.VDW>
-0.631119

>  <SCORE.INTRA.VDW.0>
-0.405582

>  <SCORE.INTRA.norm>
-0.0104762

>  <SCORE.RESTR>
0.115796

>  <SCORE.RESTR.CAVITY>
0.115796

>  <SCORE.RESTR.norm>
0.0044537

>  <SCORE.SYSTEM>
0

>  <SCORE.SYSTEM.CONST>
0

>  <SCORE.SYSTEM.DIHEDRAL>
0

>  <SCORE.SYSTEM.SOLV>
0

>  <SCORE.SYSTEM.norm>
0

>  <SCORE.heavy>
26

>  <SCORE.norm>
-0.568023

>  <RMSD>
2.540

$$$$
ligand
 OpenBabel11021811443D
libRbt.so/2013.1/901 2013/11/27
 26 28  0  0  0  0  0  0  0  0999 V2000
   15.6498   39.4098   63.4982 C   0  0  0  0  0  0  0  0  0  0  0  0
   22.6396   42.4738   65.8867 C   0  0  0  0  0  0  0  0  0  0  0  0
   26.9442   38.9073   66.3616 P   0  0  1  0  0  0  0  0  0  0  0  0
   29.3428   38.7917   67.3206 P   0  0  1  0  0  0  0  0  0  0  0  0
   20.2921   41.0178   66.3760 C   0  0  0  0  0  0  0  0  0  0  0  0
   18.5915   39.2986   65.6951 C   0  0  0  0  0  0  0  0  0  0  0  0
   19.0633   40.5936   65.6136 C   0  0  0  0  0  0  0  0  0  0  0  0
   18.3729   41.5002   64.8074 C   0  0  0  0  0  0  0  0  0  0  0  0
   18.8064   42.8124   64.6914 N   0  0  0  0  0  0  0  0  0  0  0  0
   17.2959   41.0853   64.1470 N   0  0  0  0  0  0  0  0  0  0  0  0
   16.8775   39.8411   64.2572 C   0  0  0  0  0  0  0  0  0  0  0  0
   17.5072   38.9604   65.0101 N   0  0  0  0  0  0  0  0  0  0  0  0
   26.6835   38.4890   64.9656 O   0  0  0  0  0  0  0  0  0  0  0  0
   28.7955   37.3488   67.4017 O   0  0  0  0  0  0  0  0  0  0  0  0
   22.9768   38.6720   65.0068 S   0  0  0  0  0  0  0  0  0  0  0  0
   21.3863   39.0284   65.6072 C   0  0  0  0  0  0  0  0  0  0  0  0
   27.0086   37.6085   67.3085 O   0  0  0  0  0  0  0  0  0  0  0  0
   30.8031   38.7765   66.6440 O   0  5  0  0  0  0  0  0  0  0  0  0
   21.4633   40.3175   65.8441 N   0  0  0  0  0  0  0  0  0  0  0  0
   28.3478   39.6937   66.4324 O   0  0  0  0  0  0  0  0  0  0  0  0
   29.4419   39.3838   68.7444 O   0  0  0  0  0  0  0  0  0  0  0  0
   22.5673   40.9931   65.6107 C   0  0  2  0  0  0  0  0  0  0  0  0
   23.6435   40.3255   65.1224 C   0  0  2  0  0  0  0  0  0  0  0  0
   25.0163   40.8369   64.7718 C   0  0  0  0  0  0  0  0  0  0  0  0
   25.8243   41.0553   66.0530 C   0  0  0  0  0  0  0  0  0  0  0  0
   25.7612   39.8787   66.8615 O   0  0  0  0  0  0  0  0  0  0  0  0
  1 11  1  0  0  0  0
  3 13  1  6  0  0  0
  3 17  1  0  0  0  0
  3 20  1  0  0  0  0
  3 26  1  0  0  0  0
  4 14  1  0  0  0  0
  4 18  1  6  0  0  0
  4 21  2  0  0  0  0
  4 20  1  0  0  0  0
  5 19  1  0  0  0  0
  5  7  1  0  0  0  0
  6  7  2  0  0  0  0
  6 12  1  0  0  0  0
  7  8  1  0  0  0  0
  8  9  1  0  0  0  0
  8 10  2  0  0  0  0
 10 11  1  0  0  0  0
 11 12  2  0  0  0  0
 14 17  1  0  0  0  0
 15 23  1  0  0  0  0
 15 16  1  0  0  0  0
 16 19  1  0  0  0  0
 19 22  1  0  0  0  0
 22  2  1  1  0  0  0
 22 23  1  0  0  0  0
 23 24  1  6  0  0  0
 24 25  1  0  0  0  0
 25 26  1  0  0  0  0
M  CHG  1  18  -1
M  END
>  <CHROM.1>
-45.33104372,66.32625326,-103.50995043,50.69480635,86.55678013,-64.43469947
23.76994547,39.70740417,65.87480670,2.99898306,-0.21534778,0.02478365

>  <Name>
ligand

>  <RI>
0

>  <Rbt.Current_Directory>
/home/itssahil/PROJECTS/Mol_Feturizer/New_Systems/rnas/2HOL

>  <Rbt.Executable>
rbdock ($Id: //depot/dev/client3/rdock/2013.1/src/exe/rbdock.cxx#4 $)

>  <Rbt.Library>
libRbt.so (2013.1, Build901 2013/11/27)

>  <Rbt.Parameter_File>
/export/apps/rDock/src/rDock_2013.1_src/data/scripts/dock_solv.prm

>  <Rbt.Receptor>
prm/pocket_docking_4.prm

>  <SCORE>
-18.663

>  <SCORE.INTER>
-17.9854

>  <SCORE.INTER.CONST>
1

>  <SCORE.INTER.POLAR>
0

>  <SCORE.INTER.ROT>
6

>  <SCORE.INTER.SOLV>
22.0964

>  <SCORE.INTER.VDW>
-26.9557

>  <SCORE.INTER.norm>
-0.691744

>  <SCORE.INTRA>
-0.677685

>  <SCORE.INTRA.DIHEDRAL>
-1.34911

>  <SCORE.INTRA.DIHEDRAL.0>
9.33621

>  <SCORE.INTRA.POLAR>
0

>  <SCORE.INTRA.POLAR.0>
0

>  <SCORE.INTRA.REPUL>
0

>  <SCORE.INTRA.REPUL.0>
0

>  <SCORE.INTRA.SOLV>
1.33113

>  <SCORE.INTRA.SOLV.lig_0>
-65.9238

>  <SCORE.INTRA.VDW>
-0.668694

>  <SCORE.INTRA.VDW.0>
-0.405582

>  <SCORE.INTRA.norm>
-0.0260648

>  <SCORE.RESTR>
0

>  <SCORE.RESTR.CAVITY>
0

>  <SCORE.RESTR.norm>
0

>  <SCORE.SYSTEM>
0

>  <SCORE.SYSTEM.CONST>
0

>  <SCORE.SYSTEM.DIHEDRAL>
0

>  <SCORE.SYSTEM.SOLV>
0

>  <SCORE.SYSTEM.norm>
0

>  <SCORE.heavy>
26

>  <SCORE.norm>
-0.717809

>  <RMSD>
2.560

$$$$
ligand
 OpenBabel11021811443D
libRbt.so/2013.1/901 2013/11/27
 26 28  0  0  0  0  0  0  0  0999 V2000
   16.5761   40.2871   63.7233 C   0  0  0  0  0  0  0  0  0  0  0  0
   23.1305   38.7844   66.7577 C   0  0  0  0  0  0  0  0  0  0  0  0
   28.5127   38.6333   67.0698 P   0  0  1  0  0  0  0  0  0  0  0  0
   28.2499   39.8770   69.3217 P   0  0  1  0  0  0  0  0  0  0  0  0
   21.1609   40.7580   67.0664 C   0  0  0  0  0  0  0  0  0  0  0  0
   19.4484   39.3957   65.8323 C   0  0  0  0  0  0  0  0  0  0  0  0
   19.9474   40.6348   66.1814 C   0  0  0  0  0  0  0  0  0  0  0  0
   19.2989   41.7709   65.6940 C   0  0  0  0  0  0  0  0  0  0  0  0
   19.7610   43.0385   66.0151 N   0  0  0  0  0  0  0  0  0  0  0  0
   18.2342   41.6197   64.9118 N   0  0  0  0  0  0  0  0  0  0  0  0
   17.7888   40.4180   64.6075 C   0  0  0  0  0  0  0  0  0  0  0  0
   18.3786   39.3253   65.0513 N   0  0  0  0  0  0  0  0  0  0  0  0
   29.7434   37.8597   66.7900 O   0  0  0  0  0  0  0  0  0  0  0  0
   27.9047   38.4010   69.6222 O   0  0  0  0  0  0  0  0  0  0  0  0
   23.9581   42.0962   64.8370 S   0  0  0  0  0  0  0  0  0  0  0  0
   22.4428   42.2306   65.6756 C   0  0  0  0  0  0  0  0  0  0  0  0
   27.5196   37.7528   67.9788 O   0  0  0  0  0  0  0  0  0  0  0  0
   29.3013   40.4174   70.4140 O   0  5  0  0  0  0  0  0  0  0  0  0
   22.3371   41.0521   66.2449 N   0  0  0  0  0  0  0  0  0  0  0  0
   28.8970   39.9879   67.8514 O   0  0  0  0  0  0  0  0  0  0  0  0
   26.9616   40.7280   69.3828 O   0  0  0  0  0  0  0  0  0  0  0  0
   23.2658   40.1327   66.0962 C   0  0  2  0  0  0  0  0  0  0  0  0
   24.3460   40.4225   65.3270 C   0  0  2  0  0  0  0  0  0  0  0  0
   25.5408   39.5715   64.9851 C   0  0  0  0  0  0  0  0  0  0  0  0
   26.6484   39.8059   66.0148 C   0  0  0  0  0  0  0  0  0  0  0  0
   27.7841   39.0047   65.6826 O   0  0  0  0  0  0  0  0  0  0  0  0
  1 11  1  0  0  0  0
  3 13  1  6  0  0  0
  3 17  1  0  0  0  0
  3 20  1  0  0  0  0
  3 26  1  0  0  0  0
  4 14  1  0  0  0  0
  4 18  1  1  0  0  0
  4 21  2  0  0  0  0
  4 20  1  0  0  0  0
  5 19  1  0  0  0  0
  5  7  1  0  0  0  0
  6  7  2  0  0  0  0
  6 12  1  0  0  0  0
  7  8  1  0  0  0  0
  8  9  1  0  0  0  0
  8 10  2  0  0  0  0
 10 11  1  0  0  0  0
 11 12  2  0  0  0  0
 14 17  1  0  0  0  0
 15 23  1  0  0  0  0
 15 16  1  0  0  0  0
 16 19  1  0  0  0  0
 19 22  1  0  0  0  0
 22  2  1  6  0  0  0
 22 23  1  0  0  0  0
 23 24  1  1  0  0  0
 24 25  1  0  0  0  0
 25 26  1  0  0  0  0
M  CHG  1  18  -1
M  END
>  <CHROM.1>
70.15188974,101.22610056,88.74516464,-179.58744713,-149.22141813,-177.03260003
24.34943730,40.11015548,66.65134180,-2.94897178,-0.30161665,1.09236659

>  <Name>
ligand

>  <RI>
0

>  <Rbt.Current_Directory>
/home/itssahil/PROJECTS/Mol_Feturizer/New_Systems/rnas/2HOL

>  <Rbt.Executable>
rbdock ($Id: //depot/dev/client3/rdock/2013.1/src/exe/rbdock.cxx#4 $)

>  <Rbt.Library>
libRbt.so (2013.1, Build901 2013/11/27)

>  <Rbt.Parameter_File>
/export/apps/rDock/src/rDock_2013.1_src/data/scripts/dock_solv.prm

>  <Rbt.Receptor>
prm/pocket_docking_2.prm

>  <SCORE>
-11.0176

>  <SCORE.INTER>
-10.7992

>  <SCORE.INTER.CONST>
1

>  <SCORE.INTER.POLAR>
0

>  <SCORE.INTER.ROT>
6

>  <SCORE.INTER.SOLV>
18.4133

>  <SCORE.INTER.VDW>
-20.9372

>  <SCORE.INTER.norm>
-0.415353

>  <SCORE.INTRA>
-1.53819

>  <SCORE.INTRA.DIHEDRAL>
-0.703579

>  <SCORE.INTRA.DIHEDRAL.0>
9.33621

>  <SCORE.INTRA.POLAR>
0

>  <SCORE.INTRA.POLAR.0>
0

>  <SCORE.INTRA.REPUL>
0

>  <SCORE.INTRA.REPUL.0>
0

>  <SCORE.INTRA.SOLV>
1.73597

>  <SCORE.INTRA.SOLV.lig_0>
-65.9238

>  <SCORE.INTRA.VDW>
-2.05438

>  <SCORE.INTRA.VDW.0>
-0.405582

>  <SCORE.INTRA.norm>
-0.059161

>  <SCORE.RESTR>
1.3198

>  <SCORE.RESTR.CAVITY>
1.3198

>  <SCORE.RESTR.norm>
0.0507615

>  <SCORE.SYSTEM>
0

>  <SCORE.SYSTEM.CONST>
0

>  <SCORE.SYSTEM.DIHEDRAL>
0

>  <SCORE.SYSTEM.SOLV>
0

>  <SCORE.SYSTEM.norm>
0

>  <SCORE.heavy>
26

>  <SCORE.norm>
-0.423752

>  <RMSD>
2.562

$$$$
ligand
 OpenBabel11021811443D
libRbt.so/2013.1/901 2013/11/27
 26 28  0  0  0  0  0  0  0  0999 V2000
   16.4392   40.1620   63.8633 C   0  0  0  0  0  0  0  0  0  0  0  0
   22.0108   38.9939   67.3860 C   0  0  0  0  0  0  0  0  0  0  0  0
   28.0411   39.3454   66.4769 P   0  0  1  0  0  0  0  0  0  0  0  0
   28.1625   39.5830   69.0490 P   0  0  1  0  0  0  0  0  0  0  0  0
   21.1252   41.5831   66.7686 C   0  0  0  0  0  0  0  0  0  0  0  0
   19.5457   39.8843   65.8036 C   0  0  0  0  0  0  0  0  0  0  0  0
   19.8846   41.2084   65.9993 C   0  0  0  0  0  0  0  0  0  0  0  0
   19.0487   42.1914   65.4668 C   0  0  0  0  0  0  0  0  0  0  0  0
   19.3452   43.5357   65.6352 N   0  0  0  0  0  0  0  0  0  0  0  0
   17.9661   41.8196   64.7900 N   0  0  0  0  0  0  0  0  0  0  0  0
   17.6777   40.5442   64.6311 C   0  0  0  0  0  0  0  0  0  0  0  0
   18.4467   39.5916   65.1213 N   0  0  0  0  0  0  0  0  0  0  0  0
   28.9777   40.1046   65.6178 O   0  0  0  0  0  0  0  0  0  0  0  0
   29.2912   38.5972   68.6715 O   0  0  0  0  0  0  0  0  0  0  0  0
   24.2135   40.7667   64.6755 S   0  0  0  0  0  0  0  0  0  0  0  0
   22.9204   41.8035   65.1954 C   0  0  0  0  0  0  0  0  0  0  0  0
   28.7735   38.0266   67.0358 O   0  0  0  0  0  0  0  0  0  0  0  0
   28.7460   40.7208   70.0265 O   0  5  0  0  0  0  0  0  0  0  0  0
   22.3051   41.0542   66.0808 N   0  0  0  0  0  0  0  0  0  0  0  0
   27.5800   40.2684   67.7135 O   0  0  0  0  0  0  0  0  0  0  0  0
   27.0312   38.8162   69.7699 O   0  0  0  0  0  0  0  0  0  0  0  0
   22.7276   39.8417   66.3656 C   0  0  2  0  0  0  0  0  0  0  0  0
   23.8198   39.3673   65.7141 C   0  0  2  0  0  0  0  0  0  0  0  0
   24.5102   38.0341   65.8358 C   0  0  0  0  0  0  0  0  0  0  0  0
   25.8730   38.2221   66.5061 C   0  0  0  0  0  0  0  0  0  0  0  0
   26.7484   38.9186   65.6169 O   0  0  0  0  0  0  0  0  0  0  0  0
  1 11  1  0  0  0  0
  3 13  1  6  0  0  0
  3 17  1  0  0  0  0
  3 20  1  0  0  0  0
  3 26  1  0  0  0  0
  4 14  1  0  0  0  0
  4 18  1  1  0  0  0
  4 21  2  0  0  0  0
  4 20  1  0  0  0  0
  5 19  1  0  0  0  0
  5  7  1  0  0  0  0
  6  7  2  0  0  0  0
  6 12  1  0  0  0  0
  7  8  1  0  0  0  0
  8  9  1  0  0  0  0
  8 10  2  0  0  0  0
 10 11  1  0  0  0  0
 11 12  2  0  0  0  0
 14 17  1  0  0  0  0
 15 23  1  0  0  0  0
 15 16  1  0  0  0  0
 16 19  1  0  0  0  0
 19 22  1  0  0  0  0
 22  2  1  6  0  0  0
 22 23  1  0  0  0  0
 23 24  1  1  0  0  0
 24 25  1  0  0  0  0
 25 26  1  0  0  0  0
M  CHG  1  18  -1
M  END
>  <CHROM.1>
91.43051919,61.48986248,69.66367679,-69.41880936,168.70191542,-178.59862234
24.13589028,40.04262279,66.48560953,-2.93129079,-0.25880111,1.26248623

>  <Name>
ligand

>  <RI>
0

>  <Rbt.Current_Directory>
/home/itssahil/PROJECTS/Mol_Feturizer/New_Systems/rnas/2HOL

>  <Rbt.Executable>
rbdock ($Id: //depot/dev/client3/rdock/2013.1/src/exe/rbdock.cxx#4 $)

>  <Rbt.Library>
libRbt.so (2013.1, Build901 2013/11/27)

>  <Rbt.Parameter_File>
/export/apps/rDock/src/rDock_2013.1_src/data/scripts/dock_solv.prm

>  <Rbt.Receptor>
prm/pocket_docking_2.prm

>  <SCORE>
-18.2037

>  <SCORE.INTER>
-14.9733

>  <SCORE.INTER.CONST>
1

>  <SCORE.INTER.POLAR>
0

>  <SCORE.INTER.ROT>
6

>  <SCORE.INTER.SOLV>
20.0833

>  <SCORE.INTER.VDW>
-24.2766

>  <SCORE.INTER.norm>
-0.575896

>  <SCORE.INTRA>
-3.56516

>  <SCORE.INTRA.DIHEDRAL>
-3.27012

>  <SCORE.INTRA.DIHEDRAL.0>
9.33621

>  <SCORE.INTRA.POLAR>
0

>  <SCORE.INTRA.POLAR.0>
0

>  <SCORE.INTRA.REPUL>
0

>  <SCORE.INTRA.REPUL.0>
0

>  <SCORE.INTRA.SOLV>
0.290992

>  <SCORE.INTRA.SOLV.lig_0>
-65.9238

>  <SCORE.INTRA.VDW>
-2.0756

>  <SCORE.INTRA.VDW.0>
-0.405582

>  <SCORE.INTRA.norm>
-0.137122

>  <SCORE.RESTR>
0.334807

>  <SCORE.RESTR.CAVITY>
0.334807

>  <SCORE.RESTR.norm>
0.0128772

>  <SCORE.SYSTEM>
0

>  <SCORE.SYSTEM.CONST>
0

>  <SCORE.SYSTEM.DIHEDRAL>
0

>  <SCORE.SYSTEM.SOLV>
0

>  <SCORE.SYSTEM.norm>
0

>  <SCORE.heavy>
26

>  <SCORE.norm>
-0.700141

>  <RMSD>
2.563

$$$$
ligand
 OpenBabel11021811443D
libRbt.so/2013.1/901 2013/11/27
 26 28  0  0  0  0  0  0  0  0999 V2000
   15.7945   39.4261   63.5551 C   0  0  0  0  0  0  0  0  0  0  0  0
   22.9595   42.1347   67.0177 C   0  0  0  0  0  0  0  0  0  0  0  0
   27.4472   38.2221   65.4955 P   0  0  1  0  0  0  0  0  0  0  0  0
   28.9777   39.7911   66.8675 P   0  0  1  0  0  0  0  0  0  0  0  0
   20.3899   41.1786   66.4239 C   0  0  0  0  0  0  0  0  0  0  0  0
   18.6878   39.4329   65.8181 C   0  0  0  0  0  0  0  0  0  0  0  0
   19.1735   40.7161   65.6638 C   0  0  0  0  0  0  0  0  0  0  0  0
   18.5089   41.5744   64.7862 C   0  0  0  0  0  0  0  0  0  0  0  0
   18.9573   42.8729   64.5956 N   0  0  0  0  0  0  0  0  0  0  0  0
   17.4423   41.1265   64.1305 N   0  0  0  0  0  0  0  0  0  0  0  0
   17.0099   39.8955   64.3114 C   0  0  0  0  0  0  0  0  0  0  0  0
   17.6151   39.0601   65.1328 N   0  0  0  0  0  0  0  0  0  0  0  0
   27.9553   36.9113   65.0316 O   0  0  0  0  0  0  0  0  0  0  0  0
   28.4478   38.7462   67.8751 O   0  0  0  0  0  0  0  0  0  0  0  0
   22.9946   38.7138   65.1103 S   0  0  0  0  0  0  0  0  0  0  0  0
   21.3660   39.2579   65.3731 C   0  0  0  0  0  0  0  0  0  0  0  0
   26.9827   38.1053   67.0313 O   0  0  0  0  0  0  0  0  0  0  0  0
   30.5749   39.9220   67.0173 O   0  5  0  0  0  0  0  0  0  0  0  0
   21.5530   40.3899   66.0115 N   0  0  0  0  0  0  0  0  0  0  0  0
   28.6145   39.3244   65.3698 O   0  0  0  0  0  0  0  0  0  0  0  0
   28.3204   41.1598   67.1540 O   0  0  0  0  0  0  0  0  0  0  0  0
   22.7612   40.8318   66.2849 C   0  0  2  0  0  0  0  0  0  0  0  0
   23.8264   40.0843   65.8989 C   0  0  2  0  0  0  0  0  0  0  0  0
   25.2994   40.3407   66.0811 C   0  0  0  0  0  0  0  0  0  0  0  0
   26.0326   40.0736   64.7646 C   0  0  0  0  0  0  0  0  0  0  0  0
   26.1935   38.6649   64.5871 O   0  0  0  0  0  0  0  0  0  0  0  0
  1 11  1  0  0  0  0
  3 13  1  6  0  0  0
  3 17  1  0  0  0  0
  3 20  1  0  0  0  0
  3 26  1  0  0  0  0
  4 14  1  0  0  0  0
  4 18  1  1  0  0  0
  4 21  2  0  0  0  0
  4 20  1  0  0  0  0
  5 19  1  0  0  0  0
  5  7  1  0  0  0  0
  6  7  2  0  0  0  0
  6 12  1  0  0  0  0
  7  8  1  0  0  0  0
  8  9  1  0  0  0  0
  8 10  2  0  0  0  0
 10 11  1  0  0  0  0
 11 12  2  0  0  0  0
 14 17  1  0  0  0  0
 15 23  1  0  0  0  0
 15 16  1  0  0  0  0
 16 19  1  0  0  0  0
 19 22  1  0  0  0  0
 22  2  1  1  0  0  0
 22 23  1  0  0  0  0
 23 24  1  6  0  0  0
 24 25  1  0  0  0  0
 25 26  1  0  0  0  0
M  CHG  1  18  -1
M  END
>  <CHROM.1>
-16.79606303,63.52290855,45.87037682,-78.03773639,-79.76898307,-161.15247342
23.86789055,39.75668201,65.71268330,3.08990271,-0.18534114,0.42268388

>  <Name>
ligand

>  <RI>
0

>  <Rbt.Current_Directory>
/home/itssahil/PROJECTS/Mol_Feturizer/New_Systems/rnas/2HOL

>  <Rbt.Executable>
rbdock ($Id: //depot/dev/client3/rdock/2013.1/src/exe/rbdock.cxx#4 $)

>  <Rbt.Library>
libRbt.so (2013.1, Build901 2013/11/27)

>  <Rbt.Parameter_File>
/export/apps/rDock/src/rDock_2013.1_src/data/scripts/dock_solv.prm

>  <Rbt.Receptor>
prm/pocket_docking_3.prm

>  <SCORE>
-18.4538

>  <SCORE.INTER>
-19.4879

>  <SCORE.INTER.CONST>
1

>  <SCORE.INTER.POLAR>
0

>  <SCORE.INTER.ROT>
6

>  <SCORE.INTER.SOLV>
21.2674

>  <SCORE.INTER.VDW>
-27.6811

>  <SCORE.INTER.norm>
-0.749535

>  <SCORE.INTRA>
1.0341

>  <SCORE.INTRA.DIHEDRAL>
-0.801464

>  <SCORE.INTRA.DIHEDRAL.0>
9.33621

>  <SCORE.INTRA.POLAR>
0

>  <SCORE.INTRA.POLAR.0>
0

>  <SCORE.INTRA.REPUL>
0

>  <SCORE.INTRA.REPUL.0>
0

>  <SCORE.INTRA.SOLV>
1.76299

>  <SCORE.INTRA.SOLV.lig_0>
-65.9238

>  <SCORE.INTRA.VDW>
0.553333

>  <SCORE.INTRA.VDW.0>
-0.405582

>  <SCORE.INTRA.norm>
0.039773

>  <SCORE.RESTR>
0

>  <SCORE.RESTR.CAVITY>
0

>  <SCORE.RESTR.norm>
0

>  <SCORE.SYSTEM>
0

>  <SCORE.SYSTEM.CONST>
0

>  <SCORE.SYSTEM.DIHEDRAL>
0

>  <SCORE.SYSTEM.SOLV>
0

>  <SCORE.SYSTEM.norm>
0

>  <SCORE.heavy>
26

>  <SCORE.norm>
-0.709762

>  <RMSD>
2.563

$$$$
ligand
 OpenBabel11021811443D
libRbt.so/2013.1/901 2013/11/27
 26 28  0  0  0  0  0  0  0  0999 V2000
   16.0716   39.8368   63.6409 C   0  0  0  0  0  0  0  0  0  0  0  0
   22.7135   40.2247   64.7787 C   0  0  0  0  0  0  0  0  0  0  0  0
   28.0206   37.9982   65.5845 P   0  0  1  0  0  0  0  0  0  0  0  0
   28.3642   39.8217   67.3855 P   0  0  1  0  0  0  0  0  0  0  0  0
   20.7663   40.8890   66.6857 C   0  0  0  0  0  0  0  0  0  0  0  0
   19.0573   39.3225   65.7177 C   0  0  0  0  0  0  0  0  0  0  0  0
   19.5236   40.6120   65.8794 C   0  0  0  0  0  0  0  0  0  0  0  0
   18.8143   41.6527   65.2774 C   0  0  0  0  0  0  0  0  0  0  0  0
   19.2415   42.9656   65.4095 N   0  0  0  0  0  0  0  0  0  0  0  0
   17.7254   41.3662   64.5700 N   0  0  0  0  0  0  0  0  0  0  0  0
   17.3131   40.1214   64.4453 C   0  0  0  0  0  0  0  0  0  0  0  0
   17.9605   39.1159   65.0011 N   0  0  0  0  0  0  0  0  0  0  0  0
   29.1311   37.6371   64.6745 O   0  0  0  0  0  0  0  0  0  0  0  0
   28.9967   38.5388   67.9706 O   0  0  0  0  0  0  0  0  0  0  0  0
   22.4025   37.5746   67.6461 S   0  0  0  0  0  0  0  0  0  0  0  0
   21.2799   38.8784   67.8854 C   0  0  0  0  0  0  0  0  0  0  0  0
   28.2096   37.2393   66.9903 O   0  0  0  0  0  0  0  0  0  0  0  0
   29.3972   41.0470   67.5332 O   0  5  0  0  0  0  0  0  0  0  0  0
   21.5277   39.6490   66.8517 N   0  0  0  0  0  0  0  0  0  0  0  0
   28.0237   39.5900   65.8288 O   0  0  0  0  0  0  0  0  0  0  0  0
   27.0642   40.1494   68.1537 O   0  0  0  0  0  0  0  0  0  0  0  0
   22.4415   39.3297   65.9613 C   0  0  2  0  0  0  0  0  0  0  0  0
   23.1401   38.1789   66.1352 C   0  0  2  0  0  0  0  0  0  0  0  0
   24.2306   37.5771   65.2883 C   0  0  0  0  0  0  0  0  0  0  0  0
   25.5866   38.1352   65.7263 C   0  0  0  0  0  0  0  0  0  0  0  0
   26.6193   37.5615   64.9223 O   0  0  0  0  0  0  0  0  0  0  0  0
  1 11  1  0  0  0  0
  3 13  1  6  0  0  0
  3 17  1  0  0  0  0
  3 20  1  0  0  0  0
  3 26  1  0  0  0  0
  4 14  1  0  0  0  0
  4 18  1  1  0  0  0
  4 21  2  0  0  0  0
  4 20  1  0  0  0  0
  5 19  1  0  0  0  0
  5  7  1  0  0  0  0
  6  7  2  0  0  0  0
  6 12  1  0  0  0  0
  7  8  1  0  0  0  0
  8  9  1  0  0  0  0
  8 10  2  0  0  0  0
 10 11  1  0  0  0  0
 11 12  2  0  0  0  0
 14 17  1  0  0  0  0
 15 23  1  0  0  0  0
 15 16  1  0  0  0  0
 16 19  1  0  0  0  0
 19 22  1  0  0  0  0
 22  2  1  1  0  0  0
 22 23  1  0  0  0  0
 23 24  1  6  0  0  0
 24 25  1  0  0  0  0
 25 26  1  0  0  0  0
M  CHG  1  18  -1
M  END
>  <CHROM.1>
-89.63470521,17.20827343,-92.61682839,179.93667485,-170.95309885,-170.25675885
23.83247308,39.27479452,66.12243521,3.03397235,-0.17861409,0.30117161

>  <Name>
ligand

>  <RI>
0

>  <Rbt.Current_Directory>
/home/itssahil/PROJECTS/Mol_Feturizer/New_Systems/rnas/2HOL

>  <Rbt.Executable>
rbdock ($Id: //depot/dev/client3/rdock/2013.1/src/exe/rbdock.cxx#4 $)

>  <Rbt.Library>
libRbt.so (2013.1, Build901 2013/11/27)

>  <Rbt.Parameter_File>
/export/apps/rDock/src/rDock_2013.1_src/data/scripts/dock_solv.prm

>  <Rbt.Receptor>
prm/pocket_docking_4.prm

>  <SCORE>
-23.9099

>  <SCORE.INTER>
-20.4796

>  <SCORE.INTER.CONST>
1

>  <SCORE.INTER.POLAR>
0

>  <SCORE.INTER.ROT>
6

>  <SCORE.INTER.SOLV>
19.8156

>  <SCORE.INTER.VDW>
-27.8583

>  <SCORE.INTER.norm>
-0.787675

>  <SCORE.INTRA>
-3.43034

>  <SCORE.INTRA.DIHEDRAL>
-3.96402

>  <SCORE.INTRA.DIHEDRAL.0>
9.33621

>  <SCORE.INTRA.POLAR>
0

>  <SCORE.INTRA.POLAR.0>
0

>  <SCORE.INTRA.REPUL>
0

>  <SCORE.INTRA.REPUL.0>
0

>  <SCORE.INTRA.SOLV>
0.476352

>  <SCORE.INTRA.SOLV.lig_0>
-65.9238

>  <SCORE.INTRA.VDW>
-1.68651

>  <SCORE.INTRA.VDW.0>
-0.405582

>  <SCORE.INTRA.norm>
-0.131936

>  <SCORE.RESTR>
0

>  <SCORE.RESTR.CAVITY>
0

>  <SCORE.RESTR.norm>
0

>  <SCORE.SYSTEM>
0

>  <SCORE.SYSTEM.CONST>
0

>  <SCORE.SYSTEM.DIHEDRAL>
0

>  <SCORE.SYSTEM.SOLV>
0

>  <SCORE.SYSTEM.norm>
0

>  <SCORE.heavy>
26

>  <SCORE.norm>
-0.919611

>  <RMSD>
2.564

$$$$
ligand
 OpenBabel11021811443D
libRbt.so/2013.1/901 2013/11/27
 26 28  0  0  0  0  0  0  0  0999 V2000
   19.6614   44.4622   65.9060 C   0  0  0  0  0  0  0  0  0  0  0  0
   24.0239   38.2171   65.6782 C   0  0  0  0  0  0  0  0  0  0  0  0
   27.2179   40.2473   67.6859 P   0  0  1  0  0  0  0  0  0  0  0  0
   29.6335   39.8487   66.8536 P   0  0  1  0  0  0  0  0  0  0  0  0
   21.3492   39.0407   65.4858 C   0  0  0  0  0  0  0  0  0  0  0  0
   21.8124   41.4858   65.8302 C   0  0  0  0  0  0  0  0  0  0  0  0
   20.9010   40.4752   65.5968 C   0  0  0  0  0  0  0  0  0  0  0  0
   19.5537   40.8162   65.4660 C   0  0  0  0  0  0  0  0  0  0  0  0
   18.5987   39.8382   65.2315 N   0  0  0  0  0  0  0  0  0  0  0  0
   19.1982   42.0929   65.5755 N   0  0  0  0  0  0  0  0  0  0  0  0
   20.1019   43.0260   65.7938 C   0  0  0  0  0  0  0  0  0  0  0  0
   21.3821   42.7370   65.9224 N   0  0  0  0  0  0  0  0  0  0  0  0
   26.9694   41.1458   68.8359 O   0  0  0  0  0  0  0  0  0  0  0  0
   29.2077   41.2065   66.2511 O   0  0  0  0  0  0  0  0  0  0  0  0
   22.0927   37.9766   69.0775 S   0  0  0  0  0  0  0  0  0  0  0  0
   21.0553   38.5734   67.8184 C   0  0  0  0  0  0  0  0  0  0  0  0
   27.4042   41.1236   66.3498 O   0  0  0  0  0  0  0  0  0  0  0  0
   31.0787   39.9964   67.5465 O   0  5  0  0  0  0  0  0  0  0  0  0
   21.8600   38.5865   66.7810 N   0  0  0  0  0  0  0  0  0  0  0  0
   28.5533   39.3884   67.9555 O   0  0  0  0  0  0  0  0  0  0  0  0
   29.7072   38.7895   65.7310 O   0  0  0  0  0  0  0  0  0  0  0  0
   23.1125   38.1975   66.8794 C   0  0  2  0  0  0  0  0  0  0  0  0
   23.5688   37.7847   68.0893 C   0  0  2  0  0  0  0  0  0  0  0  0
   24.9371   37.2969   68.4872 C   0  0  0  0  0  0  0  0  0  0  0  0
   25.8625   38.4947   68.7129 C   0  0  0  0  0  0  0  0  0  0  0  0
   25.9677   39.2489   67.5037 O   0  0  0  0  0  0  0  0  0  0  0  0
  1 11  1  0  0  0  0
  3 13  1  1  0  0  0
  3 17  1  0  0  0  0
  3 20  1  0  0  0  0
  3 26  1  0  0  0  0
  4 14  1  0  0  0  0
  4 18  1  1  0  0  0
  4 21  2  0  0  0  0
  4 20  1  0  0  0  0
  5 19  1  0  0  0  0
  5  7  1  0  0  0  0
  6  7  2  0  0  0  0
  6 12  1  0  0  0  0
  7  8  1  0  0  0  0
  8  9  1  0  0  0  0
  8 10  2  0  0  0  0
 10 11  1  0  0  0  0
 11 12  2  0  0  0  0
 14 17  1  0  0  0  0
 15 23  1  0  0  0  0
 15 16  1  0  0  0  0
 16 19  1  0  0  0  0
 19 22  1  0  0  0  0
 22  2  1  1  0  0  0
 22 23  1  0  0  0  0
 23 24  1  6  0  0  0
 24 25  1  0  0  0  0
 25 26  1  0  0  0  0
M  CHG  1  18  -1
M  END
>  <CHROM.1>
61.39819307,66.40547576,-99.52539631,-60.38682180,-165.82590288,-60.40840980
24.52587787,39.92870790,66.96218335,-2.98533396,0.05924445,2.69418377

>  <Name>
ligand

>  <RI>
0

>  <Rbt.Current_Directory>
/home/itssahil/PROJECTS/Mol_Feturizer/New_Systems/rnas/2HOL

>  <Rbt.Executable>
rbdock ($Id: //depot/dev/client3/rdock/2013.1/src/exe/rbdock.cxx#4 $)

>  <Rbt.Library>
libRbt.so (2013.1, Build901 2013/11/27)

>  <Rbt.Parameter_File>
/export/apps/rDock/src/rDock_2013.1_src/data/scripts/dock_solv.prm

>  <Rbt.Receptor>
prm/pocket_docking_3.prm

>  <SCORE>
-16.4485

>  <SCORE.INTER>
-13.5435

>  <SCORE.INTER.CONST>
1

>  <SCORE.INTER.POLAR>
0

>  <SCORE.INTER.ROT>
6

>  <SCORE.INTER.SOLV>
15.9109

>  <SCORE.INTER.VDW>
-21.9326

>  <SCORE.INTER.norm>
-0.520903

>  <SCORE.INTRA>
-2.92883

>  <SCORE.INTRA.DIHEDRAL>
-3.66079

>  <SCORE.INTRA.DIHEDRAL.0>
9.33621

>  <SCORE.INTRA.POLAR>
0

>  <SCORE.INTRA.POLAR.0>
0

>  <SCORE.INTRA.REPUL>
0

>  <SCORE.INTRA.REPUL.0>
0

>  <SCORE.INTRA.SOLV>
0.368338

>  <SCORE.INTRA.SOLV.lig_0>
-65.9238

>  <SCORE.INTRA.VDW>
-1.2826

>  <SCORE.INTRA.VDW.0>
-0.405582

>  <SCORE.INTRA.norm>
-0.112647

>  <SCORE.RESTR>
0.023806

>  <SCORE.RESTR.CAVITY>
0.023806

>  <SCORE.RESTR.norm>
0.000915616

>  <SCORE.SYSTEM>
0

>  <SCORE.SYSTEM.CONST>
0

>  <SCORE.SYSTEM.DIHEDRAL>
0

>  <SCORE.SYSTEM.SOLV>
0

>  <SCORE.SYSTEM.norm>
0

>  <SCORE.heavy>
26

>  <SCORE.norm>
-0.632635

>  <RMSD>
2.568

$$$$
ligand
 OpenBabel11021811443D
libRbt.so/2013.1/901 2013/11/27
 26 28  0  0  0  0  0  0  0  0999 V2000
   15.6664   39.4057   63.5230 C   0  0  0  0  0  0  0  0  0  0  0  0
   22.0436   40.2627   68.3948 C   0  0  0  0  0  0  0  0  0  0  0  0
   27.8141   39.0105   67.4605 P   0  0  1  0  0  0  0  0  0  0  0  0
   28.3728   41.3897   66.6155 P   0  0  1  0  0  0  0  0  0  0  0  0
   20.4352   40.9745   66.2093 C   0  0  0  0  0  0  0  0  0  0  0  0
   18.7849   39.2362   65.4566 C   0  0  0  0  0  0  0  0  0  0  0  0
   19.1728   40.5607   65.4979 C   0  0  0  0  0  0  0  0  0  0  0  0
   18.3656   41.5069   64.8641 C   0  0  0  0  0  0  0  0  0  0  0  0
   18.7115   42.8499   64.8762 N   0  0  0  0  0  0  0  0  0  0  0  0
   17.2622   41.1007   64.2429 N   0  0  0  0  0  0  0  0  0  0  0  0
   16.9270   39.8268   64.2322 C   0  0  0  0  0  0  0  0  0  0  0  0
   17.6678   38.9084   64.8210 N   0  0  0  0  0  0  0  0  0  0  0  0
   28.4276   37.8304   66.8105 O   0  0  0  0  0  0  0  0  0  0  0  0
   29.5634   40.9792   67.5110 O   0  0  0  0  0  0  0  0  0  0  0  0
   22.8945   38.2549   65.1410 S   0  0  0  0  0  0  0  0  0  0  0  0
   21.5991   39.3761   64.8541 C   0  0  0  0  0  0  0  0  0  0  0  0
   28.8545   39.6482   68.5087 O   0  0  0  0  0  0  0  0  0  0  0  0
   28.9239   41.9636   65.2165 O   0  5  0  0  0  0  0  0  0  0  0  0
   21.4580   39.9415   66.0307 N   0  0  0  0  0  0  0  0  0  0  0  0
   27.4407   40.1058   66.3404 O   0  0  0  0  0  0  0  0  0  0  0  0
   27.5462   42.4825   67.3298 O   0  0  0  0  0  0  0  0  0  0  0  0
   22.2171   39.6030   67.0499 C   0  0  2  0  0  0  0  0  0  0  0  0
   23.1560   38.6401   66.8659 C   0  0  2  0  0  0  0  0  0  0  0  0
   24.1454   38.0607   67.8426 C   0  0  0  0  0  0  0  0  0  0  0  0
   25.5518   38.1175   67.2418 C   0  0  0  0  0  0  0  0  0  0  0  0
   26.4763   38.5620   68.2366 O   0  0  0  0  0  0  0  0  0  0  0  0
  1 11  1  0  0  0  0
  3 13  1  6  0  0  0
  3 17  1  0  0  0  0
  3 20  1  0  0  0  0
  3 26  1  0  0  0  0
  4 14  1  0  0  0  0
  4 18  1  6  0  0  0
  4 21  2  0  0  0  0
  4 20  1  0  0  0  0
  5 19  1  0  0  0  0
  5  7  1  0  0  0  0
  6  7  2  0  0  0  0
  6 12  1  0  0  0  0
  7  8  1  0  0  0  0
  8  9  1  0  0  0  0
  8 10  2  0  0  0  0
 10 11  1  0  0  0  0
 11 12  2  0  0  0  0
 14 17  1  0  0  0  0
 15 23  1  0  0  0  0
 15 16  1  0  0  0  0
 16 19  1  0  0  0  0
 19 22  1  0  0  0  0
 22  2  1  1  0  0  0
 22 23  1  0  0  0  0
 23 24  1  6  0  0  0
 24 25  1  0  0  0  0
 25 26  1  0  0  0  0
M  CHG  1  18  -1
M  END
>  <CHROM.1>
41.71715789,35.94300276,51.55437670,136.57457228,-163.77661214,-64.97188700
23.70967050,39.90647633,66.27342760,3.07866218,-0.21997549,-0.26237231

>  <Name>
ligand

>  <RI>
0

>  <Rbt.Current_Directory>
/home/itssahil/PROJECTS/Mol_Feturizer/New_Systems/rnas/2HOL

>  <Rbt.Executable>
rbdock ($Id: //depot/dev/client3/rdock/2013.1/src/exe/rbdock.cxx#4 $)

>  <Rbt.Library>
libRbt.so (2013.1, Build901 2013/11/27)

>  <Rbt.Parameter_File>
/export/apps/rDock/src/rDock_2013.1_src/data/scripts/dock_solv.prm

>  <Rbt.Receptor>
prm/pocket_docking_3.prm

>  <SCORE>
-18.5529

>  <SCORE.INTER>
-18.522

>  <SCORE.INTER.CONST>
1

>  <SCORE.INTER.POLAR>
0

>  <SCORE.INTER.ROT>
6

>  <SCORE.INTER.SOLV>
18.1761

>  <SCORE.INTER.VDW>
-26.0067

>  <SCORE.INTER.norm>
-0.712386

>  <SCORE.INTRA>
-0.0308622

>  <SCORE.INTRA.DIHEDRAL>
1.60254

>  <SCORE.INTRA.DIHEDRAL.0>
9.33621

>  <SCORE.INTRA.POLAR>
0

>  <SCORE.INTRA.POLAR.0>
0

>  <SCORE.INTRA.REPUL>
0

>  <SCORE.INTRA.REPUL.0>
0

>  <SCORE.INTRA.SOLV>
-0.511682

>  <SCORE.INTRA.SOLV.lig_0>
-65.9238

>  <SCORE.INTRA.VDW>
-0.57629

>  <SCORE.INTRA.VDW.0>
-0.405582

>  <SCORE.INTRA.norm>
-0.00118701

>  <SCORE.RESTR>
0

>  <SCORE.RESTR.CAVITY>
0

>  <SCORE.RESTR.norm>
0

>  <SCORE.SYSTEM>
0

>  <SCORE.SYSTEM.CONST>
0

>  <SCORE.SYSTEM.DIHEDRAL>
0

>  <SCORE.SYSTEM.SOLV>
0

>  <SCORE.SYSTEM.norm>
0

>  <SCORE.heavy>
26

>  <SCORE.norm>
-0.713573

>  <RMSD>
2.573

$$$$
ligand
 OpenBabel11021811443D
libRbt.so/2013.1/901 2013/11/27
 26 28  0  0  0  0  0  0  0  0999 V2000
   16.2146   40.1021   63.7842 C   0  0  0  0  0  0  0  0  0  0  0  0
   21.8493   39.9349   68.6379 C   0  0  0  0  0  0  0  0  0  0  0  0
   27.5644   38.9089   67.5826 P   0  0  1  0  0  0  0  0  0  0  0  0
   28.5718   41.0769   66.5969 P   0  0  1  0  0  0  0  0  0  0  0  0
   21.0519   41.4931   66.4457 C   0  0  0  0  0  0  0  0  0  0  0  0
   19.1969   41.9782   64.8223 C   0  0  0  0  0  0  0  0  0  0  0  0
   19.7714   41.1236   65.7420 C   0  0  0  0  0  0  0  0  0  0  0  0
   19.1363   39.9084   66.0034 C   0  0  0  0  0  0  0  0  0  0  0  0
   19.6726   39.0153   66.9190 N   0  0  0  0  0  0  0  0  0  0  0  0
   18.0053   39.6217   65.3653 N   0  0  0  0  0  0  0  0  0  0  0  0
   17.4943   40.4646   64.4915 C   0  0  0  0  0  0  0  0  0  0  0  0
   18.0694   41.6204   64.2225 N   0  0  0  0  0  0  0  0  0  0  0  0
   28.4524   37.8769   68.1637 O   0  0  0  0  0  0  0  0  0  0  0  0
   28.5376   41.2954   68.1263 O   0  0  0  0  0  0  0  0  0  0  0  0
   23.6370   38.9250   65.3023 S   0  0  0  0  0  0  0  0  0  0  0  0
   22.5385   40.2447   65.0395 C   0  0  0  0  0  0  0  0  0  0  0  0
   27.3165   40.0747   68.6630 O   0  0  0  0  0  0  0  0  0  0  0  0
   30.0290   41.4594   66.0307 O   0  5  0  0  0  0  0  0  0  0  0  0
   22.0447   40.4360   66.2409 N   0  0  0  0  0  0  0  0  0  0  0  0
   28.2555   39.5326   66.2685 O   0  0  0  0  0  0  0  0  0  0  0  0
   27.5076   41.9744   65.9263 O   0  0  0  0  0  0  0  0  0  0  0  0
   22.4249   39.7019   67.2638 C   0  0  2  0  0  0  0  0  0  0  0  0
   23.3423   38.7240   67.0529 C   0  0  2  0  0  0  0  0  0  0  0  0
   23.9465   37.7447   68.0248 C   0  0  0  0  0  0  0  0  0  0  0  0
   25.3714   38.1813   68.3730 C   0  0  0  0  0  0  0  0  0  0  0  0
   26.1555   38.2410   67.1799 O   0  0  0  0  0  0  0  0  0  0  0  0
  1 11  1  0  0  0  0
  3 13  1  1  0  0  0
  3 17  1  0  0  0  0
  3 20  1  0  0  0  0
  3 26  1  0  0  0  0
  4 14  1  0  0  0  0
  4 18  1  6  0  0  0
  4 21  2  0  0  0  0
  4 20  1  0  0  0  0
  5 19  1  0  0  0  0
  5  7  1  0  0  0  0
  6  7  2  0  0  0  0
  6 12  1  0  0  0  0
  7  8  1  0  0  0  0
  8  9  1  0  0  0  0
  8 10  2  0  0  0  0
 10 11  1  0  0  0  0
 11 12  2  0  0  0  0
 14 17  1  0  0  0  0
 15 23  1  0  0  0  0
 15 16  1  0  0  0  0
 16 19  1  0  0  0  0
 19 22  1  0  0  0  0
 22  2  1  6  0  0  0
 22 23  1  0  0  0  0
 23 24  1  1  0  0  0
 24 25  1  0  0  0  0
 25 26  1  0  0  0  0
M  CHG  1  18  -1
M  END
>  <CHROM.1>
68.14433062,-125.02848724,75.88130737,-59.03317621,171.84764338,82.09889785
23.94197535,39.93354460,66.51781829,-2.98830824,0.14339420,2.51053224

>  <Name>
ligand

>  <RI>
0

>  <Rbt.Current_Directory>
/home/itssahil/PROJECTS/Mol_Feturizer/New_Systems/rnas/2HOL

>  <Rbt.Executable>
rbdock ($Id: //depot/dev/client3/rdock/2013.1/src/exe/rbdock.cxx#4 $)

>  <Rbt.Library>
libRbt.so (2013.1, Build901 2013/11/27)

>  <Rbt.Parameter_File>
/export/apps/rDock/src/rDock_2013.1_src/data/scripts/dock_solv.prm

>  <Rbt.Receptor>
prm/pocket_docking_3.prm

>  <SCORE>
-15.8314

>  <SCORE.INTER>
-14.6419

>  <SCORE.INTER.CONST>
1

>  <SCORE.INTER.POLAR>
0

>  <SCORE.INTER.ROT>
6

>  <SCORE.INTER.SOLV>
14.5263

>  <SCORE.INTER.VDW>
-22.2033

>  <SCORE.INTER.norm>
-0.563149

>  <SCORE.INTRA>
-1.19843

>  <SCORE.INTRA.DIHEDRAL>
-3.23906

>  <SCORE.INTRA.DIHEDRAL.0>
9.33621

>  <SCORE.INTRA.POLAR>
0

>  <SCORE.INTRA.POLAR.0>
0

>  <SCORE.INTRA.REPUL>
0

>  <SCORE.INTRA.REPUL.0>
0

>  <SCORE.INTRA.SOLV>
3.72674

>  <SCORE.INTRA.SOLV.lig_0>
-65.9238

>  <SCORE.INTRA.VDW>
-1.44226

>  <SCORE.INTRA.VDW.0>
-0.405582

>  <SCORE.INTRA.norm>
-0.0460933

>  <SCORE.RESTR>
0.00893542

>  <SCORE.RESTR.CAVITY>
0.00893542

>  <SCORE.RESTR.norm>
0.00034367

>  <SCORE.SYSTEM>
0

>  <SCORE.SYSTEM.CONST>
0

>  <SCORE.SYSTEM.DIHEDRAL>
0

>  <SCORE.SYSTEM.SOLV>
0

>  <SCORE.SYSTEM.norm>
0

>  <SCORE.heavy>
26

>  <SCORE.norm>
-0.608898

>  <RMSD>
2.583

$$$$
ligand
 OpenBabel11021811443D
libRbt.so/2013.1/901 2013/11/27
 26 28  0  0  0  0  0  0  0  0999 V2000
   15.9028   39.6100   63.7201 C   0  0  0  0  0  0  0  0  0  0  0  0
   22.9594   42.5682   65.6880 C   0  0  0  0  0  0  0  0  0  0  0  0
   26.8133   41.1012   68.0834 P   0  0  1  0  0  0  0  0  0  0  0  0
   27.1488   38.6456   68.8208 P   0  0  1  0  0  0  0  0  0  0  0  0
   20.6423   41.1848   66.4542 C   0  0  0  0  0  0  0  0  0  0  0  0
   18.9268   39.4698   65.8006 C   0  0  0  0  0  0  0  0  0  0  0  0
   19.3877   40.7694   65.7300 C   0  0  0  0  0  0  0  0  0  0  0  0
   18.6619   41.6889   64.9709 C   0  0  0  0  0  0  0  0  0  0  0  0
   19.0832   43.0062   64.8676 N   0  0  0  0  0  0  0  0  0  0  0  0
   17.5628   41.2816   64.3428 N   0  0  0  0  0  0  0  0  0  0  0  0
   17.1561   40.0326   64.4413 C   0  0  0  0  0  0  0  0  0  0  0  0
   17.8191   39.1397   65.1500 N   0  0  0  0  0  0  0  0  0  0  0  0
   26.8369   42.1868   69.0897 O   0  0  0  0  0  0  0  0  0  0  0  0
   28.5673   39.2557   68.7585 O   0  0  0  0  0  0  0  0  0  0  0  0
   23.2451   38.6940   65.1867 S   0  0  0  0  0  0  0  0  0  0  0  0
   21.6908   39.1201   65.8347 C   0  0  0  0  0  0  0  0  0  0  0  0
   28.3208   40.6965   67.6942 O   0  0  0  0  0  0  0  0  0  0  0  0
   26.9544   37.8768   70.2214 O   0  5  0  0  0  0  0  0  0  0  0  0
   21.7816   40.4263   65.9330 N   0  0  0  0  0  0  0  0  0  0  0  0
   26.0540   39.8195   68.6951 O   0  0  0  0  0  0  0  0  0  0  0  0
   26.9683   37.6463   67.6562 O   0  0  0  0  0  0  0  0  0  0  0  0
   22.8711   41.0675   65.5702 C   0  0  2  0  0  0  0  0  0  0  0  0
   23.9180   40.3465   65.0942 C   0  0  2  0  0  0  0  0  0  0  0  0
   25.2692   40.8106   64.6171 C   0  0  0  0  0  0  0  0  0  0  0  0
   26.2943   40.6446   65.7412 C   0  0  0  0  0  0  0  0  0  0  0  0
   26.0354   41.6055   66.7667 O   0  0  0  0  0  0  0  0  0  0  0  0
  1 11  1  0  0  0  0
  3 13  1  1  0  0  0
  3 17  1  0  0  0  0
  3 20  1  0  0  0  0
  3 26  1  0  0  0  0
  4 14  1  0  0  0  0
  4 18  1  1  0  0  0
  4 21  2  0  0  0  0
  4 20  1  0  0  0  0
  5 19  1  0  0  0  0
  5  7  1  0  0  0  0
  6  7  2  0  0  0  0
  6 12  1  0  0  0  0
  7  8  1  0  0  0  0
  8  9  1  0  0  0  0
  8 10  2  0  0  0  0
 10 11  1  0  0  0  0
 11 12  2  0  0  0  0
 14 17  1  0  0  0  0
 15 23  1  0  0  0  0
 15 16  1  0  0  0  0
 16 19  1  0  0  0  0
 19 22  1  0  0  0  0
 22  2  1  1  0  0  0
 22 23  1  0  0  0  0
 23 24  1  6  0  0  0
 24 25  1  0  0  0  0
 25 26  1  0  0  0  0
M  CHG  1  18  -1
M  END
>  <CHROM.1>
-49.83422395,61.93429153,-82.06309148,-70.67277422,162.71637184,167.65741613
23.50306621,40.21375185,66.55860541,2.96636958,-0.34639290,-0.26668362

>  <Name>
ligand

>  <RI>
0

>  <Rbt.Current_Directory>
/home/itssahil/PROJECTS/Mol_Feturizer/New_Systems/rnas/2HOL

>  <Rbt.Executable>
rbdock ($Id: //depot/dev/client3/rdock/2013.1/src/exe/rbdock.cxx#4 $)

>  <Rbt.Library>
libRbt.so (2013.1, Build901 2013/11/27)

>  <Rbt.Parameter_File>
/export/apps/rDock/src/rDock_2013.1_src/data/scripts/dock_solv.prm

>  <Rbt.Receptor>
prm/pocket_docking_3.prm

>  <SCORE>
-19.7348

>  <SCORE.INTER>
-17.4743

>  <SCORE.INTER.CONST>
1

>  <SCORE.INTER.POLAR>
0

>  <SCORE.INTER.ROT>
6

>  <SCORE.INTER.SOLV>
19.1696

>  <SCORE.INTER.VDW>
-25.6394

>  <SCORE.INTER.norm>
-0.672087

>  <SCORE.INTRA>
-2.26056

>  <SCORE.INTRA.DIHEDRAL>
-2.30115

>  <SCORE.INTRA.DIHEDRAL.0>
9.33621

>  <SCORE.INTRA.POLAR>
0

>  <SCORE.INTRA.POLAR.0>
0

>  <SCORE.INTRA.REPUL>
0

>  <SCORE.INTRA.REPUL.0>
0

>  <SCORE.INTRA.SOLV>
1.29609

>  <SCORE.INTRA.SOLV.lig_0>
-65.9238

>  <SCORE.INTRA.VDW>
-1.75803

>  <SCORE.INTRA.VDW.0>
-0.405582

>  <SCORE.INTRA.norm>
-0.0869444

>  <SCORE.RESTR>
0

>  <SCORE.RESTR.CAVITY>
0

>  <SCORE.RESTR.norm>
0

>  <SCORE.SYSTEM>
0

>  <SCORE.SYSTEM.CONST>
0

>  <SCORE.SYSTEM.DIHEDRAL>
0

>  <SCORE.SYSTEM.SOLV>
0

>  <SCORE.SYSTEM.norm>
0

>  <SCORE.heavy>
26

>  <SCORE.norm>
-0.759032

>  <RMSD>
2.583

$$$$
ligand
 OpenBabel11021811443D
libRbt.so/2013.1/901 2013/11/27
 26 28  0  0  0  0  0  0  0  0999 V2000
   16.6497   40.3229   63.8274 C   0  0  0  0  0  0  0  0  0  0  0  0
   22.7199   40.3379   64.9473 C   0  0  0  0  0  0  0  0  0  0  0  0
   27.5223   39.6366   65.6801 P   0  0  1  0  0  0  0  0  0  0  0  0
   28.7799   41.8335   66.2078 P   0  0  1  0  0  0  0  0  0  0  0  0
   21.2439   41.7390   66.8780 C   0  0  0  0  0  0  0  0  0  0  0  0
   19.4530   42.2624   65.1956 C   0  0  0  0  0  0  0  0  0  0  0  0
   20.0278   41.3629   66.0713 C   0  0  0  0  0  0  0  0  0  0  0  0
   19.4542   40.0958   66.1900 C   0  0  0  0  0  0  0  0  0  0  0  0
   19.9934   39.1563   67.0560 N   0  0  0  0  0  0  0  0  0  0  0  0
   18.3786   39.8045   65.4644 N   0  0  0  0  0  0  0  0  0  0  0  0
   17.8652   40.6918   64.6372 C   0  0  0  0  0  0  0  0  0  0  0  0
   18.3831   41.8970   64.5021 N   0  0  0  0  0  0  0  0  0  0  0  0
   28.1766   38.5848   64.8694 O   0  0  0  0  0  0  0  0  0  0  0  0
   29.3236   40.7944   67.2141 O   0  0  0  0  0  0  0  0  0  0  0  0
   22.8769   38.6899   68.4972 S   0  0  0  0  0  0  0  0  0  0  0  0
   21.8940   40.1219   68.5237 C   0  0  0  0  0  0  0  0  0  0  0  0
   28.0280   39.5332   67.2037 O   0  0  0  0  0  0  0  0  0  0  0  0
   30.0100   42.5978   65.5055 O   0  5  0  0  0  0  0  0  0  0  0  0
   21.9608   40.5256   67.2762 N   0  0  0  0  0  0  0  0  0  0  0  0
   27.9008   41.0847   65.0857 O   0  0  0  0  0  0  0  0  0  0  0  0
   27.8969   42.8581   66.9548 O   0  0  0  0  0  0  0  0  0  0  0  0
   22.6540   39.8621   66.3767 C   0  0  2  0  0  0  0  0  0  0  0  0
   23.3156   38.7427   66.7661 C   0  0  2  0  0  0  0  0  0  0  0  0
   24.1765   37.8041   65.9619 C   0  0  0  0  0  0  0  0  0  0  0  0
   25.6516   38.1484   66.1795 C   0  0  0  0  0  0  0  0  0  0  0  0
   25.9250   39.4387   65.6295 O   0  0  0  0  0  0  0  0  0  0  0  0
  1 11  1  0  0  0  0
  3 13  1  6  0  0  0
  3 17  1  0  0  0  0
  3 20  1  0  0  0  0
  3 26  1  0  0  0  0
  4 14  1  0  0  0  0
  4 18  1  6  0  0  0
  4 21  2  0  0  0  0
  4 20  1  0  0  0  0
  5 19  1  0  0  0  0
  5  7  1  0  0  0  0
  6  7  2  0  0  0  0
  6 12  1  0  0  0  0
  7  8  1  0  0  0  0
  8  9  1  0  0  0  0
  8 10  2  0  0  0  0
 10 11  1  0  0  0  0
 11 12  2  0  0  0  0
 14 17  1  0  0  0  0
 15 23  1  0  0  0  0
 15 16  1  0  0  0  0
 16 19  1  0  0  0  0
 19 22  1  0  0  0  0
 22  2  1  1  0  0  0
 22 23  1  0  0  0  0
 23 24  1  6  0  0  0
 24 25  1  0  0  0  0
 25 26  1  0  0  0  0
M  CHG  1  18  -1
M  END
>  <CHROM.1>
-106.08613511,-156.98720313,-81.39185227,-66.15260568,-171.18948716,60.63656370
24.05774420,40.27839730,66.17961350,3.13623152,0.05836182,2.64127152

>  <Name>
ligand

>  <RI>
0

>  <Rbt.Current_Directory>
/home/itssahil/PROJECTS/Mol_Feturizer/New_Systems/rnas/2HOL

>  <Rbt.Executable>
rbdock ($Id: //depot/dev/client3/rdock/2013.1/src/exe/rbdock.cxx#4 $)

>  <Rbt.Library>
libRbt.so (2013.1, Build901 2013/11/27)

>  <Rbt.Parameter_File>
/export/apps/rDock/src/rDock_2013.1_src/data/scripts/dock_solv.prm

>  <Rbt.Receptor>
prm/pocket_docking_4.prm

>  <SCORE>
-16.4913

>  <SCORE.INTER>
-17.1712

>  <SCORE.INTER.CONST>
1

>  <SCORE.INTER.POLAR>
0

>  <SCORE.INTER.ROT>
6

>  <SCORE.INTER.SOLV>
14.3778

>  <SCORE.INTER.VDW>
-23.8401

>  <SCORE.INTER.norm>
-0.66043

>  <SCORE.INTRA>
0.679834

>  <SCORE.INTRA.DIHEDRAL>
-3.81901

>  <SCORE.INTRA.DIHEDRAL.0>
9.33621

>  <SCORE.INTRA.POLAR>
0

>  <SCORE.INTRA.POLAR.0>
0

>  <SCORE.INTRA.REPUL>
0

>  <SCORE.INTRA.REPUL.0>
0

>  <SCORE.INTRA.SOLV>
4.94234

>  <SCORE.INTRA.SOLV.lig_0>
-65.9238

>  <SCORE.INTRA.VDW>
0.118167

>  <SCORE.INTRA.VDW.0>
-0.405582

>  <SCORE.INTRA.norm>
0.0261475

>  <SCORE.RESTR>
0

>  <SCORE.RESTR.CAVITY>
0

>  <SCORE.RESTR.norm>
0

>  <SCORE.SYSTEM>
0

>  <SCORE.SYSTEM.CONST>
0

>  <SCORE.SYSTEM.DIHEDRAL>
0

>  <SCORE.SYSTEM.SOLV>
0

>  <SCORE.SYSTEM.norm>
0

>  <SCORE.heavy>
26

>  <SCORE.norm>
-0.634282

>  <RMSD>
2.586

$$$$
ligand
 OpenBabel11021811443D
libRbt.so/2013.1/901 2013/11/27
 26 28  0  0  0  0  0  0  0  0999 V2000
   15.9083   39.6297   63.5694 C   0  0  0  0  0  0  0  0  0  0  0  0
   22.6322   40.1829   64.8773 C   0  0  0  0  0  0  0  0  0  0  0  0
   27.5042   39.0828   66.5209 P   0  0  1  0  0  0  0  0  0  0  0  0
   27.6282   41.3609   65.3038 P   0  0  1  0  0  0  0  0  0  0  0  0
   20.5494   40.8252   66.6434 C   0  0  0  0  0  0  0  0  0  0  0  0
   18.7633   39.2473   65.8486 C   0  0  0  0  0  0  0  0  0  0  0  0
   19.3210   40.5102   65.8292 C   0  0  0  0  0  0  0  0  0  0  0  0
   18.7178   41.4881   65.0364 C   0  0  0  0  0  0  0  0  0  0  0  0
   19.2396   42.7719   64.9820 N   0  0  0  0  0  0  0  0  0  0  0  0
   17.6381   41.1687   64.3289 N   0  0  0  0  0  0  0  0  0  0  0  0
   17.1362   39.9520   64.3805 C   0  0  0  0  0  0  0  0  0  0  0  0
   17.6822   39.0058   65.1191 N   0  0  0  0  0  0  0  0  0  0  0  0
   28.7270   38.4881   67.1063 O   0  0  0  0  0  0  0  0  0  0  0  0
   27.5889   41.6994   66.8111 O   0  0  0  0  0  0  0  0  0  0  0  0
   22.1643   37.5391   67.7291 S   0  0  0  0  0  0  0  0  0  0  0  0
   21.0090   38.8269   67.8850 C   0  0  0  0  0  0  0  0  0  0  0  0
   26.9078   40.1859   67.5285 O   0  0  0  0  0  0  0  0  0  0  0  0
   28.8264   42.1733   64.6005 O   0  5  0  0  0  0  0  0  0  0  0  0
   21.3157   39.5973   66.8670 N   0  0  0  0  0  0  0  0  0  0  0  0
   27.8671   39.7798   65.1152 O   0  0  0  0  0  0  0  0  0  0  0  0
   26.2847   41.7599   64.6530 O   0  0  0  0  0  0  0  0  0  0  0  0
   22.2929   39.2883   66.0428 C   0  0  2  0  0  0  0  0  0  0  0  0
   22.9947   38.1488   66.2695 C   0  0  2  0  0  0  0  0  0  0  0  0
   24.1494   37.5601   65.5020 C   0  0  0  0  0  0  0  0  0  0  0  0
   25.3370   38.5244   65.5436 C   0  0  0  0  0  0  0  0  0  0  0  0
   26.4081   37.9283   66.2782 O   0  0  0  0  0  0  0  0  0  0  0  0
  1 11  1  0  0  0  0
  3 13  1  1  0  0  0
  3 17  1  0  0  0  0
  3 20  1  0  0  0  0
  3 26  1  0  0  0  0
  4 14  1  0  0  0  0
  4 18  1  6  0  0  0
  4 21  2  0  0  0  0
  4 20  1  0  0  0  0
  5 19  1  0  0  0  0
  5  7  1  0  0  0  0
  6  7  2  0  0  0  0
  6 12  1  0  0  0  0
  7  8  1  0  0  0  0
  8  9  1  0  0  0  0
  8 10  2  0  0  0  0
 10 11  1  0  0  0  0
 11 12  2  0  0  0  0
 14 17  1  0  0  0  0
 15 23  1  0  0  0  0
 15 16  1  0  0  0  0
 16 19  1  0  0  0  0
 19 22  1  0  0  0  0
 22  2  1  1  0  0  0
 22 23  1  0  0  0  0
 23 24  1  6  0  0  0
 24 25  1  0  0  0  0
 25 26  1  0  0  0  0
M  CHG  1  18  -1
M  END
>  <CHROM.1>
-86.01734686,25.76113152,-117.94041955,114.20113762,-169.58649587,-171.92781198
23.45174425,39.82321089,65.87410233,-3.10670348,0.07826342,2.62373070

>  <Name>
ligand

>  <RI>
0

>  <Rbt.Current_Directory>
/home/itssahil/PROJECTS/Mol_Feturizer/New_Systems/rnas/2HOL

>  <Rbt.Executable>
rbdock ($Id: //depot/dev/client3/rdock/2013.1/src/exe/rbdock.cxx#4 $)

>  <Rbt.Library>
libRbt.so (2013.1, Build901 2013/11/27)

>  <Rbt.Parameter_File>
/export/apps/rDock/src/rDock_2013.1_src/data/scripts/dock_solv.prm

>  <Rbt.Receptor>
prm/pocket_docking_5.prm

>  <SCORE>
-19.7956

>  <SCORE.INTER>
-19.3671

>  <SCORE.INTER.CONST>
1

>  <SCORE.INTER.POLAR>
0

>  <SCORE.INTER.ROT>
6

>  <SCORE.INTER.SOLV>
18.1257

>  <SCORE.INTER.VDW>
-26.5533

>  <SCORE.INTER.norm>
-0.744888

>  <SCORE.INTRA>
-0.428495

>  <SCORE.INTRA.DIHEDRAL>
1.24048

>  <SCORE.INTRA.DIHEDRAL.0>
9.33621

>  <SCORE.INTRA.POLAR>
0

>  <SCORE.INTRA.POLAR.0>
0

>  <SCORE.INTRA.REPUL>
0

>  <SCORE.INTRA.REPUL.0>
0

>  <SCORE.INTRA.SOLV>
1.07804

>  <SCORE.INTRA.SOLV.lig_0>
-65.9238

>  <SCORE.INTRA.VDW>
-1.58776

>  <SCORE.INTRA.VDW.0>
-0.405582

>  <SCORE.INTRA.norm>
-0.0164806

>  <SCORE.RESTR>
0

>  <SCORE.RESTR.CAVITY>
0

>  <SCORE.RESTR.norm>
0

>  <SCORE.SYSTEM>
0

>  <SCORE.SYSTEM.CONST>
0

>  <SCORE.SYSTEM.DIHEDRAL>
0

>  <SCORE.SYSTEM.SOLV>
0

>  <SCORE.SYSTEM.norm>
0

>  <SCORE.heavy>
26

>  <SCORE.norm>
-0.761369

>  <RMSD>
2.600

$$$$
ligand
 OpenBabel11021811443D
libRbt.so/2013.1/901 2013/11/27
 26 28  0  0  0  0  0  0  0  0999 V2000
   15.8839   39.5459   63.6695 C   0  0  0  0  0  0  0  0  0  0  0  0
   21.8537   40.1465   68.3511 C   0  0  0  0  0  0  0  0  0  0  0  0
   26.9192   38.7267   68.0960 P   0  0  1  0  0  0  0  0  0  0  0  0
   28.0653   37.9930   65.8972 P   0  0  1  0  0  0  0  0  0  0  0  0
   21.0564   40.7402   65.7279 C   0  0  0  0  0  0  0  0  0  0  0  0
   19.3152   39.1241   64.9104 C   0  0  0  0  0  0  0  0  0  0  0  0
   19.6870   40.4256   65.1830 C   0  0  0  0  0  0  0  0  0  0  0  0
   18.7619   41.4427   64.9414 C   0  0  0  0  0  0  0  0  0  0  0  0
   19.0866   42.7663   65.1982 N   0  0  0  0  0  0  0  0  0  0  0  0
   17.5657   41.1241   64.4556 N   0  0  0  0  0  0  0  0  0  0  0  0
   17.2509   39.8681   64.2142 C   0  0  0  0  0  0  0  0  0  0  0  0
   18.1019   38.8843   64.4312 N   0  0  0  0  0  0  0  0  0  0  0  0
   27.6288   38.5781   69.3867 O   0  0  0  0  0  0  0  0  0  0  0  0
   28.6526   39.3843   66.2249 O   0  0  0  0  0  0  0  0  0  0  0  0
   22.8818   37.3860   65.7695 S   0  0  0  0  0  0  0  0  0  0  0  0
   22.0379   38.6843   64.9824 C   0  0  0  0  0  0  0  0  0  0  0  0
   27.4199   40.0659   67.3586 O   0  0  0  0  0  0  0  0  0  0  0  0
   29.2611   36.9687   65.5637 O   0  5  0  0  0  0  0  0  0  0  0  0
   21.7789   39.4924   65.9843 N   0  0  0  0  0  0  0  0  0  0  0  0
   27.2306   37.4514   67.1632 O   0  0  0  0  0  0  0  0  0  0  0  0
   27.1288   38.1065   64.6734 O   0  0  0  0  0  0  0  0  0  0  0  0
   22.1575   39.2073   67.2112 C   0  0  2  0  0  0  0  0  0  0  0  0
   22.8217   38.0438   67.4295 C   0  0  2  0  0  0  0  0  0  0  0  0
   23.3613   37.4692   68.7131 C   0  0  0  0  0  0  0  0  0  0  0  0
   24.8911   37.5008   68.6854 C   0  0  0  0  0  0  0  0  0  0  0  0
   25.3337   38.8205   68.3619 O   0  0  0  0  0  0  0  0  0  0  0  0
  1 11  1  0  0  0  0
  3 13  1  1  0  0  0
  3 17  1  0  0  0  0
  3 20  1  0  0  0  0
  3 26  1  0  0  0  0
  4 14  1  0  0  0  0
  4 18  1  6  0  0  0
  4 21  2  0  0  0  0
  4 20  1  0  0  0  0
  5 19  1  0  0  0  0
  5  7  1  0  0  0  0
  6  7  2  0  0  0  0
  6 12  1  0  0  0  0
  7  8  1  0  0  0  0
  8  9  1  0  0  0  0
  8 10  2  0  0  0  0
 10 11  1  0  0  0  0
 11 12  2  0  0  0  0
 14 17  1  0  0  0  0
 15 23  1  0  0  0  0
 15 16  1  0  0  0  0
 16 19  1  0  0  0  0
 19 22  1  0  0  0  0
 22  2  1  1  0  0  0
 22 23  1  0  0  0  0
 23 24  1  6  0  0  0
 24 25  1  0  0  0  0
 25 26  1  0  0  0  0
M  CHG  1  18  -1
M  END
>  <CHROM.1>
61.85384741,-4.41125482,69.23544585,52.11861303,-170.28573868,-74.71617193
23.51790564,38.97928867,66.33868318,-2.95088232,-0.24809747,1.38615175

>  <Name>
ligand

>  <RI>
0

>  <Rbt.Current_Directory>
/home/itssahil/PROJECTS/Mol_Feturizer/New_Systems/rnas/2HOL

>  <Rbt.Executable>
rbdock ($Id: //depot/dev/client3/rdock/2013.1/src/exe/rbdock.cxx#4 $)

>  <Rbt.Library>
libRbt.so (2013.1, Build901 2013/11/27)

>  <Rbt.Parameter_File>
/export/apps/rDock/src/rDock_2013.1_src/data/scripts/dock_solv.prm

>  <Rbt.Receptor>
prm/pocket_docking_4.prm

>  <SCORE>
-24.2447

>  <SCORE.INTER>
-21.6252

>  <SCORE.INTER.CONST>
1

>  <SCORE.INTER.POLAR>
0

>  <SCORE.INTER.ROT>
6

>  <SCORE.INTER.SOLV>
22.6746

>  <SCORE.INTER.VDW>
-29.575

>  <SCORE.INTER.norm>
-0.831737

>  <SCORE.INTRA>
-2.61954

>  <SCORE.INTRA.DIHEDRAL>
-3.18703

>  <SCORE.INTRA.DIHEDRAL.0>
9.33621

>  <SCORE.INTRA.POLAR>
0

>  <SCORE.INTRA.POLAR.0>
0

>  <SCORE.INTRA.REPUL>
0

>  <SCORE.INTRA.REPUL.0>
0

>  <SCORE.INTRA.SOLV>
-0.276118

>  <SCORE.INTRA.SOLV.lig_0>
-65.9238

>  <SCORE.INTRA.VDW>
-0.887962

>  <SCORE.INTRA.VDW.0>
-0.405582

>  <SCORE.INTRA.norm>
-0.100751

>  <SCORE.RESTR>
0

>  <SCORE.RESTR.CAVITY>
0

>  <SCORE.RESTR.norm>
0

>  <SCORE.SYSTEM>
0

>  <SCORE.SYSTEM.CONST>
0

>  <SCORE.SYSTEM.DIHEDRAL>
0

>  <SCORE.SYSTEM.SOLV>
0

>  <SCORE.SYSTEM.norm>
0

>  <SCORE.heavy>
26

>  <SCORE.norm>
-0.932489

>  <RMSD>
2.610

$$$$
ligand
 OpenBabel11021811443D
libRbt.so/2013.1/901 2013/11/27
 26 28  0  0  0  0  0  0  0  0999 V2000
   15.6352   39.4180   63.5029 C   0  0  0  0  0  0  0  0  0  0  0  0
   21.7054   39.9557   68.4627 C   0  0  0  0  0  0  0  0  0  0  0  0
   27.4374   38.4286   68.6525 P   0  0  1  0  0  0  0  0  0  0  0  0
   28.5429   40.7150   68.1660 P   0  0  1  0  0  0  0  0  0  0  0  0
   20.4533   40.9139   66.1424 C   0  0  0  0  0  0  0  0  0  0  0  0
   18.7615   39.2031   65.4193 C   0  0  0  0  0  0  0  0  0  0  0  0
   19.1778   40.5193   65.4433 C   0  0  0  0  0  0  0  0  0  0  0  0
   18.3870   41.4756   64.8039 C   0  0  0  0  0  0  0  0  0  0  0  0
   18.7615   42.8109   64.7989 N   0  0  0  0  0  0  0  0  0  0  0  0
   17.2713   41.0862   64.1940 N   0  0  0  0  0  0  0  0  0  0  0  0
   16.9090   39.8198   64.1997 C   0  0  0  0  0  0  0  0  0  0  0  0
   17.6337   38.8923   64.7942 N   0  0  0  0  0  0  0  0  0  0  0  0
   28.0319   37.1873   68.1072 O   0  0  0  0  0  0  0  0  0  0  0  0
   29.3669   40.0942   69.3165 O   0  0  0  0  0  0  0  0  0  0  0  0
   22.8774   38.1137   65.2106 S   0  0  0  0  0  0  0  0  0  0  0  0
   21.6988   39.3344   64.8386 C   0  0  0  0  0  0  0  0  0  0  0  0
   28.2263   38.8614   69.9860 O   0  0  0  0  0  0  0  0  0  0  0  0
   29.5368   41.2380   67.0131 O   0  5  0  0  0  0  0  0  0  0  0  0
   21.4307   39.8296   66.0247 N   0  0  0  0  0  0  0  0  0  0  0  0
   27.5502   39.6033   67.5567 O   0  0  0  0  0  0  0  0  0  0  0  0
   27.7158   41.9017   68.7093 O   0  0  0  0  0  0  0  0  0  0  0  0
   22.0232   39.3756   67.1076 C   0  0  2  0  0  0  0  0  0  0  0  0
   22.9224   38.3669   66.9786 C   0  0  2  0  0  0  0  0  0  0  0  0
   23.7348   37.6606   68.0321 C   0  0  0  0  0  0  0  0  0  0  0  0
   25.2249   37.8909   67.7700 C   0  0  0  0  0  0  0  0  0  0  0  0
   25.8870   38.1726   69.0045 O   0  0  0  0  0  0  0  0  0  0  0  0
  1 11  1  0  0  0  0
  3 13  1  6  0  0  0
  3 17  1  0  0  0  0
  3 20  1  0  0  0  0
  3 26  1  0  0  0  0
  4 14  1  0  0  0  0
  4 18  1  6  0  0  0
  4 21  2  0  0  0  0
  4 20  1  0  0  0  0
  5 19  1  0  0  0  0
  5  7  1  0  0  0  0
  6  7  2  0  0  0  0
  6 12  1  0  0  0  0
  7  8  1  0  0  0  0
  8  9  1  0  0  0  0
  8 10  2  0  0  0  0
 10 11  1  0  0  0  0
 11 12  2  0  0  0  0
 14 17  1  0  0  0  0
 15 23  1  0  0  0  0
 15 16  1  0  0  0  0
 16 19  1  0  0  0  0
 19 22  1  0  0  0  0
 22  2  1  1  0  0  0
 22 23  1  0  0  0  0
 23 24  1  6  0  0  0
 24 25  1  0  0  0  0
 25 26  1  0  0  0  0
M  CHG  1  18  -1
M  END
>  <CHROM.1>
51.88702201,33.20692542,62.22201490,137.04122317,-179.02478418,-64.12512646
23.61061850,39.57141978,66.87179238,3.03113348,-0.34915954,-0.15888371

>  <Name>
ligand

>  <RI>
0

>  <Rbt.Current_Directory>
/home/itssahil/PROJECTS/Mol_Feturizer/New_Systems/rnas/2HOL

>  <Rbt.Executable>
rbdock ($Id: //depot/dev/client3/rdock/2013.1/src/exe/rbdock.cxx#4 $)

>  <Rbt.Library>
libRbt.so (2013.1, Build901 2013/11/27)

>  <Rbt.Parameter_File>
/export/apps/rDock/src/rDock_2013.1_src/data/scripts/dock_solv.prm

>  <Rbt.Receptor>
prm/pocket_docking_3.prm

>  <SCORE>
-20.1078

>  <SCORE.INTER>
-19.0434

>  <SCORE.INTER.CONST>
1

>  <SCORE.INTER.POLAR>
0

>  <SCORE.INTER.ROT>
6

>  <SCORE.INTER.SOLV>
20.6942

>  <SCORE.INTER.VDW>
-27.1936

>  <SCORE.INTER.norm>
-0.732437

>  <SCORE.INTRA>
-1.0644

>  <SCORE.INTRA.DIHEDRAL>
0.342606

>  <SCORE.INTRA.DIHEDRAL.0>
9.33621

>  <SCORE.INTRA.POLAR>
0

>  <SCORE.INTRA.POLAR.0>
0

>  <SCORE.INTRA.REPUL>
0

>  <SCORE.INTRA.REPUL.0>
0

>  <SCORE.INTRA.SOLV>
-0.499306

>  <SCORE.INTRA.SOLV.lig_0>
-65.9238

>  <SCORE.INTRA.VDW>
-0.986054

>  <SCORE.INTRA.VDW.0>
-0.405582

>  <SCORE.INTRA.norm>
-0.0409386

>  <SCORE.RESTR>
0

>  <SCORE.RESTR.CAVITY>
0

>  <SCORE.RESTR.norm>
0

>  <SCORE.SYSTEM>
0

>  <SCORE.SYSTEM.CONST>
0

>  <SCORE.SYSTEM.DIHEDRAL>
0

>  <SCORE.SYSTEM.SOLV>
0

>  <SCORE.SYSTEM.norm>
0

>  <SCORE.heavy>
26

>  <SCORE.norm>
-0.773375

>  <RMSD>
2.620

$$$$
ligand
 OpenBabel11021811443D
libRbt.so/2013.1/901 2013/11/27
 26 28  0  0  0  0  0  0  0  0999 V2000
   16.0675   39.5791   63.6083 C   0  0  0  0  0  0  0  0  0  0  0  0
   21.8218   38.8920   67.8438 C   0  0  0  0  0  0  0  0  0  0  0  0
   26.8385   39.9893   66.3919 P   0  0  1  0  0  0  0  0  0  0  0  0
   28.6219   38.2108   65.8064 P   0  0  1  0  0  0  0  0  0  0  0  0
   20.5251   41.1436   66.7863 C   0  0  0  0  0  0  0  0  0  0  0  0
   18.8791   39.4314   65.9673 C   0  0  0  0  0  0  0  0  0  0  0  0
   19.3451   40.7309   65.9446 C   0  0  0  0  0  0  0  0  0  0  0  0
   18.6953   41.6529   65.1222 C   0  0  0  0  0  0  0  0  0  0  0  0
   19.1250   42.9703   65.0633 N   0  0  0  0  0  0  0  0  0  0  0  0
   17.6610   41.2480   64.3911 N   0  0  0  0  0  0  0  0  0  0  0  0
   17.2464   39.9989   64.4469 C   0  0  0  0  0  0  0  0  0  0  0  0
   17.8385   39.1037   65.2131 N   0  0  0  0  0  0  0  0  0  0  0  0
   27.1329   41.4266   66.1945 O   0  0  0  0  0  0  0  0  0  0  0  0
   27.9693   38.6000   64.4608 O   0  0  0  0  0  0  0  0  0  0  0  0
   23.6673   40.4137   64.7421 S   0  0  0  0  0  0  0  0  0  0  0  0
   22.2349   41.3225   65.1158 C   0  0  0  0  0  0  0  0  0  0  0  0
   26.4031   39.3325   64.9895 O   0  0  0  0  0  0  0  0  0  0  0  0
   30.2242   38.2595   65.6619 O   0  5  0  0  0  0  0  0  0  0  0  0
   21.7620   40.6766   66.1565 N   0  0  0  0  0  0  0  0  0  0  0  0
   28.1533   39.2443   66.9487 O   0  0  0  0  0  0  0  0  0  0  0  0
   28.1838   36.7808   66.1946 O   0  0  0  0  0  0  0  0  0  0  0  0
   22.3768   39.6224   66.6470 C   0  0  2  0  0  0  0  0  0  0  0  0
   23.5192   39.2019   66.0465 C   0  0  2  0  0  0  0  0  0  0  0  0
   24.4148   38.0398   66.3873 C   0  0  0  0  0  0  0  0  0  0  0  0
   25.3468   38.4309   67.5364 C   0  0  0  0  0  0  0  0  0  0  0  0
   25.6409   39.8270   67.4561 O   0  0  0  0  0  0  0  0  0  0  0  0
  1 11  1  0  0  0  0
  3 13  1  6  0  0  0
  3 17  1  0  0  0  0
  3 20  1  0  0  0  0
  3 26  1  0  0  0  0
  4 14  1  0  0  0  0
  4 18  1  6  0  0  0
  4 21  2  0  0  0  0
  4 20  1  0  0  0  0
  5 19  1  0  0  0  0
  5  7  1  0  0  0  0
  6  7  2  0  0  0  0
  6 12  1  0  0  0  0
  7  8  1  0  0  0  0
  8  9  1  0  0  0  0
  8 10  2  0  0  0  0
 10 11  1  0  0  0  0
 11 12  2  0  0  0  0
 14 17  1  0  0  0  0
 15 23  1  0  0  0  0
 15 16  1  0  0  0  0
 16 19  1  0  0  0  0
 19 22  1  0  0  0  0
 22  2  1  6  0  0  0
 22 23  1  0  0  0  0
 23 24  1  1  0  0  0
 24 25  1  0  0  0  0
 25 26  1  0  0  0  0
M  CHG  1  18  -1
M  END
>  <CHROM.1>
76.72760129,77.20989978,98.76095192,-31.75374772,-82.77061858,176.29683035
23.69454673,39.70390878,65.80168817,2.94565071,-0.06951964,-0.14615504

>  <Name>
ligand

>  <RI>
0

>  <Rbt.Current_Directory>
/home/itssahil/PROJECTS/Mol_Feturizer/New_Systems/rnas/2HOL

>  <Rbt.Executable>
rbdock ($Id: //depot/dev/client3/rdock/2013.1/src/exe/rbdock.cxx#4 $)

>  <Rbt.Library>
libRbt.so (2013.1, Build901 2013/11/27)

>  <Rbt.Parameter_File>
/export/apps/rDock/src/rDock_2013.1_src/data/scripts/dock_solv.prm

>  <Rbt.Receptor>
prm/pocket_docking_3.prm

>  <SCORE>
-15.4967

>  <SCORE.INTER>
-15.0849

>  <SCORE.INTER.CONST>
1

>  <SCORE.INTER.POLAR>
0

>  <SCORE.INTER.ROT>
6

>  <SCORE.INTER.SOLV>
20.0085

>  <SCORE.INTER.VDW>
-24.3261

>  <SCORE.INTER.norm>
-0.580189

>  <SCORE.INTRA>
-0.530988

>  <SCORE.INTRA.DIHEDRAL>
0.184888

>  <SCORE.INTRA.DIHEDRAL.0>
9.33621

>  <SCORE.INTRA.POLAR>
0

>  <SCORE.INTRA.POLAR.0>
0

>  <SCORE.INTRA.REPUL>
0

>  <SCORE.INTRA.REPUL.0>
0

>  <SCORE.INTRA.SOLV>
2.2085

>  <SCORE.INTRA.SOLV.lig_0>
-65.9238

>  <SCORE.INTRA.VDW>
-1.72768

>  <SCORE.INTRA.VDW.0>
-0.405582

>  <SCORE.INTRA.norm>
-0.0204226

>  <SCORE.RESTR>
0.119233

>  <SCORE.RESTR.CAVITY>
0.119233

>  <SCORE.RESTR.norm>
0.0045859

>  <SCORE.SYSTEM>
0

>  <SCORE.SYSTEM.CONST>
0

>  <SCORE.SYSTEM.DIHEDRAL>
0

>  <SCORE.SYSTEM.SOLV>
0

>  <SCORE.SYSTEM.norm>
0

>  <SCORE.heavy>
26

>  <SCORE.norm>
-0.596026

>  <RMSD>
2.638

$$$$
ligand
 OpenBabel11021811443D
libRbt.so/2013.1/901 2013/11/27
 26 28  0  0  0  0  0  0  0  0999 V2000
   15.5465   39.3927   63.3792 C   0  0  0  0  0  0  0  0  0  0  0  0
   21.9988   40.1739   68.2467 C   0  0  0  0  0  0  0  0  0  0  0  0
   27.7762   38.3844   67.7615 P   0  0  1  0  0  0  0  0  0  0  0  0
   28.6847   37.4165   65.5424 P   0  0  1  0  0  0  0  0  0  0  0  0
   20.3674   40.8119   66.0556 C   0  0  0  0  0  0  0  0  0  0  0  0
   18.6673   39.1246   65.2977 C   0  0  0  0  0  0  0  0  0  0  0  0
   19.0911   40.4377   65.3468 C   0  0  0  0  0  0  0  0  0  0  0  0
   18.3073   41.4101   64.7234 C   0  0  0  0  0  0  0  0  0  0  0  0
   18.6895   42.7431   64.7437 N   0  0  0  0  0  0  0  0  0  0  0  0
   17.1907   41.0385   64.1041 N   0  0  0  0  0  0  0  0  0  0  0  0
   16.8210   39.7743   64.0858 C   0  0  0  0  0  0  0  0  0  0  0  0
   17.5391   38.8319   64.6647 N   0  0  0  0  0  0  0  0  0  0  0  0
   28.7131   38.7602   68.8444 O   0  0  0  0  0  0  0  0  0  0  0  0
   28.8725   38.9466   65.4334 O   0  0  0  0  0  0  0  0  0  0  0  0
   22.6712   37.9135   65.1194 S   0  0  0  0  0  0  0  0  0  0  0  0
   21.4211   39.0727   64.7865 C   0  0  0  0  0  0  0  0  0  0  0  0
   27.7113   39.5668   66.6727 O   0  0  0  0  0  0  0  0  0  0  0  0
   30.0558   36.6757   65.1401 O   0  5  0  0  0  0  0  0  0  0  0  0
   21.3369   39.7221   65.9245 N   0  0  0  0  0  0  0  0  0  0  0  0
   28.2889   37.0311   67.0548 O   0  0  0  0  0  0  0  0  0  0  0  0
   27.5578   36.9683   64.5850 O   0  0  0  0  0  0  0  0  0  0  0  0
   22.1065   39.4176   66.9466 C   0  0  2  0  0  0  0  0  0  0  0  0
   22.9954   38.4013   66.8072 C   0  0  2  0  0  0  0  0  0  0  0  0
   23.9829   37.8429   67.7981 C   0  0  0  0  0  0  0  0  0  0  0  0
   25.4062   38.0514   67.2760 C   0  0  0  0  0  0  0  0  0  0  0  0
   26.3092   38.1421   68.3798 O   0  0  0  0  0  0  0  0  0  0  0  0
  1 11  1  0  0  0  0
  3 13  1  1  0  0  0
  3 17  1  0  0  0  0
  3 20  1  0  0  0  0
  3 26  1  0  0  0  0
  4 14  1  0  0  0  0
  4 18  1  6  0  0  0
  4 21  2  0  0  0  0
  4 20  1  0  0  0  0
  5 19  1  0  0  0  0
  5  7  1  0  0  0  0
  6  7  2  0  0  0  0
  6 12  1  0  0  0  0
  7  8  1  0  0  0  0
  8  9  1  0  0  0  0
  8 10  2  0  0  0  0
 10 11  1  0  0  0  0
 11 12  2  0  0  0  0
 14 17  1  0  0  0  0
 15 23  1  0  0  0  0
 15 16  1  0  0  0  0
 16 19  1  0  0  0  0
 19 22  1  0  0  0  0
 22  2  1  1  0  0  0
 22 23  1  0  0  0  0
 23 24  1  6  0  0  0
 24 25  1  0  0  0  0
 25 26  1  0  0  0  0
M  CHG  1  18  -1
M  END
>  <CHROM.1>
39.02968306,32.99134829,62.87327780,152.40151982,-179.07420767,168.59011381
23.67003822,38.88139749,66.00994987,-3.08546409,-0.27951059,1.09199572

>  <Name>
ligand

>  <RI>
0

>  <Rbt.Current_Directory>
/home/itssahil/PROJECTS/Mol_Feturizer/New_Systems/rnas/2HOL

>  <Rbt.Executable>
rbdock ($Id: //depot/dev/client3/rdock/2013.1/src/exe/rbdock.cxx#4 $)

>  <Rbt.Library>
libRbt.so (2013.1, Build901 2013/11/27)

>  <Rbt.Parameter_File>
/export/apps/rDock/src/rDock_2013.1_src/data/scripts/dock_solv.prm

>  <Rbt.Receptor>
prm/pocket_docking_6.prm

>  <SCORE>
-21.8359

>  <SCORE.INTER>
-20.5382

>  <SCORE.INTER.CONST>
1

>  <SCORE.INTER.POLAR>
0

>  <SCORE.INTER.ROT>
6

>  <SCORE.INTER.SOLV>
25.871

>  <SCORE.INTER.VDW>
-29.9158

>  <SCORE.INTER.norm>
-0.789932

>  <SCORE.INTRA>
-1.29768

>  <SCORE.INTRA.DIHEDRAL>
-1.55982

>  <SCORE.INTRA.DIHEDRAL.0>
9.33621

>  <SCORE.INTRA.POLAR>
0

>  <SCORE.INTRA.POLAR.0>
0

>  <SCORE.INTRA.REPUL>
0

>  <SCORE.INTRA.REPUL.0>
0

>  <SCORE.INTRA.SOLV>
0.00727555

>  <SCORE.INTRA.SOLV.lig_0>
-65.9238

>  <SCORE.INTRA.VDW>
-0.521406

>  <SCORE.INTRA.VDW.0>
-0.405582

>  <SCORE.INTRA.norm>
-0.0499106

>  <SCORE.RESTR>
0

>  <SCORE.RESTR.CAVITY>
0

>  <SCORE.RESTR.norm>
0

>  <SCORE.SYSTEM>
0

>  <SCORE.SYSTEM.CONST>
0

>  <SCORE.SYSTEM.DIHEDRAL>
0

>  <SCORE.SYSTEM.SOLV>
0

>  <SCORE.SYSTEM.norm>
0

>  <SCORE.heavy>
26

>  <SCORE.norm>
-0.839843

>  <RMSD>
2.643

$$$$
ligand
 OpenBabel11021811443D
libRbt.so/2013.1/901 2013/11/27
 26 28  0  0  0  0  0  0  0  0999 V2000
   16.0167   39.7122   63.8685 C   0  0  0  0  0  0  0  0  0  0  0  0
   23.1215   40.4287   64.6281 C   0  0  0  0  0  0  0  0  0  0  0  0
   28.2307   38.7130   66.4934 P   0  0  1  0  0  0  0  0  0  0  0  0
   28.0955   40.8346   67.9653 P   0  0  1  0  0  0  0  0  0  0  0  0
   20.9615   41.3939   66.1356 C   0  0  0  0  0  0  0  0  0  0  0  0
   18.5480   41.7747   65.5511 C   0  0  0  0  0  0  0  0  0  0  0  0
   19.6533   40.9475   65.5352 C   0  0  0  0  0  0  0  0  0  0  0  0
   19.5284   39.6870   64.9485 C   0  0  0  0  0  0  0  0  0  0  0  0
   20.6088   38.8184   64.9075 N   0  0  0  0  0  0  0  0  0  0  0  0
   18.3556   39.3286   64.4342 N   0  0  0  0  0  0  0  0  0  0  0  0
   17.3276   40.1516   64.4667 C   0  0  0  0  0  0  0  0  0  0  0  0
   17.4127   41.3485   65.0137 N   0  0  0  0  0  0  0  0  0  0  0  0
   29.4434   38.4467   65.6871 O   0  0  0  0  0  0  0  0  0  0  0  0
   28.9344   39.8217   68.7767 O   0  0  0  0  0  0  0  0  0  0  0  0
   22.4783   38.3607   67.8918 S   0  0  0  0  0  0  0  0  0  0  0  0
   21.3331   39.6588   67.7472 C   0  0  0  0  0  0  0  0  0  0  0  0
   28.4822   38.2468   68.0123 O   0  0  0  0  0  0  0  0  0  0  0  0
   28.8531   42.2542   67.9286 O   0  5  0  0  0  0  0  0  0  0  0  0
   21.7000   40.2263   66.6215 N   0  0  0  0  0  0  0  0  0  0  0  0
   27.9021   40.2892   66.4627 O   0  0  0  0  0  0  0  0  0  0  0  0
   26.7126   41.0068   68.6327 O   0  0  0  0  0  0  0  0  0  0  0  0
   22.7131   39.7667   65.9199 C   0  0  2  0  0  0  0  0  0  0  0  0
   23.3882   38.6867   66.3892 C   0  0  2  0  0  0  0  0  0  0  0  0
   24.5722   37.9622   65.8042 C   0  0  0  0  0  0  0  0  0  0  0  0
   25.8276   38.2952   66.6134 C   0  0  0  0  0  0  0  0  0  0  0  0
   26.9866   37.8954   65.8793 O   0  0  0  0  0  0  0  0  0  0  0  0
  1 11  1  0  0  0  0
  3 13  1  6  0  0  0
  3 17  1  0  0  0  0
  3 20  1  0  0  0  0
  3 26  1  0  0  0  0
  4 14  1  0  0  0  0
  4 18  1  6  0  0  0
  4 21  2  0  0  0  0
  4 20  1  0  0  0  0
  5 19  1  0  0  0  0
  5  7  1  0  0  0  0
  6  7  2  0  0  0  0
  6 12  1  0  0  0  0
  7  8  1  0  0  0  0
  8  9  1  0  0  0  0
  8 10  2  0  0  0  0
 10 11  1  0  0  0  0
 11 12  2  0  0  0  0
 14 17  1  0  0  0  0
 15 23  1  0  0  0  0
 15 16  1  0  0  0  0
 16 19  1  0  0  0  0
 19 22  1  0  0  0  0
 22  2  1  1  0  0  0
 22 23  1  0  0  0  0
 23 24  1  6  0  0  0
 24 25  1  0  0  0  0
 25 26  1  0  0  0  0
M  CHG  1  18  -1
M  END
>  <CHROM.1>
-76.50709488,150.79815796,-73.87701326,-165.47697741,160.26412499,-174.35977965
23.94863501,39.69914813,66.43583471,-3.09092142,-0.22814512,0.44942091

>  <Name>
ligand

>  <RI>
0

>  <Rbt.Current_Directory>
/home/itssahil/PROJECTS/Mol_Feturizer/New_Systems/rnas/2HOL

>  <Rbt.Executable>
rbdock ($Id: //depot/dev/client3/rdock/2013.1/src/exe/rbdock.cxx#4 $)

>  <Rbt.Library>
libRbt.so (2013.1, Build901 2013/11/27)

>  <Rbt.Parameter_File>
/export/apps/rDock/src/rDock_2013.1_src/data/scripts/dock_solv.prm

>  <Rbt.Receptor>
prm/pocket_docking_2.prm

>  <SCORE>
-12.8523

>  <SCORE.INTER>
-16.6141

>  <SCORE.INTER.CONST>
1

>  <SCORE.INTER.POLAR>
0

>  <SCORE.INTER.ROT>
6

>  <SCORE.INTER.SOLV>
14.7972

>  <SCORE.INTER.VDW>
-23.6084

>  <SCORE.INTER.norm>
-0.639002

>  <SCORE.INTRA>
2.19175

>  <SCORE.INTRA.DIHEDRAL>
-1.68092

>  <SCORE.INTRA.DIHEDRAL.0>
9.33621

>  <SCORE.INTRA.POLAR>
0

>  <SCORE.INTRA.POLAR.0>
0

>  <SCORE.INTRA.REPUL>
0

>  <SCORE.INTRA.REPUL.0>
0

>  <SCORE.INTRA.SOLV>
6.35046

>  <SCORE.INTRA.SOLV.lig_0>
-65.9238

>  <SCORE.INTRA.VDW>
-0.143022

>  <SCORE.INTRA.VDW.0>
-0.405582

>  <SCORE.INTRA.norm>
0.0842981

>  <SCORE.RESTR>
1.57001

>  <SCORE.RESTR.CAVITY>
1.57001

>  <SCORE.RESTR.norm>
0.0603849

>  <SCORE.SYSTEM>
0

>  <SCORE.SYSTEM.CONST>
0

>  <SCORE.SYSTEM.DIHEDRAL>
0

>  <SCORE.SYSTEM.SOLV>
0

>  <SCORE.SYSTEM.norm>
0

>  <SCORE.heavy>
26

>  <SCORE.norm>
-0.494319

>  <RMSD>
2.656

$$$$
ligand
 OpenBabel11021811443D
libRbt.so/2013.1/901 2013/11/27
 26 28  0  0  0  0  0  0  0  0999 V2000
   16.0829   39.3961   63.7765 C   0  0  0  0  0  0  0  0  0  0  0  0
   22.2955   41.5133   68.4419 C   0  0  0  0  0  0  0  0  0  0  0  0
   27.3961   38.1318   68.0105 P   0  0  1  0  0  0  0  0  0  0  0  0
   28.6265   40.2336   67.1414 P   0  0  1  0  0  0  0  0  0  0  0  0
   20.4453   41.9648   66.3822 C   0  0  0  0  0  0  0  0  0  0  0  0
   18.4092   42.0025   64.9110 C   0  0  0  0  0  0  0  0  0  0  0  0
   19.2910   41.2836   65.6932 C   0  0  0  0  0  0  0  0  0  0  0  0
   19.0865   39.9094   65.8293 C   0  0  0  0  0  0  0  0  0  0  0  0
   19.9436   39.1426   66.6043 N   0  0  0  0  0  0  0  0  0  0  0  0
   18.0534   39.3469   65.2091 N   0  0  0  0  0  0  0  0  0  0  0  0
   17.2389   40.0701   64.4684 C   0  0  0  0  0  0  0  0  0  0  0  0
   17.4044   41.3699   64.3198 N   0  0  0  0  0  0  0  0  0  0  0  0
   27.7328   36.7976   67.4646 O   0  0  0  0  0  0  0  0  0  0  0  0
   29.5882   39.5844   68.1620 O   0  0  0  0  0  0  0  0  0  0  0  0
   23.4579   40.0761   64.9886 S   0  0  0  0  0  0  0  0  0  0  0  0
   21.9056   40.8429   64.8477 C   0  0  0  0  0  0  0  0  0  0  0  0
   28.4744   38.5413   69.1319 O   0  0  0  0  0  0  0  0  0  0  0  0
   29.4249   40.5633   65.7834 O   0  5  0  0  0  0  0  0  0  0  0  0
   21.6871   41.2513   66.0763 N   0  0  0  0  0  0  0  0  0  0  0  0
   27.4182   39.2184   66.8220 O   0  0  0  0  0  0  0  0  0  0  0  0
   28.0567   41.5422   67.7337 O   0  0  0  0  0  0  0  0  0  0  0  0
   22.5604   41.0367   67.0360 C   0  0  2  0  0  0  0  0  0  0  0  0
   23.7032   40.3694   66.7338 C   0  0  2  0  0  0  0  0  0  0  0  0
   24.8581   39.9864   67.6216 C   0  0  0  0  0  0  0  0  0  0  0  0
   25.0048   38.4632   67.6429 C   0  0  0  0  0  0  0  0  0  0  0  0
   25.9269   38.0885   68.6682 O   0  0  0  0  0  0  0  0  0  0  0  0
  1 11  1  0  0  0  0
  3 13  1  6  0  0  0
  3 17  1  0  0  0  0
  3 20  1  0  0  0  0
  3 26  1  0  0  0  0
  4 14  1  0  0  0  0
  4 18  1  6  0  0  0
  4 21  2  0  0  0  0
  4 20  1  0  0  0  0
  5 19  1  0  0  0  0
  5  7  1  0  0  0  0
  6  7  2  0  0  0  0
  6 12  1  0  0  0  0
  7  8  1  0  0  0  0
  8  9  1  0  0  0  0
  8 10  2  0  0  0  0
 10 11  1  0  0  0  0
 11 12  2  0  0  0  0
 14 17  1  0  0  0  0
 15 23  1  0  0  0  0
 15 16  1  0  0  0  0
 16 19  1  0  0  0  0
 19 22  1  0  0  0  0
 22  2  1  1  0  0  0
 22 23  1  0  0  0  0
 23 24  1  6  0  0  0
 24 25  1  0  0  0  0
 25 26  1  0  0  0  0
M  CHG  1  18  -1
M  END
>  <CHROM.1>
42.77974906,-128.67764709,-61.05898905,-169.24028547,-87.39043950,-91.40771662
23.87051249,39.91025644,66.60492082,2.93521852,-0.20176278,-0.34502584

>  <Name>
ligand

>  <RI>
0

>  <Rbt.Current_Directory>
/home/itssahil/PROJECTS/Mol_Feturizer/New_Systems/rnas/2HOL

>  <Rbt.Executable>
rbdock ($Id: //depot/dev/client3/rdock/2013.1/src/exe/rbdock.cxx#4 $)

>  <Rbt.Library>
libRbt.so (2013.1, Build901 2013/11/27)

>  <Rbt.Parameter_File>
/export/apps/rDock/src/rDock_2013.1_src/data/scripts/dock_solv.prm

>  <Rbt.Receptor>
prm/pocket_docking_2.prm

>  <SCORE>
-6.87955

>  <SCORE.INTER>
-10.7605

>  <SCORE.INTER.CONST>
1

>  <SCORE.INTER.POLAR>
0

>  <SCORE.INTER.ROT>
6

>  <SCORE.INTER.SOLV>
15.101

>  <SCORE.INTER.VDW>
-19.8073

>  <SCORE.INTER.norm>
-0.413864

>  <SCORE.INTRA>
2.23038

>  <SCORE.INTRA.DIHEDRAL>
0.647245

>  <SCORE.INTRA.DIHEDRAL.0>
9.33621

>  <SCORE.INTRA.POLAR>
0

>  <SCORE.INTRA.POLAR.0>
0

>  <SCORE.INTRA.REPUL>
0

>  <SCORE.INTRA.REPUL.0>
0

>  <SCORE.INTRA.SOLV>
4.34568

>  <SCORE.INTRA.SOLV.lig_0>
-65.9238

>  <SCORE.INTRA.VDW>
-0.266078

>  <SCORE.INTRA.VDW.0>
-0.405582

>  <SCORE.INTRA.norm>
0.085784

>  <SCORE.RESTR>
1.65054

>  <SCORE.RESTR.CAVITY>
1.65054

>  <SCORE.RESTR.norm>
0.0634824

>  <SCORE.SYSTEM>
0

>  <SCORE.SYSTEM.CONST>
0

>  <SCORE.SYSTEM.DIHEDRAL>
0

>  <SCORE.SYSTEM.SOLV>
0

>  <SCORE.SYSTEM.norm>
0

>  <SCORE.heavy>
26

>  <SCORE.norm>
-0.264598

>  <RMSD>
2.662

$$$$
ligand
 OpenBabel11021811443D
libRbt.so/2013.1/901 2013/11/27
 26 28  0  0  0  0  0  0  0  0999 V2000
   15.9582   39.4872   63.7013 C   0  0  0  0  0  0  0  0  0  0  0  0
   22.3153   39.9351   64.8605 C   0  0  0  0  0  0  0  0  0  0  0  0
   26.5649   40.0226   65.1418 P   0  0  1  0  0  0  0  0  0  0  0  0
   28.4496   39.8663   66.9054 P   0  0  1  0  0  0  0  0  0  0  0  0
   20.5318   41.1117   66.6783 C   0  0  0  0  0  0  0  0  0  0  0  0
   18.8638   39.3815   65.9460 C   0  0  0  0  0  0  0  0  0  0  0  0
   19.3211   40.6831   65.8897 C   0  0  0  0  0  0  0  0  0  0  0  0
   18.6333   41.5921   65.0840 C   0  0  0  0  0  0  0  0  0  0  0  0
   19.0527   42.9109   64.9928 N   0  0  0  0  0  0  0  0  0  0  0  0
   17.5726   41.1733   64.4001 N   0  0  0  0  0  0  0  0  0  0  0  0
   17.1677   39.9229   64.4867 C   0  0  0  0  0  0  0  0  0  0  0  0
   17.7954   39.0397   65.2383 N   0  0  0  0  0  0  0  0  0  0  0  0
   26.5707   41.1185   64.1466 O   0  0  0  0  0  0  0  0  0  0  0  0
   29.0438   39.2656   65.6114 O   0  0  0  0  0  0  0  0  0  0  0  0
   22.1991   38.0899   68.3135 S   0  0  0  0  0  0  0  0  0  0  0  0
   21.1142   39.4464   68.3012 C   0  0  0  0  0  0  0  0  0  0  0  0
   27.5615   38.8549   64.6610 O   0  0  0  0  0  0  0  0  0  0  0  0
   29.4773   40.9409   67.5215 O   0  5  0  0  0  0  0  0  0  0  0  0
   21.2892   39.9286   67.0926 N   0  0  0  0  0  0  0  0  0  0  0  0
   27.0519   40.5909   66.5678 O   0  0  0  0  0  0  0  0  0  0  0  0
   28.2093   38.7369   67.9322 O   0  0  0  0  0  0  0  0  0  0  0  0
   22.1264   39.3702   66.2458 C   0  0  2  0  0  0  0  0  0  0  0  0
   22.8229   38.2775   66.6499 C   0  0  2  0  0  0  0  0  0  0  0  0
   23.8364   37.4509   65.9027 C   0  0  0  0  0  0  0  0  0  0  0  0
   25.1921   38.1605   65.9238 C   0  0  0  0  0  0  0  0  0  0  0  0
   25.0734   39.4320   65.2826 O   0  0  0  0  0  0  0  0  0  0  0  0
  1 11  1  0  0  0  0
  3 13  1  6  0  0  0
  3 17  1  0  0  0  0
  3 20  1  0  0  0  0
  3 26  1  0  0  0  0
  4 14  1  0  0  0  0
  4 18  1  1  0  0  0
  4 21  2  0  0  0  0
  4 20  1  0  0  0  0
  5 19  1  0  0  0  0
  5  7  1  0  0  0  0
  6  7  2  0  0  0  0
  6 12  1  0  0  0  0
  7  8  1  0  0  0  0
  8  9  1  0  0  0  0
  8 10  2  0  0  0  0
 10 11  1  0  0  0  0
 11 12  2  0  0  0  0
 14 17  1  0  0  0  0
 15 23  1  0  0  0  0
 15 16  1  0  0  0  0
 16 19  1  0  0  0  0
 19 22  1  0  0  0  0
 22  2  1  1  0  0  0
 22 23  1  0  0  0  0
 23 24  1  6  0  0  0
 24 25  1  0  0  0  0
 25 26  1  0  0  0  0
M  CHG  1  18  -1
M  END
>  <CHROM.1>
-97.49108348,17.24869708,-100.42946212,-60.83167240,-171.65903714,163.13021151
23.42371600,39.73828238,66.00467905,-3.02963637,0.02579754,2.26434789

>  <Name>
ligand

>  <RI>
0

>  <Rbt.Current_Directory>
/home/itssahil/PROJECTS/Mol_Feturizer/New_Systems/rnas/2HOL

>  <Rbt.Executable>
rbdock ($Id: //depot/dev/client3/rdock/2013.1/src/exe/rbdock.cxx#4 $)

>  <Rbt.Library>
libRbt.so (2013.1, Build901 2013/11/27)

>  <Rbt.Parameter_File>
/export/apps/rDock/src/rDock_2013.1_src/data/scripts/dock_solv.prm

>  <Rbt.Receptor>
prm/pocket_docking_3.prm

>  <SCORE>
-20.3253

>  <SCORE.INTER>
-18.1014

>  <SCORE.INTER.CONST>
1

>  <SCORE.INTER.POLAR>
0

>  <SCORE.INTER.ROT>
6

>  <SCORE.INTER.SOLV>
20.6615

>  <SCORE.INTER.VDW>
-26.5548

>  <SCORE.INTER.norm>
-0.696207

>  <SCORE.INTRA>
-2.55442

>  <SCORE.INTRA.DIHEDRAL>
-3.84637

>  <SCORE.INTRA.DIHEDRAL.0>
9.33621

>  <SCORE.INTRA.POLAR>
0

>  <SCORE.INTRA.POLAR.0>
0

>  <SCORE.INTRA.REPUL>
0

>  <SCORE.INTRA.REPUL.0>
0

>  <SCORE.INTRA.SOLV>
0.975313

>  <SCORE.INTRA.SOLV.lig_0>
-65.9238

>  <SCORE.INTRA.VDW>
-1.11889

>  <SCORE.INTRA.VDW.0>
-0.405582

>  <SCORE.INTRA.norm>
-0.0982468

>  <SCORE.RESTR>
0.330475

>  <SCORE.RESTR.CAVITY>
0.330475

>  <SCORE.RESTR.norm>
0.0127106

>  <SCORE.SYSTEM>
0

>  <SCORE.SYSTEM.CONST>
0

>  <SCORE.SYSTEM.DIHEDRAL>
0

>  <SCORE.SYSTEM.SOLV>
0

>  <SCORE.SYSTEM.norm>
0

>  <SCORE.heavy>
26

>  <SCORE.norm>
-0.781743

>  <RMSD>
2.665

$$$$
ligand
 OpenBabel11021811443D
libRbt.so/2013.1/901 2013/11/27
 26 28  0  0  0  0  0  0  0  0999 V2000
   16.1580   38.9823   64.1022 C   0  0  0  0  0  0  0  0  0  0  0  0
   23.1328   43.1159   65.6330 C   0  0  0  0  0  0  0  0  0  0  0  0
   26.8545   38.4956   66.3160 P   0  0  1  0  0  0  0  0  0  0  0  0
   29.3444   39.0483   66.7423 P   0  0  1  0  0  0  0  0  0  0  0  0
   20.4118   42.4338   65.6547 C   0  0  0  0  0  0  0  0  0  0  0  0
   17.9850   41.9762   65.1934 C   0  0  0  0  0  0  0  0  0  0  0  0
   19.2868   41.5191   65.2436 C   0  0  0  0  0  0  0  0  0  0  0  0
   19.5347   40.1881   64.9037 C   0  0  0  0  0  0  0  0  0  0  0  0
   20.8248   39.6802   64.9386 N   0  0  0  0  0  0  0  0  0  0  0  0
   18.5141   39.4120   64.5512 N   0  0  0  0  0  0  0  0  0  0  0  0
   17.2876   39.8908   64.5122 C   0  0  0  0  0  0  0  0  0  0  0  0
   17.0201   41.1430   64.8275 N   0  0  0  0  0  0  0  0  0  0  0  0
   26.4490   37.8253   65.0599 O   0  0  0  0  0  0  0  0  0  0  0  0
   29.1887   37.5502   67.0881 O   0  0  0  0  0  0  0  0  0  0  0  0
   22.2917   40.2275   68.1413 S   0  0  0  0  0  0  0  0  0  0  0  0
   20.8613   40.7635   67.3141 C   0  0  0  0  0  0  0  0  0  0  0  0
   27.4069   37.3995   67.3558 O   0  0  0  0  0  0  0  0  0  0  0  0
   30.6130   39.2480   65.7721 O   0  5  0  0  0  0  0  0  0  0  0  0
   21.3310   41.7120   66.5373 N   0  0  0  0  0  0  0  0  0  0  0  0
   28.0132   39.5689   66.0010 O   0  0  0  0  0  0  0  0  0  0  0  0
   29.5589   39.8555   68.0423 O   0  0  0  0  0  0  0  0  0  0  0  0
   22.6085   42.0248   66.5321 C   0  0  2  0  0  0  0  0  0  0  0  0
   23.4438   41.3479   67.3607 C   0  0  2  0  0  0  0  0  0  0  0  0
   24.9289   41.4969   67.5629 C   0  0  0  0  0  0  0  0  0  0  0  0
   25.6739   40.6200   66.5539 C   0  0  0  0  0  0  0  0  0  0  0  0
   25.5849   39.2517   66.9560 O   0  0  0  0  0  0  0  0  0  0  0  0
  1 11  1  0  0  0  0
  3 13  1  6  0  0  0
  3 17  1  0  0  0  0
  3 20  1  0  0  0  0
  3 26  1  0  0  0  0
  4 14  1  0  0  0  0
  4 18  1  6  0  0  0
  4 21  2  0  0  0  0
  4 20  1  0  0  0  0
  5 19  1  0  0  0  0
  5  7  1  0  0  0  0
  6  7  2  0  0  0  0
  6 12  1  0  0  0  0
  7  8  1  0  0  0  0
  8  9  1  0  0  0  0
  8 10  2  0  0  0  0
 10 11  1  0  0  0  0
 11 12  2  0  0  0  0
 14 17  1  0  0  0  0
 15 23  1  0  0  0  0
 15 16  1  0  0  0  0
 16 19  1  0  0  0  0
 19 22  1  0  0  0  0
 22  2  1  1  0  0  0
 22 23  1  0  0  0  0
 23 24  1  6  0  0  0
 24 25  1  0  0  0  0
 25 26  1  0  0  0  0
M  CHG  1  18  -1
M  END
>  <CHROM.1>
-30.75304445,138.46230555,92.26575399,-75.00941366,-155.08076710,-97.35402833
23.84406013,39.99442700,66.25169966,3.03715618,-0.20915777,0.42196600

>  <Name>
ligand

>  <RI>
0

>  <Rbt.Current_Directory>
/home/itssahil/PROJECTS/Mol_Feturizer/New_Systems/rnas/2HOL

>  <Rbt.Executable>
rbdock ($Id: //depot/dev/client3/rdock/2013.1/src/exe/rbdock.cxx#4 $)

>  <Rbt.Library>
libRbt.so (2013.1, Build901 2013/11/27)

>  <Rbt.Parameter_File>
/export/apps/rDock/src/rDock_2013.1_src/data/scripts/dock_solv.prm

>  <Rbt.Receptor>
prm/pocket_docking_2.prm

>  <SCORE>
-12.7795

>  <SCORE.INTER>
-18.0552

>  <SCORE.INTER.CONST>
1

>  <SCORE.INTER.POLAR>
0

>  <SCORE.INTER.ROT>
6

>  <SCORE.INTER.SOLV>
16.1028

>  <SCORE.INTER.VDW>
-25.0044

>  <SCORE.INTER.norm>
-0.694431

>  <SCORE.INTRA>
3.12408

>  <SCORE.INTRA.DIHEDRAL>
0.598024

>  <SCORE.INTRA.DIHEDRAL.0>
9.33621

>  <SCORE.INTRA.POLAR>
0

>  <SCORE.INTRA.POLAR.0>
0

>  <SCORE.INTRA.REPUL>
0

>  <SCORE.INTRA.REPUL.0>
0

>  <SCORE.INTRA.SOLV>
3.56243

>  <SCORE.INTRA.SOLV.lig_0>
-65.9238

>  <SCORE.INTRA.VDW>
1.04386

>  <SCORE.INTRA.VDW.0>
-0.405582

>  <SCORE.INTRA.norm>
0.120157

>  <SCORE.RESTR>
2.15159

>  <SCORE.RESTR.CAVITY>
2.15159

>  <SCORE.RESTR.norm>
0.0827534

>  <SCORE.SYSTEM>
0

>  <SCORE.SYSTEM.CONST>
0

>  <SCORE.SYSTEM.DIHEDRAL>
0

>  <SCORE.SYSTEM.SOLV>
0

>  <SCORE.SYSTEM.norm>
0

>  <SCORE.heavy>
26

>  <SCORE.norm>
-0.491521

>  <RMSD>
2.696

$$$$
ligand
 OpenBabel11021811443D
libRbt.so/2013.1/901 2013/11/27
 26 28  0  0  0  0  0  0  0  0999 V2000
   16.5338   39.8776   63.8527 C   0  0  0  0  0  0  0  0  0  0  0  0
   22.2013   39.0068   67.6465 C   0  0  0  0  0  0  0  0  0  0  0  0
   27.8081   38.8631   66.7762 P   0  0  1  0  0  0  0  0  0  0  0  0
   27.5350   39.2803   69.3135 P   0  0  1  0  0  0  0  0  0  0  0  0
   21.0734   41.4647   66.9009 C   0  0  0  0  0  0  0  0  0  0  0  0
   19.4723   39.7251   66.0515 C   0  0  0  0  0  0  0  0  0  0  0  0
   19.8717   41.0461   66.0936 C   0  0  0  0  0  0  0  0  0  0  0  0
   19.1338   41.9842   65.3697 C   0  0  0  0  0  0  0  0  0  0  0  0
   19.4941   43.3234   65.3789 N   0  0  0  0  0  0  0  0  0  0  0  0
   18.0829   41.5737   64.6658 N   0  0  0  0  0  0  0  0  0  0  0  0
   17.7340   40.3036   64.6574 C   0  0  0  0  0  0  0  0  0  0  0  0
   18.4100   39.3928   65.3301 N   0  0  0  0  0  0  0  0  0  0  0  0
   28.1597   39.9835   65.8748 O   0  0  0  0  0  0  0  0  0  0  0  0
   29.0580   39.1745   69.0738 O   0  0  0  0  0  0  0  0  0  0  0  0
   24.2143   40.8290   64.8235 S   0  0  0  0  0  0  0  0  0  0  0  0
   22.8321   41.7668   65.3004 C   0  0  0  0  0  0  0  0  0  0  0  0
   29.1395   38.3085   67.4887 O   0  0  0  0  0  0  0  0  0  0  0  0
   27.2176   40.5932   70.1888 O   0  5  0  0  0  0  0  0  0  0  0  0
   22.2943   41.0122   66.2306 N   0  0  0  0  0  0  0  0  0  0  0  0
   26.7749   39.3812   67.8977 O   0  0  0  0  0  0  0  0  0  0  0  0
   27.0464   38.0259   70.0721 O   0  0  0  0  0  0  0  0  0  0  0  0
   22.8302   39.8616   66.5752 C   0  0  2  0  0  0  0  0  0  0  0  0
   23.9589   39.4570   65.9390 C   0  0  2  0  0  0  0  0  0  0  0  0
   24.7720   38.2027   66.1246 C   0  0  0  0  0  0  0  0  0  0  0  0
   26.0142   38.2607   65.2326 C   0  0  0  0  0  0  0  0  0  0  0  0
   27.1231   37.6814   65.9232 O   0  0  0  0  0  0  0  0  0  0  0  0
  1 11  1  0  0  0  0
  3 13  1  6  0  0  0
  3 17  1  0  0  0  0
  3 20  1  0  0  0  0
  3 26  1  0  0  0  0
  4 14  1  0  0  0  0
  4 18  1  1  0  0  0
  4 21  2  0  0  0  0
  4 20  1  0  0  0  0
  5 19  1  0  0  0  0
  5  7  1  0  0  0  0
  6  7  2  0  0  0  0
  6 12  1  0  0  0  0
  7  8  1  0  0  0  0
  8  9  1  0  0  0  0
  8 10  2  0  0  0  0
 10 11  1  0  0  0  0
 11 12  2  0  0  0  0
 14 17  1  0  0  0  0
 15 23  1  0  0  0  0
 15 16  1  0  0  0  0
 16 19  1  0  0  0  0
 19 22  1  0  0  0  0
 22  2  1  6  0  0  0
 22 23  1  0  0  0  0
 23 24  1  1  0  0  0
 24 25  1  0  0  0  0
 25 26  1  0  0  0  0
M  CHG  1  18  -1
M  END
>  <CHROM.1>
86.09101071,72.77686096,3.77564268,142.45575971,-87.98606405,-55.35128836
24.00697873,39.85093731,66.62074493,-2.87156776,-0.25721377,1.41553102

>  <Name>
ligand

>  <RI>
0

>  <Rbt.Current_Directory>
/home/itssahil/PROJECTS/Mol_Feturizer/New_Systems/rnas/2HOL

>  <Rbt.Executable>
rbdock ($Id: //depot/dev/client3/rdock/2013.1/src/exe/rbdock.cxx#4 $)

>  <Rbt.Library>
libRbt.so (2013.1, Build901 2013/11/27)

>  <Rbt.Parameter_File>
/export/apps/rDock/src/rDock_2013.1_src/data/scripts/dock_solv.prm

>  <Rbt.Receptor>
prm/pocket_docking_3.prm

>  <SCORE>
-17.0951

>  <SCORE.INTER>
-17.2538

>  <SCORE.INTER.CONST>
1

>  <SCORE.INTER.POLAR>
0

>  <SCORE.INTER.ROT>
6

>  <SCORE.INTER.SOLV>
19.6824

>  <SCORE.INTER.VDW>
-25.6633

>  <SCORE.INTER.norm>
-0.663606

>  <SCORE.INTRA>
0.158693

>  <SCORE.INTRA.DIHEDRAL>
2.31612

>  <SCORE.INTRA.DIHEDRAL.0>
9.33621

>  <SCORE.INTRA.POLAR>
0

>  <SCORE.INTRA.POLAR.0>
0

>  <SCORE.INTRA.REPUL>
0

>  <SCORE.INTRA.REPUL.0>
0

>  <SCORE.INTRA.SOLV>
0.695495

>  <SCORE.INTRA.SOLV.lig_0>
-65.9238

>  <SCORE.INTRA.VDW>
-1.34712

>  <SCORE.INTRA.VDW.0>
-0.405582

>  <SCORE.INTRA.norm>
0.00610358

>  <SCORE.RESTR>
0

>  <SCORE.RESTR.CAVITY>
0

>  <SCORE.RESTR.norm>
0

>  <SCORE.SYSTEM>
0

>  <SCORE.SYSTEM.CONST>
0

>  <SCORE.SYSTEM.DIHEDRAL>
0

>  <SCORE.SYSTEM.SOLV>
0

>  <SCORE.SYSTEM.norm>
0

>  <SCORE.heavy>
26

>  <SCORE.norm>
-0.657503

>  <RMSD>
2.705

$$$$
ligand
 OpenBabel11021811443D
libRbt.so/2013.1/901 2013/11/27
 26 28  0  0  0  0  0  0  0  0999 V2000
   15.8171   39.4103   63.6656 C   0  0  0  0  0  0  0  0  0  0  0  0
   22.0636   40.3534   68.1981 C   0  0  0  0  0  0  0  0  0  0  0  0
   27.3958   38.4323   66.4049 P   0  0  1  0  0  0  0  0  0  0  0  0
   28.4061   40.5082   67.5695 P   0  0  1  0  0  0  0  0  0  0  0  0
   20.8347   41.0735   65.7813 C   0  0  0  0  0  0  0  0  0  0  0  0
   19.2248   39.2963   65.0321 C   0  0  0  0  0  0  0  0  0  0  0  0
   19.5062   40.6347   65.2212 C   0  0  0  0  0  0  0  0  0  0  0  0
   18.5287   41.5713   64.8806 C   0  0  0  0  0  0  0  0  0  0  0  0
   18.7624   42.9277   65.0509 N   0  0  0  0  0  0  0  0  0  0  0  0
   17.3713   41.1438   64.3845 N   0  0  0  0  0  0  0  0  0  0  0  0
   17.1428   39.8564   64.2250 C   0  0  0  0  0  0  0  0  0  0  0  0
   18.0452   38.9466   64.5366 N   0  0  0  0  0  0  0  0  0  0  0  0
   27.9474   37.9660   65.1126 O   0  0  0  0  0  0  0  0  0  0  0  0
   29.3592   39.3398   67.9081 O   0  0  0  0  0  0  0  0  0  0  0  0
   23.1133   38.0648   65.1977 S   0  0  0  0  0  0  0  0  0  0  0  0
   21.9904   39.2850   64.6806 C   0  0  0  0  0  0  0  0  0  0  0  0
   28.3171   37.8930   67.6083 O   0  0  0  0  0  0  0  0  0  0  0  0
   29.2613   41.7646   67.0399 O   0  5  0  0  0  0  0  0  0  0  0  0
   21.7582   39.9369   65.7964 N   0  0  0  0  0  0  0  0  0  0  0  0
   27.3710   40.0424   66.4274 O   0  0  0  0  0  0  0  0  0  0  0  0
   27.6238   40.9165   68.8379 O   0  0  0  0  0  0  0  0  0  0  0  0
   22.3395   39.5937   66.9251 C   0  0  2  0  0  0  0  0  0  0  0  0
   23.1884   38.5346   66.9198 C   0  0  2  0  0  0  0  0  0  0  0  0
   23.9772   37.9270   68.0501 C   0  0  0  0  0  0  0  0  0  0  0  0
   25.4591   38.2708   67.8836 C   0  0  0  0  0  0  0  0  0  0  0  0
   25.8967   37.8719   66.5831 O   0  0  0  0  0  0  0  0  0  0  0  0
  1 11  1  0  0  0  0
  3 13  1  6  0  0  0
  3 17  1  0  0  0  0
  3 20  1  0  0  0  0
  3 26  1  0  0  0  0
  4 14  1  0  0  0  0
  4 18  1  6  0  0  0
  4 21  2  0  0  0  0
  4 20  1  0  0  0  0
  5 19  1  0  0  0  0
  5  7  1  0  0  0  0
  6  7  2  0  0  0  0
  6 12  1  0  0  0  0
  7  8  1  0  0  0  0
  8  9  1  0  0  0  0
  8 10  2  0  0  0  0
 10 11  1  0  0  0  0
 11 12  2  0  0  0  0
 14 17  1  0  0  0  0
 15 23  1  0  0  0  0
 15 16  1  0  0  0  0
 16 19  1  0  0  0  0
 19 22  1  0  0  0  0
 22  2  1  1  0  0  0
 22 23  1  0  0  0  0
 23 24  1  6  0  0  0
 24 25  1  0  0  0  0
 25 26  1  0  0  0  0
M  CHG  1  18  -1
M  END
>  <CHROM.1>
55.37542478,11.33251776,72.39856581,-54.06946538,172.74516913,175.81619260
23.72982722,39.57600535,66.23206355,3.12673019,-0.26308392,0.26309542

>  <Name>
ligand

>  <RI>
0

>  <Rbt.Current_Directory>
/home/itssahil/PROJECTS/Mol_Feturizer/New_Systems/rnas/2HOL

>  <Rbt.Executable>
rbdock ($Id: //depot/dev/client3/rdock/2013.1/src/exe/rbdock.cxx#4 $)

>  <Rbt.Library>
libRbt.so (2013.1, Build901 2013/11/27)

>  <Rbt.Parameter_File>
/export/apps/rDock/src/rDock_2013.1_src/data/scripts/dock_solv.prm

>  <Rbt.Receptor>
prm/pocket_docking_8.prm

>  <SCORE>
-24.6309

>  <SCORE.INTER>
-21.606

>  <SCORE.INTER.CONST>
1

>  <SCORE.INTER.POLAR>
0

>  <SCORE.INTER.ROT>
6

>  <SCORE.INTER.SOLV>
18.2459

>  <SCORE.INTER.VDW>
-28.086

>  <SCORE.INTER.norm>
-0.831001

>  <SCORE.INTRA>
-3.0249

>  <SCORE.INTRA.DIHEDRAL>
-3.82847

>  <SCORE.INTRA.DIHEDRAL.0>
9.33621

>  <SCORE.INTRA.POLAR>
0

>  <SCORE.INTRA.POLAR.0>
0

>  <SCORE.INTRA.REPUL>
0

>  <SCORE.INTRA.REPUL.0>
0

>  <SCORE.INTRA.SOLV>
0.168984

>  <SCORE.INTRA.SOLV.lig_0>
-65.9238

>  <SCORE.INTRA.VDW>
-1.19516

>  <SCORE.INTRA.VDW.0>
-0.405582

>  <SCORE.INTRA.norm>
-0.116342

>  <SCORE.RESTR>
0

>  <SCORE.RESTR.CAVITY>
0

>  <SCORE.RESTR.norm>
0

>  <SCORE.SYSTEM>
0

>  <SCORE.SYSTEM.CONST>
0

>  <SCORE.SYSTEM.DIHEDRAL>
0

>  <SCORE.SYSTEM.SOLV>
0

>  <SCORE.SYSTEM.norm>
0

>  <SCORE.heavy>
26

>  <SCORE.norm>
-0.947344

>  <RMSD>
2.718

$$$$
ligand
 OpenBabel11021811443D
libRbt.so/2013.1/901 2013/11/27
 26 28  0  0  0  0  0  0  0  0999 V2000
   15.7529   39.5396   63.5625 C   0  0  0  0  0  0  0  0  0  0  0  0
   21.8549   39.8041   68.5371 C   0  0  0  0  0  0  0  0  0  0  0  0
   26.9301   40.0362   67.9823 P   0  0  1  0  0  0  0  0  0  0  0  0
   27.8454   42.1692   66.8425 P   0  0  1  0  0  0  0  0  0  0  0  0
   20.5340   40.9210   66.3286 C   0  0  0  0  0  0  0  0  0  0  0  0
   18.8847   39.2376   65.4579 C   0  0  0  0  0  0  0  0  0  0  0  0
   19.2682   40.5568   65.5962 C   0  0  0  0  0  0  0  0  0  0  0  0
   18.4535   41.5447   65.0405 C   0  0  0  0  0  0  0  0  0  0  0  0
   18.7947   42.8844   65.1514 N   0  0  0  0  0  0  0  0  0  0  0  0
   17.3475   41.1819   64.3976 N   0  0  0  0  0  0  0  0  0  0  0  0
   17.0167   39.9112   64.2933 C   0  0  0  0  0  0  0  0  0  0  0  0
   17.7646   38.9541   64.8066 N   0  0  0  0  0  0  0  0  0  0  0  0
   27.7191   39.3644   69.0396 O   0  0  0  0  0  0  0  0  0  0  0  0
   27.2491   42.6428   68.1872 O   0  0  0  0  0  0  0  0  0  0  0  0
   23.0352   38.3011   65.1180 S   0  0  0  0  0  0  0  0  0  0  0  0
   21.8105   39.5083   64.8723 C   0  0  0  0  0  0  0  0  0  0  0  0
   26.1360   41.2838   68.6153 O   0  0  0  0  0  0  0  0  0  0  0  0
   29.3246   42.7783   66.6651 O   0  5  0  0  0  0  0  0  0  0  0  0
   21.5451   39.8862   66.1014 N   0  0  0  0  0  0  0  0  0  0  0  0
   27.9205   40.5608   66.8259 O   0  0  0  0  0  0  0  0  0  0  0  0
   26.9467   42.6547   65.6831 O   0  0  0  0  0  0  0  0  0  0  0  0
   22.1700   39.3584   67.1314 C   0  0  2  0  0  0  0  0  0  0  0  0
   23.1003   38.3973   66.9009 C   0  0  2  0  0  0  0  0  0  0  0  0
   23.9529   37.6286   67.8761 C   0  0  0  0  0  0  0  0  0  0  0  0
   25.0509   38.5414   68.4269 C   0  0  0  0  0  0  0  0  0  0  0  0
   25.8775   38.9930   67.3523 O   0  0  0  0  0  0  0  0  0  0  0  0
  1 11  1  0  0  0  0
  3 13  1  1  0  0  0
  3 17  1  0  0  0  0
  3 20  1  0  0  0  0
  3 26  1  0  0  0  0
  4 14  1  0  0  0  0
  4 18  1  6  0  0  0
  4 21  2  0  0  0  0
  4 20  1  0  0  0  0
  5 19  1  0  0  0  0
  5  7  1  0  0  0  0
  6  7  2  0  0  0  0
  6 12  1  0  0  0  0
  7  8  1  0  0  0  0
  8  9  1  0  0  0  0
  8 10  2  0  0  0  0
 10 11  1  0  0  0  0
 11 12  2  0  0  0  0
 14 17  1  0  0  0  0
 15 23  1  0  0  0  0
 15 16  1  0  0  0  0
 16 19  1  0  0  0  0
 19 22  1  0  0  0  0
 22  2  1  1  0  0  0
 22 23  1  0  0  0  0
 23 24  1  6  0  0  0
 24 25  1  0  0  0  0
 25 26  1  0  0  0  0
M  CHG  1  18  -1
M  END
>  <CHROM.1>
51.00765664,34.11901433,106.30019463,-60.90058317,175.51633856,58.72693421
23.38615990,40.28327367,66.50072448,3.13965970,0.29564482,2.80211150

>  <Name>
ligand

>  <RI>
0

>  <Rbt.Current_Directory>
/home/itssahil/PROJECTS/Mol_Feturizer/New_Systems/rnas/2HOL

>  <Rbt.Executable>
rbdock ($Id: //depot/dev/client3/rdock/2013.1/src/exe/rbdock.cxx#4 $)

>  <Rbt.Library>
libRbt.so (2013.1, Build901 2013/11/27)

>  <Rbt.Parameter_File>
/export/apps/rDock/src/rDock_2013.1_src/data/scripts/dock_solv.prm

>  <Rbt.Receptor>
prm/pocket_docking_6.prm

>  <SCORE>
-23.1169

>  <SCORE.INTER>
-19.3109

>  <SCORE.INTER.CONST>
1

>  <SCORE.INTER.POLAR>
0

>  <SCORE.INTER.ROT>
6

>  <SCORE.INTER.SOLV>
16.0558

>  <SCORE.INTER.VDW>
-25.8259

>  <SCORE.INTER.norm>
-0.742726

>  <SCORE.INTRA>
-3.80605

>  <SCORE.INTRA.DIHEDRAL>
-4.60891

>  <SCORE.INTRA.DIHEDRAL.0>
9.33621

>  <SCORE.INTRA.POLAR>
0

>  <SCORE.INTRA.POLAR.0>
0

>  <SCORE.INTRA.REPUL>
0

>  <SCORE.INTRA.REPUL.0>
0

>  <SCORE.INTRA.SOLV>
-0.659403

>  <SCORE.INTRA.SOLV.lig_0>
-65.9238

>  <SCORE.INTRA.VDW>
-1.17189

>  <SCORE.INTRA.VDW.0>
-0.405582

>  <SCORE.INTRA.norm>
-0.146387

>  <SCORE.RESTR>
0

>  <SCORE.RESTR.CAVITY>
0

>  <SCORE.RESTR.norm>
0

>  <SCORE.SYSTEM>
0

>  <SCORE.SYSTEM.CONST>
0

>  <SCORE.SYSTEM.DIHEDRAL>
0

>  <SCORE.SYSTEM.SOLV>
0

>  <SCORE.SYSTEM.norm>
0

>  <SCORE.heavy>
26

>  <SCORE.norm>
-0.889113

>  <RMSD>
2.722

$$$$
ligand
 OpenBabel11021811443D
libRbt.so/2013.1/901 2013/11/27
 26 28  0  0  0  0  0  0  0  0999 V2000
   16.3494   39.8478   63.7173 C   0  0  0  0  0  0  0  0  0  0  0  0
   21.7393   39.5585   68.4386 C   0  0  0  0  0  0  0  0  0  0  0  0
   27.0252   38.9706   68.0678 P   0  0  1  0  0  0  0  0  0  0  0  0
   27.7522   38.0782   65.7523 P   0  0  1  0  0  0  0  0  0  0  0  0
   20.9924   41.5076   66.5644 C   0  0  0  0  0  0  0  0  0  0  0  0
   18.6811   41.9110   65.6662 C   0  0  0  0  0  0  0  0  0  0  0  0
   19.7641   41.0669   65.8106 C   0  0  0  0  0  0  0  0  0  0  0  0
   19.6925   39.7948   65.2403 C   0  0  0  0  0  0  0  0  0  0  0  0
   20.7533   38.9091   65.3575 N   0  0  0  0  0  0  0  0  0  0  0  0
   18.5890   39.4422   64.5874 N   0  0  0  0  0  0  0  0  0  0  0  0
   17.5806   40.2813   64.4695 C   0  0  0  0  0  0  0  0  0  0  0  0
   17.6166   41.4895   64.9967 N   0  0  0  0  0  0  0  0  0  0  0  0
   27.7628   38.5614   69.2844 O   0  0  0  0  0  0  0  0  0  0  0  0
   28.7243   39.2360   66.0726 O   0  0  0  0  0  0  0  0  0  0  0  0
   23.9327   39.4919   65.1942 S   0  0  0  0  0  0  0  0  0  0  0  0
   22.7301   40.7420   65.1014 C   0  0  0  0  0  0  0  0  0  0  0  0
   27.8184   40.1622   67.3339 O   0  0  0  0  0  0  0  0  0  0  0  0
   28.5893   36.7875   65.2794 O   0  5  0  0  0  0  0  0  0  0  0  0
   22.1069   40.6110   66.2496 N   0  0  0  0  0  0  0  0  0  0  0  0
   26.8998   37.7137   67.0688 O   0  0  0  0  0  0  0  0  0  0  0  0
   26.7927   38.5117   64.6213 O   0  0  0  0  0  0  0  0  0  0  0  0
   22.4642   39.6954   67.1235 C   0  0  2  0  0  0  0  0  0  0  0  0
   23.4962   38.8707   66.8114 C   0  0  2  0  0  0  0  0  0  0  0  0
   24.1061   37.7474   67.6083 C   0  0  0  0  0  0  0  0  0  0  0  0
   24.8044   38.3170   68.8452 C   0  0  0  0  0  0  0  0  0  0  0  0
   25.5525   39.4775   68.4770 O   0  0  0  0  0  0  0  0  0  0  0  0
  1 11  1  0  0  0  0
  3 13  1  1  0  0  0
  3 17  1  0  0  0  0
  3 20  1  0  0  0  0
  3 26  1  0  0  0  0
  4 14  1  0  0  0  0
  4 18  1  6  0  0  0
  4 21  2  0  0  0  0
  4 20  1  0  0  0  0
  5 19  1  0  0  0  0
  5  7  1  0  0  0  0
  6  7  2  0  0  0  0
  6 12  1  0  0  0  0
  7  8  1  0  0  0  0
  8  9  1  0  0  0  0
  8 10  2  0  0  0  0
 10 11  1  0  0  0  0
 11 12  2  0  0  0  0
 14 17  1  0  0  0  0
 15 23  1  0  0  0  0
 15 16  1  0  0  0  0
 16 19  1  0  0  0  0
 19 22  1  0  0  0  0
 22  2  1  6  0  0  0
 22 23  1  0  0  0  0
 23 24  1  1  0  0  0
 24 25  1  0  0  0  0
 25 26  1  0  0  0  0
M  CHG  1  18  -1
M  END
>  <CHROM.1>
77.05734478,-163.89996667,112.45342948,-43.79489681,-89.91579820,-72.47454164
23.74900092,39.35738733,66.33657992,-2.99077996,-0.25712701,1.36647790

>  <Name>
ligand

>  <RI>
0

>  <Rbt.Current_Directory>
/home/itssahil/PROJECTS/Mol_Feturizer/New_Systems/rnas/2HOL

>  <Rbt.Executable>
rbdock ($Id: //depot/dev/client3/rdock/2013.1/src/exe/rbdock.cxx#4 $)

>  <Rbt.Library>
libRbt.so (2013.1, Build901 2013/11/27)

>  <Rbt.Parameter_File>
/export/apps/rDock/src/rDock_2013.1_src/data/scripts/dock_solv.prm

>  <Rbt.Receptor>
prm/pocket_docking_3.prm

>  <SCORE>
-12.5315

>  <SCORE.INTER>
-17.3771

>  <SCORE.INTER.CONST>
1

>  <SCORE.INTER.POLAR>
0

>  <SCORE.INTER.ROT>
6

>  <SCORE.INTER.SOLV>
17.3975

>  <SCORE.INTER.VDW>
-24.9839

>  <SCORE.INTER.norm>
-0.66835

>  <SCORE.INTRA>
4.51517

>  <SCORE.INTRA.DIHEDRAL>
0.0157956

>  <SCORE.INTRA.DIHEDRAL.0>
9.33621

>  <SCORE.INTRA.POLAR>
0

>  <SCORE.INTRA.POLAR.0>
0

>  <SCORE.INTRA.REPUL>
0

>  <SCORE.INTRA.REPUL.0>
0

>  <SCORE.INTRA.SOLV>
7.54258

>  <SCORE.INTRA.SOLV.lig_0>
-65.9238

>  <SCORE.INTRA.VDW>
0.735984

>  <SCORE.INTRA.VDW.0>
-0.405582

>  <SCORE.INTRA.norm>
0.17366

>  <SCORE.RESTR>
0.330383

>  <SCORE.RESTR.CAVITY>
0.330383

>  <SCORE.RESTR.norm>
0.012707

>  <SCORE.SYSTEM>
0

>  <SCORE.SYSTEM.CONST>
0

>  <SCORE.SYSTEM.DIHEDRAL>
0

>  <SCORE.SYSTEM.SOLV>
0

>  <SCORE.SYSTEM.norm>
0

>  <SCORE.heavy>
26

>  <SCORE.norm>
-0.481982

>  <RMSD>
2.730

$$$$
ligand
 OpenBabel11021811443D
libRbt.so/2013.1/901 2013/11/27
 26 28  0  0  0  0  0  0  0  0999 V2000
   16.5451   40.2070   63.8156 C   0  0  0  0  0  0  0  0  0  0  0  0
   23.9746   41.3314   65.6441 C   0  0  0  0  0  0  0  0  0  0  0  0
   27.2666   39.7022   68.5437 P   0  0  1  0  0  0  0  0  0  0  0  0
   26.8957   42.0990   69.4405 P   0  0  1  0  0  0  0  0  0  0  0  0
   21.4139   40.8692   66.6922 C   0  0  0  0  0  0  0  0  0  0  0  0
   19.5025   39.4648   65.8638 C   0  0  0  0  0  0  0  0  0  0  0  0
   20.1252   40.6953   65.9304 C   0  0  0  0  0  0  0  0  0  0  0  0
   19.5306   41.7746   65.2744 C   0  0  0  0  0  0  0  0  0  0  0  0
   20.1166   43.0311   65.3105 N   0  0  0  0  0  0  0  0  0  0  0  0
   18.3962   41.5788   64.6088 N   0  0  0  0  0  0  0  0  0  0  0  0
   17.8334   40.3884   64.5751 C   0  0  0  0  0  0  0  0  0  0  0  0
   18.3696   39.3487   65.1839 N   0  0  0  0  0  0  0  0  0  0  0  0
   28.6301   39.1267   68.5096 O   0  0  0  0  0  0  0  0  0  0  0  0
   27.0128   41.2026   70.6937 O   0  0  0  0  0  0  0  0  0  0  0  0
   23.2193   37.5344   66.2394 S   0  0  0  0  0  0  0  0  0  0  0  0
   21.8600   38.5140   66.6978 C   0  0  0  0  0  0  0  0  0  0  0  0
   26.6600   39.5594   70.0268 O   0  0  0  0  0  0  0  0  0  0  0  0
   27.8582   43.3789   69.6019 O   0  5  0  0  0  0  0  0  0  0  0  0
   22.2919   39.7256   66.4348 N   0  0  0  0  0  0  0  0  0  0  0  0
   27.3316   41.2592   68.1376 O   0  0  0  0  0  0  0  0  0  0  0  0
   25.4332   42.5720   69.2827 O   0  0  0  0  0  0  0  0  0  0  0  0
   23.4935   39.9337   65.9422 C   0  0  2  0  0  0  0  0  0  0  0  0
   24.2943   38.8615   65.7150 C   0  0  2  0  0  0  0  0  0  0  0  0
   25.6971   38.8058   65.1692 C   0  0  0  0  0  0  0  0  0  0  0  0
   26.6702   39.3889   66.1964 C   0  0  0  0  0  0  0  0  0  0  0  0
   26.3251   38.9162   67.5001 O   0  0  0  0  0  0  0  0  0  0  0  0
  1 11  1  0  0  0  0
  3 13  1  6  0  0  0
  3 17  1  0  0  0  0
  3 20  1  0  0  0  0
  3 26  1  0  0  0  0
  4 14  1  0  0  0  0
  4 18  1  1  0  0  0
  4 21  2  0  0  0  0
  4 20  1  0  0  0  0
  5 19  1  0  0  0  0
  5  7  1  0  0  0  0
  6  7  2  0  0  0  0
  6 12  1  0  0  0  0
  7  8  1  0  0  0  0
  8  9  1  0  0  0  0
  8 10  2  0  0  0  0
 10 11  1  0  0  0  0
 11 12  2  0  0  0  0
 14 17  1  0  0  0  0
 15 23  1  0  0  0  0
 15 16  1  0  0  0  0
 16 19  1  0  0  0  0
 19 22  1  0  0  0  0
 22  2  1  1  0  0  0
 22 23  1  0  0  0  0
 23 24  1  6  0  0  0
 24 25  1  0  0  0  0
 25 26  1  0  0  0  0
M  CHG  1  18  -1
M  END
>  <CHROM.1>
-56.89467337,41.60819164,-110.56910128,42.54189837,-173.26585770,-76.46650160
23.82340791,40.31121126,67.06431342,2.92851527,0.39594470,-2.72800505

>  <Name>
ligand

>  <RI>
0

>  <Rbt.Current_Directory>
/home/itssahil/PROJECTS/Mol_Feturizer/New_Systems/rnas/2HOL

>  <Rbt.Executable>
rbdock ($Id: //depot/dev/client3/rdock/2013.1/src/exe/rbdock.cxx#4 $)

>  <Rbt.Library>
libRbt.so (2013.1, Build901 2013/11/27)

>  <Rbt.Parameter_File>
/export/apps/rDock/src/rDock_2013.1_src/data/scripts/dock_solv.prm

>  <Rbt.Receptor>
prm/pocket_docking_6.prm

>  <SCORE>
-20.8823

>  <SCORE.INTER>
-19.7518

>  <SCORE.INTER.CONST>
1

>  <SCORE.INTER.POLAR>
0

>  <SCORE.INTER.ROT>
6

>  <SCORE.INTER.SOLV>
19.5758

>  <SCORE.INTER.VDW>
-27.2932

>  <SCORE.INTER.norm>
-0.759686

>  <SCORE.INTRA>
-1.38861

>  <SCORE.INTRA.DIHEDRAL>
-3.01645

>  <SCORE.INTRA.DIHEDRAL.0>
9.33621

>  <SCORE.INTRA.POLAR>
0

>  <SCORE.INTRA.POLAR.0>
0

>  <SCORE.INTRA.REPUL>
0

>  <SCORE.INTRA.REPUL.0>
0

>  <SCORE.INTRA.SOLV>
0.887934

>  <SCORE.INTRA.SOLV.lig_0>
-65.9238

>  <SCORE.INTRA.VDW>
-0.324351

>  <SCORE.INTRA.VDW.0>
-0.405582

>  <SCORE.INTRA.norm>
-0.053408

>  <SCORE.RESTR>
0.258176

>  <SCORE.RESTR.CAVITY>
0.258176

>  <SCORE.RESTR.norm>
0.00992984

>  <SCORE.SYSTEM>
0

>  <SCORE.SYSTEM.CONST>
0

>  <SCORE.SYSTEM.DIHEDRAL>
0

>  <SCORE.SYSTEM.SOLV>
0

>  <SCORE.SYSTEM.norm>
0

>  <SCORE.heavy>
26

>  <SCORE.norm>
-0.803164

>  <RMSD>
2.734

$$$$
ligand
 OpenBabel11021811443D
libRbt.so/2013.1/901 2013/11/27
 26 28  0  0  0  0  0  0  0  0999 V2000
   15.9371   39.6179   63.6015 C   0  0  0  0  0  0  0  0  0  0  0  0
   22.8059   40.4476   64.9318 C   0  0  0  0  0  0  0  0  0  0  0  0
   27.0550   39.9501   67.4998 P   0  0  1  0  0  0  0  0  0  0  0  0
   27.2822   41.8878   69.1969 P   0  0  1  0  0  0  0  0  0  0  0  0
   20.5918   41.1037   66.5246 C   0  0  0  0  0  0  0  0  0  0  0  0
   18.9372   39.3980   65.7094 C   0  0  0  0  0  0  0  0  0  0  0  0
   19.3596   40.7119   65.7504 C   0  0  0  0  0  0  0  0  0  0  0  0
   18.6161   41.6682   65.0568 C   0  0  0  0  0  0  0  0  0  0  0  0
   18.9987   43.0013   65.0661 N   0  0  0  0  0  0  0  0  0  0  0  0
   17.5379   41.2812   64.3815 N   0  0  0  0  0  0  0  0  0  0  0  0
   17.1678   40.0171   64.3731 C   0  0  0  0  0  0  0  0  0  0  0  0
   17.8484   39.0895   65.0177 N   0  0  0  0  0  0  0  0  0  0  0  0
   28.2659   39.3391   66.9065 O   0  0  0  0  0  0  0  0  0  0  0  0
   27.5496   40.5978   70.0046 O   0  0  0  0  0  0  0  0  0  0  0  0
   22.1998   37.9017   67.8461 S   0  0  0  0  0  0  0  0  0  0  0  0
   21.0082   39.1654   67.8719 C   0  0  0  0  0  0  0  0  0  0  0  0
   26.7992   39.3266   68.9605 O   0  0  0  0  0  0  0  0  0  0  0  0
   28.4425   42.9619   69.4978 O   0  5  0  0  0  0  0  0  0  0  0  0
   21.3678   39.9045   66.8480 N   0  0  0  0  0  0  0  0  0  0  0  0
   27.2640   41.5421   67.6244 O   0  0  0  0  0  0  0  0  0  0  0  0
   25.9152   42.4780   69.6102 O   0  0  0  0  0  0  0  0  0  0  0  0
   22.4064   39.5891   66.1054 C   0  0  2  0  0  0  0  0  0  0  0  0
   23.1159   38.4766   66.4241 C   0  0  2  0  0  0  0  0  0  0  0  0
   24.3338   37.8884   65.7612 C   0  0  0  0  0  0  0  0  0  0  0  0
   25.5801   38.2355   66.5787 C   0  0  0  0  0  0  0  0  0  0  0  0
   25.7844   39.6497   66.5572 O   0  0  0  0  0  0  0  0  0  0  0  0
  1 11  1  0  0  0  0
  3 13  1  6  0  0  0
  3 17  1  0  0  0  0
  3 20  1  0  0  0  0
  3 26  1  0  0  0  0
  4 14  1  0  0  0  0
  4 18  1  1  0  0  0
  4 21  2  0  0  0  0
  4 20  1  0  0  0  0
  5 19  1  0  0  0  0
  5  7  1  0  0  0  0
  6  7  2  0  0  0  0
  6 12  1  0  0  0  0
  7  8  1  0  0  0  0
  8  9  1  0  0  0  0
  8 10  2  0  0  0  0
 10 11  1  0  0  0  0
 11 12  2  0  0  0  0
 14 17  1  0  0  0  0
 15 23  1  0  0  0  0
 15 16  1  0  0  0  0
 16 19  1  0  0  0  0
 19 22  1  0  0  0  0
 22  2  1  1  0  0  0
 22 23  1  0  0  0  0
 23 24  1  6  0  0  0
 24 25  1  0  0  0  0
 25 26  1  0  0  0  0
M  CHG  1  18  -1
M  END
>  <CHROM.1>
-80.72672878,14.99806678,-78.16211261,-64.99275665,176.85893348,64.97440827
23.32626041,40.19191213,66.93982334,-3.00413298,-0.35042790,0.21529083

>  <Name>
ligand

>  <RI>
0

>  <Rbt.Current_Directory>
/home/itssahil/PROJECTS/Mol_Feturizer/New_Systems/rnas/2HOL

>  <Rbt.Executable>
rbdock ($Id: //depot/dev/client3/rdock/2013.1/src/exe/rbdock.cxx#4 $)

>  <Rbt.Library>
libRbt.so (2013.1, Build901 2013/11/27)

>  <Rbt.Parameter_File>
/export/apps/rDock/src/rDock_2013.1_src/data/scripts/dock_solv.prm

>  <Rbt.Receptor>
prm/pocket_docking_4.prm

>  <SCORE>
-22.1946

>  <SCORE.INTER>
-18.8888

>  <SCORE.INTER.CONST>
1

>  <SCORE.INTER.POLAR>
0

>  <SCORE.INTER.ROT>
6

>  <SCORE.INTER.SOLV>
22.8814

>  <SCORE.INTER.VDW>
-27.8197

>  <SCORE.INTER.norm>
-0.726492

>  <SCORE.INTRA>
-3.87145

>  <SCORE.INTRA.DIHEDRAL>
-4.1159

>  <SCORE.INTRA.DIHEDRAL.0>
9.33621

>  <SCORE.INTRA.POLAR>
0

>  <SCORE.INTRA.POLAR.0>
0

>  <SCORE.INTRA.REPUL>
0

>  <SCORE.INTRA.REPUL.0>
0

>  <SCORE.INTRA.SOLV>
-0.365594

>  <SCORE.INTRA.SOLV.lig_0>
-65.9238

>  <SCORE.INTRA.VDW>
-1.6307

>  <SCORE.INTRA.VDW.0>
-0.405582

>  <SCORE.INTRA.norm>
-0.148902

>  <SCORE.RESTR>
0.565663

>  <SCORE.RESTR.CAVITY>
0.565663

>  <SCORE.RESTR.norm>
0.0217563

>  <SCORE.SYSTEM>
0

>  <SCORE.SYSTEM.CONST>
0

>  <SCORE.SYSTEM.DIHEDRAL>
0

>  <SCORE.SYSTEM.SOLV>
0

>  <SCORE.SYSTEM.norm>
0

>  <SCORE.heavy>
26

>  <SCORE.norm>
-0.853638

>  <RMSD>
2.739

$$$$
ligand
 OpenBabel11021811443D
libRbt.so/2013.1/901 2013/11/27
 26 28  0  0  0  0  0  0  0  0999 V2000
   16.0578   39.6787   63.7190 C   0  0  0  0  0  0  0  0  0  0  0  0
   22.9298   42.4923   65.8818 C   0  0  0  0  0  0  0  0  0  0  0  0
   27.3614   40.9941   67.8970 P   0  0  1  0  0  0  0  0  0  0  0  0
   27.5807   39.8819   70.2211 P   0  0  1  0  0  0  0  0  0  0  0  0
   20.7239   40.9722   66.7144 C   0  0  0  0  0  0  0  0  0  0  0  0
   18.9247   39.3733   65.9950 C   0  0  0  0  0  0  0  0  0  0  0  0
   19.4889   40.6312   65.9209 C   0  0  0  0  0  0  0  0  0  0  0  0
   18.8861   41.5795   65.0926 C   0  0  0  0  0  0  0  0  0  0  0  0
   19.4143   42.8571   64.9830 N   0  0  0  0  0  0  0  0  0  0  0  0
   17.8004   41.2377   64.4051 N   0  0  0  0  0  0  0  0  0  0  0  0
   17.2923   40.0269   64.5091 C   0  0  0  0  0  0  0  0  0  0  0  0
   17.8378   39.1084   65.2823 N   0  0  0  0  0  0  0  0  0  0  0  0
   28.2673   42.1017   67.5173 O   0  0  0  0  0  0  0  0  0  0  0  0
   28.6910   39.2477   69.3532 O   0  0  0  0  0  0  0  0  0  0  0  0
   23.4063   38.6475   65.3051 S   0  0  0  0  0  0  0  0  0  0  0  0
   21.8580   38.9778   66.0201 C   0  0  0  0  0  0  0  0  0  0  0  0
   28.1100   39.5877   67.6750 O   0  0  0  0  0  0  0  0  0  0  0  0
   28.2044   40.3673   71.6231 O   0  5  0  0  0  0  0  0  0  0  0  0
   21.8812   40.2854   66.1366 N   0  0  0  0  0  0  0  0  0  0  0  0
   26.9503   41.1451   69.4468 O   0  0  0  0  0  0  0  0  0  0  0  0
   26.4749   38.8354   70.4848 O   0  0  0  0  0  0  0  0  0  0  0  0
   22.9189   40.9909   65.7425 C   0  0  2  0  0  0  0  0  0  0  0  0
   23.9838   40.3358   65.2141 C   0  0  2  0  0  0  0  0  0  0  0  0
   25.2876   40.8806   64.6926 C   0  0  0  0  0  0  0  0  0  0  0  0
   26.4072   40.5716   65.6892 C   0  0  0  0  0  0  0  0  0  0  0  0
   26.0357   41.0472   66.9845 O   0  0  0  0  0  0  0  0  0  0  0  0
  1 11  1  0  0  0  0
  3 13  1  6  0  0  0
  3 17  1  0  0  0  0
  3 20  1  0  0  0  0
  3 26  1  0  0  0  0
  4 14  1  0  0  0  0
  4 18  1  1  0  0  0
  4 21  2  0  0  0  0
  4 20  1  0  0  0  0
  5 19  1  0  0  0  0
  5  7  1  0  0  0  0
  6  7  2  0  0  0  0
  6 12  1  0  0  0  0
  7  8  1  0  0  0  0
  8  9  1  0  0  0  0
  8 10  2  0  0  0  0
 10 11  1  0  0  0  0
 11 12  2  0  0  0  0
 14 17  1  0  0  0  0
 15 23  1  0  0  0  0
 15 16  1  0  0  0  0
 16 19  1  0  0  0  0
 19 22  1  0  0  0  0
 22  2  1  1  0  0  0
 22 23  1  0  0  0  0
 23 24  1  6  0  0  0
 24 25  1  0  0  0  0
 25 26  1  0  0  0  0
M  CHG  1  18  -1
M  END
>  <CHROM.1>
-56.88838031,71.67874326,-73.85819117,-53.38381470,-167.62796707,74.64594917
23.75852299,40.38159123,66.88222018,2.74921611,-0.18702851,-1.12038002

>  <Name>
ligand

>  <RI>
0

>  <Rbt.Current_Directory>
/home/itssahil/PROJECTS/Mol_Feturizer/New_Systems/rnas/2HOL

>  <Rbt.Executable>
rbdock ($Id: //depot/dev/client3/rdock/2013.1/src/exe/rbdock.cxx#4 $)

>  <Rbt.Library>
libRbt.so (2013.1, Build901 2013/11/27)

>  <Rbt.Parameter_File>
/export/apps/rDock/src/rDock_2013.1_src/data/scripts/dock_solv.prm

>  <Rbt.Receptor>
prm/pocket_docking_4.prm

>  <SCORE>
-19.8622

>  <SCORE.INTER>
-17.3266

>  <SCORE.INTER.CONST>
1

>  <SCORE.INTER.POLAR>
0

>  <SCORE.INTER.ROT>
6

>  <SCORE.INTER.SOLV>
20.6464

>  <SCORE.INTER.VDW>
-26.0332

>  <SCORE.INTER.norm>
-0.666408

>  <SCORE.INTRA>
-2.53555

>  <SCORE.INTRA.DIHEDRAL>
-3.01543

>  <SCORE.INTRA.DIHEDRAL.0>
9.33621

>  <SCORE.INTRA.POLAR>
0

>  <SCORE.INTRA.POLAR.0>
0

>  <SCORE.INTRA.REPUL>
0

>  <SCORE.INTRA.REPUL.0>
0

>  <SCORE.INTRA.SOLV>
0.896179

>  <SCORE.INTRA.SOLV.lig_0>
-65.9238

>  <SCORE.INTRA.VDW>
-1.47593

>  <SCORE.INTRA.VDW.0>
-0.405582

>  <SCORE.INTRA.norm>
-0.0975213

>  <SCORE.RESTR>
0

>  <SCORE.RESTR.CAVITY>
0

>  <SCORE.RESTR.norm>
0

>  <SCORE.SYSTEM>
0

>  <SCORE.SYSTEM.CONST>
0

>  <SCORE.SYSTEM.DIHEDRAL>
0

>  <SCORE.SYSTEM.SOLV>
0

>  <SCORE.SYSTEM.norm>
0

>  <SCORE.heavy>
26

>  <SCORE.norm>
-0.763929

>  <RMSD>
2.740

$$$$
ligand
 OpenBabel11021811443D
libRbt.so/2013.1/901 2013/11/27
 26 28  0  0  0  0  0  0  0  0999 V2000
   16.3586   39.5657   63.9873 C   0  0  0  0  0  0  0  0  0  0  0  0
   23.7352   40.6542   65.2152 C   0  0  0  0  0  0  0  0  0  0  0  0
   27.2314   39.9398   69.5826 P   0  0  1  0  0  0  0  0  0  0  0  0
   28.2759   39.4739   71.9018 P   0  0  1  0  0  0  0  0  0  0  0  0
   21.2423   41.5378   66.1503 C   0  0  0  0  0  0  0  0  0  0  0  0
   19.7223   39.6604   65.4599 C   0  0  0  0  0  0  0  0  0  0  0  0
   19.9492   41.0172   65.5775 C   0  0  0  0  0  0  0  0  0  0  0  0
   18.9501   41.8948   65.1526 C   0  0  0  0  0  0  0  0  0  0  0  0
   19.1293   43.2667   65.2489 N   0  0  0  0  0  0  0  0  0  0  0  0
   17.8255   41.3957   64.6483 N   0  0  0  0  0  0  0  0  0  0  0  0
   17.6486   40.0935   64.5587 C   0  0  0  0  0  0  0  0  0  0  0  0
   18.5726   39.2381   64.9509 N   0  0  0  0  0  0  0  0  0  0  0  0
   27.3888   41.2704   68.9530 O   0  0  0  0  0  0  0  0  0  0  0  0
   29.4360   39.3339   70.8906 O   0  0  0  0  0  0  0  0  0  0  0  0
   22.5237   38.7378   68.4093 S   0  0  0  0  0  0  0  0  0  0  0  0
   21.3596   39.9337   67.9277 C   0  0  0  0  0  0  0  0  0  0  0  0
   28.5590   39.0665   69.3322 O   0  0  0  0  0  0  0  0  0  0  0  0
   28.7332   40.4239   73.1179 O   0  5  0  0  0  0  0  0  0  0  0  0
   21.9277   40.4607   66.8678 N   0  0  0  0  0  0  0  0  0  0  0  0
   26.9978   40.1202   71.1658 O   0  0  0  0  0  0  0  0  0  0  0  0
   27.9027   38.0788   72.4513 O   0  0  0  0  0  0  0  0  0  0  0  0
   23.0962   40.0397   66.4350 C   0  0  2  0  0  0  0  0  0  0  0  0
   23.7181   39.0439   67.1163 C   0  0  2  0  0  0  0  0  0  0  0  0
   25.0439   38.3792   66.8532 C   0  0  0  0  0  0  0  0  0  0  0  0
   26.1615   39.1826   67.5222 C   0  0  0  0  0  0  0  0  0  0  0  0
   25.9629   39.1864   68.9373 O   0  0  0  0  0  0  0  0  0  0  0  0
  1 11  1  0  0  0  0
  3 13  1  6  0  0  0
  3 17  1  0  0  0  0
  3 20  1  0  0  0  0
  3 26  1  0  0  0  0
  4 14  1  0  0  0  0
  4 18  1  1  0  0  0
  4 21  2  0  0  0  0
  4 20  1  0  0  0  0
  5 19  1  0  0  0  0
  5  7  1  0  0  0  0
  6  7  2  0  0  0  0
  6 12  1  0  0  0  0
  7  8  1  0  0  0  0
  8  9  1  0  0  0  0
  8 10  2  0  0  0  0
 10 11  1  0  0  0  0
 11 12  2  0  0  0  0
 14 17  1  0  0  0  0
 15 23  1  0  0  0  0
 15 16  1  0  0  0  0
 16 19  1  0  0  0  0
 19 22  1  0  0  0  0
 22  2  1  1  0  0  0
 22 23  1  0  0  0  0
 23 24  1  6  0  0  0
 24 25  1  0  0  0  0
 25 26  1  0  0  0  0
M  CHG  1  18  -1
M  END
>  <CHROM.1>
-63.58514352,-16.66125296,-93.77648801,62.67324545,175.43856060,54.04613300
23.90821557,39.93553474,68.05776926,2.68904331,-0.37242281,-0.74740612

>  <Name>
ligand

>  <RI>
0

>  <Rbt.Current_Directory>
/home/itssahil/PROJECTS/Mol_Feturizer/New_Systems/rnas/2HOL

>  <Rbt.Executable>
rbdock ($Id: //depot/dev/client3/rdock/2013.1/src/exe/rbdock.cxx#4 $)

>  <Rbt.Library>
libRbt.so (2013.1, Build901 2013/11/27)

>  <Rbt.Parameter_File>
/export/apps/rDock/src/rDock_2013.1_src/data/scripts/dock_solv.prm

>  <Rbt.Receptor>
prm/pocket_docking_7.prm

>  <SCORE>
-22.6152

>  <SCORE.INTER>
-18.8717

>  <SCORE.INTER.CONST>
1

>  <SCORE.INTER.POLAR>
0

>  <SCORE.INTER.ROT>
6

>  <SCORE.INTER.SOLV>
23.2229

>  <SCORE.INTER.VDW>
-27.9221

>  <SCORE.INTER.norm>
-0.725834

>  <SCORE.INTRA>
-3.74356

>  <SCORE.INTRA.DIHEDRAL>
-4.33589

>  <SCORE.INTRA.DIHEDRAL.0>
9.33621

>  <SCORE.INTRA.POLAR>
0

>  <SCORE.INTRA.POLAR.0>
0

>  <SCORE.INTRA.REPUL>
0

>  <SCORE.INTRA.REPUL.0>
0

>  <SCORE.INTRA.SOLV>
-0.662922

>  <SCORE.INTRA.SOLV.lig_0>
-65.9238

>  <SCORE.INTRA.VDW>
-1.24415

>  <SCORE.INTRA.VDW.0>
-0.405582

>  <SCORE.INTRA.norm>
-0.143983

>  <SCORE.RESTR>
0

>  <SCORE.RESTR.CAVITY>
0

>  <SCORE.RESTR.norm>
0

>  <SCORE.SYSTEM>
0

>  <SCORE.SYSTEM.CONST>
0

>  <SCORE.SYSTEM.DIHEDRAL>
0

>  <SCORE.SYSTEM.SOLV>
0

>  <SCORE.SYSTEM.norm>
0

>  <SCORE.heavy>
26

>  <SCORE.norm>
-0.869817

>  <RMSD>
2.758

$$$$
ligand
 OpenBabel11021811443D
libRbt.so/2013.1/901 2013/11/27
 26 28  0  0  0  0  0  0  0  0999 V2000
   15.8600   39.5514   63.5643 C   0  0  0  0  0  0  0  0  0  0  0  0
   22.8963   40.4496   65.0312 C   0  0  0  0  0  0  0  0  0  0  0  0
   26.8086   39.4286   68.4043 P   0  0  1  0  0  0  0  0  0  0  0  0
   27.0028   41.9675   68.8552 P   0  0  1  0  0  0  0  0  0  0  0  0
   20.5440   41.0174   66.4503 C   0  0  0  0  0  0  0  0  0  0  0  0
   18.9261   39.3077   65.5722 C   0  0  0  0  0  0  0  0  0  0  0  0
   19.3040   40.6308   65.6860 C   0  0  0  0  0  0  0  0  0  0  0  0
   18.5080   41.6015   65.0755 C   0  0  0  0  0  0  0  0  0  0  0  0
   18.8445   42.9443   65.1601 N   0  0  0  0  0  0  0  0  0  0  0  0
   17.4245   41.2191   64.4061 N   0  0  0  0  0  0  0  0  0  0  0  0
   17.0982   39.9454   64.3265 C   0  0  0  0  0  0  0  0  0  0  0  0
   17.8288   39.0042   64.8917 N   0  0  0  0  0  0  0  0  0  0  0  0
   28.0187   38.6387   68.0826 O   0  0  0  0  0  0  0  0  0  0  0  0
   27.4275   41.2803   70.1726 O   0  0  0  0  0  0  0  0  0  0  0  0
   22.0717   37.7768   67.7732 S   0  0  0  0  0  0  0  0  0  0  0  0
   20.8664   39.0274   67.7472 C   0  0  0  0  0  0  0  0  0  0  0  0
   26.7070   39.6313   69.9969 O   0  0  0  0  0  0  0  0  0  0  0  0
   28.0935   43.0803   68.4523 O   0  5  0  0  0  0  0  0  0  0  0  0
   21.3041   39.8126   66.7903 N   0  0  0  0  0  0  0  0  0  0  0  0
   26.9002   40.8665   67.6847 O   0  0  0  0  0  0  0  0  0  0  0  0
   25.6265   42.6427   69.0491 O   0  0  0  0  0  0  0  0  0  0  0  0
   22.4073   39.5385   66.1287 C   0  0  2  0  0  0  0  0  0  0  0  0
   23.1005   38.4199   66.4617 C   0  0  2  0  0  0  0  0  0  0  0  0
   24.3788   37.8715   65.8838 C   0  0  0  0  0  0  0  0  0  0  0  0
   25.5709   38.6464   66.4500 C   0  0  0  0  0  0  0  0  0  0  0  0
   25.5019   38.6491   67.8773 O   0  0  0  0  0  0  0  0  0  0  0  0
  1 11  1  0  0  0  0
  3 13  1  6  0  0  0
  3 17  1  0  0  0  0
  3 20  1  0  0  0  0
  3 26  1  0  0  0  0
  4 14  1  0  0  0  0
  4 18  1  6  0  0  0
  4 21  2  0  0  0  0
  4 20  1  0  0  0  0
  5 19  1  0  0  0  0
  5  7  1  0  0  0  0
  6  7  2  0  0  0  0
  6 12  1  0  0  0  0
  7  8  1  0  0  0  0
  8  9  1  0  0  0  0
  8 10  2  0  0  0  0
 10 11  1  0  0  0  0
 11 12  2  0  0  0  0
 14 17  1  0  0  0  0
 15 23  1  0  0  0  0
 15 16  1  0  0  0  0
 16 19  1  0  0  0  0
 19 22  1  0  0  0  0
 22  2  1  1  0  0  0
 22 23  1  0  0  0  0
 23 24  1  6  0  0  0
 24 25  1  0  0  0  0
 25 26  1  0  0  0  0
M  CHG  1  18  -1
M  END
>  <CHROM.1>
-74.42053210,9.45011358,-101.56301741,52.87303898,177.90432863,-66.91245108
23.18754175,40.08943530,67.04726976,-3.07813172,-0.39661561,0.04529920

>  <Name>
ligand

>  <RI>
0

>  <Rbt.Current_Directory>
/home/itssahil/PROJECTS/Mol_Feturizer/New_Systems/rnas/2HOL

>  <Rbt.Executable>
rbdock ($Id: //depot/dev/client3/rdock/2013.1/src/exe/rbdock.cxx#4 $)

>  <Rbt.Library>
libRbt.so (2013.1, Build901 2013/11/27)

>  <Rbt.Parameter_File>
/export/apps/rDock/src/rDock_2013.1_src/data/scripts/dock_solv.prm

>  <Rbt.Receptor>
prm/pocket_docking_5.prm

>  <SCORE>
-24.8829

>  <SCORE.INTER>
-21.2329

>  <SCORE.INTER.CONST>
1

>  <SCORE.INTER.POLAR>
0

>  <SCORE.INTER.ROT>
6

>  <SCORE.INTER.SOLV>
22.5058

>  <SCORE.INTER.VDW>
-29.2572

>  <SCORE.INTER.norm>
-0.816651

>  <SCORE.INTRA>
-3.65001

>  <SCORE.INTRA.DIHEDRAL>
-4.351

>  <SCORE.INTRA.DIHEDRAL.0>
9.33621

>  <SCORE.INTRA.POLAR>
0

>  <SCORE.INTRA.POLAR.0>
0

>  <SCORE.INTRA.REPUL>
0

>  <SCORE.INTRA.REPUL.0>
0

>  <SCORE.INTRA.SOLV>
-0.331228

>  <SCORE.INTRA.SOLV.lig_0>
-65.9238

>  <SCORE.INTRA.VDW>
-1.30889

>  <SCORE.INTRA.VDW.0>
-0.405582

>  <SCORE.INTRA.norm>
-0.140385

>  <SCORE.RESTR>
0

>  <SCORE.RESTR.CAVITY>
0

>  <SCORE.RESTR.norm>
0

>  <SCORE.SYSTEM>
0

>  <SCORE.SYSTEM.CONST>
0

>  <SCORE.SYSTEM.DIHEDRAL>
0

>  <SCORE.SYSTEM.SOLV>
0

>  <SCORE.SYSTEM.norm>
0

>  <SCORE.heavy>
26

>  <SCORE.norm>
-0.957036

>  <RMSD>
2.770

$$$$
ligand
 OpenBabel11021811443D
libRbt.so/2013.1/901 2013/11/27
 26 28  0  0  0  0  0  0  0  0999 V2000
   20.0229   44.7238   65.9754 C   0  0  0  0  0  0  0  0  0  0  0  0
   21.2277   38.9689   67.8022 C   0  0  0  0  0  0  0  0  0  0  0  0
   27.7931   39.1045   68.2358 P   0  0  1  0  0  0  0  0  0  0  0  0
   29.9120   38.7385   66.7994 P   0  0  1  0  0  0  0  0  0  0  0  0
   20.3584   39.1020   65.1383 C   0  0  0  0  0  0  0  0  0  0  0  0
   21.4068   41.3488   65.5437 C   0  0  0  0  0  0  0  0  0  0  0  0
   20.2681   40.5899   65.3599 C   0  0  0  0  0  0  0  0  0  0  0  0
   19.0309   41.2360   65.3841 C   0  0  0  0  0  0  0  0  0  0  0  0
   17.8575   40.5187   65.2050 N   0  0  0  0  0  0  0  0  0  0  0  0
   18.9935   42.5496   65.5873 N   0  0  0  0  0  0  0  0  0  0  0  0
   20.1053   43.2361   65.7535 C   0  0  0  0  0  0  0  0  0  0  0  0
   21.2894   42.6558   65.7364 N   0  0  0  0  0  0  0  0  0  0  0  0
   27.8486   39.9801   69.4281 O   0  0  0  0  0  0  0  0  0  0  0  0
   29.3417   40.1040   66.3540 O   0  0  0  0  0  0  0  0  0  0  0  0
   23.9690   37.8611   65.2331 S   0  0  0  0  0  0  0  0  0  0  0  0
   22.5054   38.3175   64.4165 C   0  0  0  0  0  0  0  0  0  0  0  0
   27.6254   40.0062   66.9142 O   0  0  0  0  0  0  0  0  0  0  0  0
   31.4869   38.8840   67.0976 O   0  5  0  0  0  0  0  0  0  0  0  0
   21.7226   38.6482   65.4174 N   0  0  0  0  0  0  0  0  0  0  0  0
   29.1548   38.2505   68.1340 O   0  0  0  0  0  0  0  0  0  0  0  0
   29.6951   37.7005   65.6755 O   0  0  0  0  0  0  0  0  0  0  0  0
   22.1384   38.5842   66.6635 C   0  0  2  0  0  0  0  0  0  0  0  0
   23.4043   38.1566   66.9022 C   0  0  2  0  0  0  0  0  0  0  0  0
   24.1318   37.9832   68.2097 C   0  0  0  0  0  0  0  0  0  0  0  0
   25.3601   38.8958   68.2375 C   0  0  0  0  0  0  0  0  0  0  0  0
   26.5406   38.1005   68.3638 O   0  0  0  0  0  0  0  0  0  0  0  0
  1 11  1  0  0  0  0
  3 13  1  1  0  0  0
  3 17  1  0  0  0  0
  3 20  1  0  0  0  0
  3 26  1  0  0  0  0
  4 14  1  0  0  0  0
  4 18  1  1  0  0  0
  4 21  2  0  0  0  0
  4 20  1  0  0  0  0
  5 19  1  0  0  0  0
  5  7  1  0  0  0  0
  6  7  2  0  0  0  0
  6 12  1  0  0  0  0
  7  8  1  0  0  0  0
  8  9  1  0  0  0  0
  8 10  2  0  0  0  0
 10 11  1  0  0  0  0
 11 12  2  0  0  0  0
 14 17  1  0  0  0  0
 15 23  1  0  0  0  0
 15 16  1  0  0  0  0
 16 19  1  0  0  0  0
 19 22  1  0  0  0  0
 22  2  1  1  0  0  0
 22 23  1  0  0  0  0
 23 24  1  6  0  0  0
 24 25  1  0  0  0  0
 25 26  1  0  0  0  0
M  CHG  1  18  -1
M  END
>  <CHROM.1>
-106.49429442,10.98783503,60.93121953,-118.82165302,174.36211797,69.00468072
24.60043142,39.59609486,66.60586052,-2.90956691,0.20818669,-3.04770125

>  <Name>
ligand

>  <RI>
0

>  <Rbt.Current_Directory>
/home/itssahil/PROJECTS/Mol_Feturizer/New_Systems/rnas/2HOL

>  <Rbt.Executable>
rbdock ($Id: //depot/dev/client3/rdock/2013.1/src/exe/rbdock.cxx#4 $)

>  <Rbt.Library>
libRbt.so (2013.1, Build901 2013/11/27)

>  <Rbt.Parameter_File>
/export/apps/rDock/src/rDock_2013.1_src/data/scripts/dock_solv.prm

>  <Rbt.Receptor>
prm/pocket_docking_4.prm

>  <SCORE>
-15.4097

>  <SCORE.INTER>
-14.9863

>  <SCORE.INTER.CONST>
1

>  <SCORE.INTER.POLAR>
0

>  <SCORE.INTER.ROT>
6

>  <SCORE.INTER.SOLV>
20.3786

>  <SCORE.INTER.VDW>
-24.3837

>  <SCORE.INTER.norm>
-0.576396

>  <SCORE.INTRA>
-0.423357

>  <SCORE.INTRA.DIHEDRAL>
1.61857

>  <SCORE.INTRA.DIHEDRAL.0>
9.33621

>  <SCORE.INTRA.POLAR>
0

>  <SCORE.INTRA.POLAR.0>
0

>  <SCORE.INTRA.REPUL>
0

>  <SCORE.INTRA.REPUL.0>
0

>  <SCORE.INTRA.SOLV>
-0.474444

>  <SCORE.INTRA.SOLV.lig_0>
-65.9238

>  <SCORE.INTRA.VDW>
-0.995421

>  <SCORE.INTRA.VDW.0>
-0.405582

>  <SCORE.INTRA.norm>
-0.016283

>  <SCORE.RESTR>
0

>  <SCORE.RESTR.CAVITY>
0

>  <SCORE.RESTR.norm>
0

>  <SCORE.SYSTEM>
0

>  <SCORE.SYSTEM.CONST>
0

>  <SCORE.SYSTEM.DIHEDRAL>
0

>  <SCORE.SYSTEM.SOLV>
0

>  <SCORE.SYSTEM.norm>
0

>  <SCORE.heavy>
26

>  <SCORE.norm>
-0.592679

>  <RMSD>
2.778

$$$$
ligand
 OpenBabel11021811443D
libRbt.so/2013.1/901 2013/11/27
 26 28  0  0  0  0  0  0  0  0999 V2000
   16.4512   38.8101   64.3854 C   0  0  0  0  0  0  0  0  0  0  0  0
   22.9545   43.8364   65.4322 C   0  0  0  0  0  0  0  0  0  0  0  0
   26.4927   39.1550   67.4638 P   0  0  1  0  0  0  0  0  0  0  0  0
   27.9776   37.9248   65.7409 P   0  0  1  0  0  0  0  0  0  0  0  0
   20.3415   42.8175   65.4925 C   0  0  0  0  0  0  0  0  0  0  0  0
   17.9686   42.0669   65.1490 C   0  0  0  0  0  0  0  0  0  0  0  0
   19.3128   41.7558   65.1994 C   0  0  0  0  0  0  0  0  0  0  0  0
   19.6951   40.4326   64.9717 C   0  0  0  0  0  0  0  0  0  0  0  0
   21.0327   40.0685   65.0117 N   0  0  0  0  0  0  0  0  0  0  0  0
   18.7565   39.5245   64.7213 N   0  0  0  0  0  0  0  0  0  0  0  0
   17.4851   39.8661   64.6779 C   0  0  0  0  0  0  0  0  0  0  0  0
   17.0913   41.1068   64.8887 N   0  0  0  0  0  0  0  0  0  0  0  0
   26.1837   38.5182   68.7640 O   0  0  0  0  0  0  0  0  0  0  0  0
   28.9572   38.5433   66.7635 O   0  0  0  0  0  0  0  0  0  0  0  0
   22.4420   41.0795   68.1669 S   0  0  0  0  0  0  0  0  0  0  0  0
   20.9698   41.3594   67.2884 C   0  0  0  0  0  0  0  0  0  0  0  0
   27.9496   39.8338   67.5308 O   0  0  0  0  0  0  0  0  0  0  0  0
   28.3482   36.3758   65.5091 O   0  5  0  0  0  0  0  0  0  0  0  0
   21.3292   42.2933   66.4383 N   0  0  0  0  0  0  0  0  0  0  0  0
   26.4728   38.0395   66.3024 O   0  0  0  0  0  0  0  0  0  0  0  0
   28.0865   38.6859   64.4006 O   0  0  0  0  0  0  0  0  0  0  0  0
   22.5568   42.7647   66.4156 C   0  0  2  0  0  0  0  0  0  0  0  0
   23.4565   42.2698   67.3033 C   0  0  2  0  0  0  0  0  0  0  0  0
   24.9073   42.6228   67.5022 C   0  0  0  0  0  0  0  0  0  0  0  0
   25.6709   41.3921   67.9964 C   0  0  0  0  0  0  0  0  0  0  0  0
   25.3890   40.2823   67.1414 O   0  0  0  0  0  0  0  0  0  0  0  0
  1 11  1  0  0  0  0
  3 13  1  1  0  0  0
  3 17  1  0  0  0  0
  3 20  1  0  0  0  0
  3 26  1  0  0  0  0
  4 14  1  0  0  0  0
  4 18  1  6  0  0  0
  4 21  2  0  0  0  0
  4 20  1  0  0  0  0
  5 19  1  0  0  0  0
  5  7  1  0  0  0  0
  6  7  2  0  0  0  0
  6 12  1  0  0  0  0
  7  8  1  0  0  0  0
  8  9  1  0  0  0  0
  8 10  2  0  0  0  0
 10 11  1  0  0  0  0
 11 12  2  0  0  0  0
 14 17  1  0  0  0  0
 15 23  1  0  0  0  0
 15 16  1  0  0  0  0
 16 19  1  0  0  0  0
 19 22  1  0  0  0  0
 22  2  1  1  0  0  0
 22 23  1  0  0  0  0
 23 24  1  6  0  0  0
 24 25  1  0  0  0  0
 25 26  1  0  0  0  0
M  CHG  1  18  -1
M  END
>  <CHROM.1>
-28.23020106,136.77713809,30.78672259,50.72558646,165.37587837,74.14137947
23.55086115,40.22107871,66.31891220,2.97242447,-0.25396851,0.48465262

>  <Name>
ligand

>  <RI>
0

>  <Rbt.Current_Directory>
/home/itssahil/PROJECTS/Mol_Feturizer/New_Systems/rnas/2HOL

>  <Rbt.Executable>
rbdock ($Id: //depot/dev/client3/rdock/2013.1/src/exe/rbdock.cxx#4 $)

>  <Rbt.Library>
libRbt.so (2013.1, Build901 2013/11/27)

>  <Rbt.Parameter_File>
/export/apps/rDock/src/rDock_2013.1_src/data/scripts/dock_solv.prm

>  <Rbt.Receptor>
prm/pocket_docking_3.prm

>  <SCORE>
-17.6469

>  <SCORE.INTER>
-19.0135

>  <SCORE.INTER.CONST>
1

>  <SCORE.INTER.POLAR>
0

>  <SCORE.INTER.ROT>
6

>  <SCORE.INTER.SOLV>
16.7092

>  <SCORE.INTER.VDW>
-25.8454

>  <SCORE.INTER.norm>
-0.731287

>  <SCORE.INTRA>
0.577314

>  <SCORE.INTRA.DIHEDRAL>
-2.81056

>  <SCORE.INTRA.DIHEDRAL.0>
9.33621

>  <SCORE.INTRA.POLAR>
0

>  <SCORE.INTRA.POLAR.0>
0

>  <SCORE.INTRA.REPUL>
0

>  <SCORE.INTRA.REPUL.0>
0

>  <SCORE.INTRA.SOLV>
2.86526

>  <SCORE.INTRA.SOLV.lig_0>
-65.9238

>  <SCORE.INTRA.VDW>
0.549964

>  <SCORE.INTRA.VDW.0>
-0.405582

>  <SCORE.INTRA.norm>
0.0222044

>  <SCORE.RESTR>
0.789269

>  <SCORE.RESTR.CAVITY>
0.789269

>  <SCORE.RESTR.norm>
0.0303565

>  <SCORE.SYSTEM>
0

>  <SCORE.SYSTEM.CONST>
0

>  <SCORE.SYSTEM.DIHEDRAL>
0

>  <SCORE.SYSTEM.SOLV>
0

>  <SCORE.SYSTEM.norm>
0

>  <SCORE.heavy>
26

>  <SCORE.norm>
-0.678726

>  <RMSD>
2.790

$$$$
ligand
 OpenBabel11021811443D
libRbt.so/2013.1/901 2013/11/27
 26 28  0  0  0  0  0  0  0  0999 V2000
   20.0149   44.4143   65.7572 C   0  0  0  0  0  0  0  0  0  0  0  0
   22.5735   38.8647   64.9701 C   0  0  0  0  0  0  0  0  0  0  0  0
   27.5750   41.0643   67.4597 P   0  0  1  0  0  0  0  0  0  0  0  0
   29.1451   42.9348   66.6098 P   0  0  1  0  0  0  0  0  0  0  0  0
   20.8197   38.9545   67.1577 C   0  0  0  0  0  0  0  0  0  0  0  0
   21.4649   41.3813   67.2372 C   0  0  0  0  0  0  0  0  0  0  0  0
   20.6054   40.3993   66.7863 C   0  0  0  0  0  0  0  0  0  0  0  0
   19.5330   40.7787   65.9772 C   0  0  0  0  0  0  0  0  0  0  0  0
   18.6410   39.8305   65.4989 N   0  0  0  0  0  0  0  0  0  0  0  0
   19.3757   42.0643   65.6762 N   0  0  0  0  0  0  0  0  0  0  0  0
   20.2227   42.9681   66.1244 C   0  0  0  0  0  0  0  0  0  0  0  0
   21.2454   42.6426   66.8907 N   0  0  0  0  0  0  0  0  0  0  0  0
   28.0483   40.1099   68.4877 O   0  0  0  0  0  0  0  0  0  0  0  0
   28.5858   43.4453   67.9570 O   0  0  0  0  0  0  0  0  0  0  0  0
   24.3716   38.3133   68.4059 S   0  0  0  0  0  0  0  0  0  0  0  0
   22.6661   38.5523   68.6325 C   0  0  0  0  0  0  0  0  0  0  0  0
   27.1053   42.4293   68.1695 O   0  0  0  0  0  0  0  0  0  0  0  0
   30.7450   43.1095   66.5901 O   0  5  0  0  0  0  0  0  0  0  0  0
   22.2446   38.7183   67.4002 N   0  0  0  0  0  0  0  0  0  0  0  0
   28.7717   41.3790   66.4290 O   0  0  0  0  0  0  0  0  0  0  0  0
   28.5244   43.7512   65.4540 O   0  0  0  0  0  0  0  0  0  0  0  0
   23.0732   38.6735   66.3799 C   0  0  2  0  0  0  0  0  0  0  0  0
   24.3908   38.4584   66.6253 C   0  0  2  0  0  0  0  0  0  0  0  0
   25.5466   38.3644   65.6640 C   0  0  0  0  0  0  0  0  0  0  0  0
   26.7491   39.1211   66.2328 C   0  0  0  0  0  0  0  0  0  0  0  0
   26.3350   40.4207   66.6590 O   0  0  0  0  0  0  0  0  0  0  0  0
  1 11  1  0  0  0  0
  3 13  1  1  0  0  0
  3 17  1  0  0  0  0
  3 20  1  0  0  0  0
  3 26  1  0  0  0  0
  4 14  1  0  0  0  0
  4 18  1  6  0  0  0
  4 21  2  0  0  0  0
  4 20  1  0  0  0  0
  5 19  1  0  0  0  0
  5  7  1  0  0  0  0
  6  7  2  0  0  0  0
  6 12  1  0  0  0  0
  7  8  1  0  0  0  0
  8  9  1  0  0  0  0
  8 10  2  0  0  0  0
 10 11  1  0  0  0  0
 11 12  2  0  0  0  0
 14 17  1  0  0  0  0
 15 23  1  0  0  0  0
 15 16  1  0  0  0  0
 16 19  1  0  0  0  0
 19 22  1  0  0  0  0
 22  2  1  1  0  0  0
 22 23  1  0  0  0  0
 23 24  1  6  0  0  0
 24 25  1  0  0  0  0
 25 26  1  0  0  0  0
M  CHG  1  18  -1
M  END
>  <CHROM.1>
106.61820269,-27.75397788,-42.31062188,-49.17533949,170.88119723,-50.98009480
24.72305781,40.86937364,66.83817967,2.97486507,0.10676268,2.93414694

>  <Name>
ligand

>  <RI>
0

>  <Rbt.Current_Directory>
/home/itssahil/PROJECTS/Mol_Feturizer/New_Systems/rnas/2HOL

>  <Rbt.Executable>
rbdock ($Id: //depot/dev/client3/rdock/2013.1/src/exe/rbdock.cxx#4 $)

>  <Rbt.Library>
libRbt.so (2013.1, Build901 2013/11/27)

>  <Rbt.Parameter_File>
/export/apps/rDock/src/rDock_2013.1_src/data/scripts/dock_solv.prm

>  <Rbt.Receptor>
prm/pocket_docking_5.prm

>  <SCORE>
-16.9322

>  <SCORE.INTER>
-14.1009

>  <SCORE.INTER.CONST>
1

>  <SCORE.INTER.POLAR>
0

>  <SCORE.INTER.ROT>
6

>  <SCORE.INTER.SOLV>
11.8483

>  <SCORE.INTER.VDW>
-20.9501

>  <SCORE.INTER.norm>
-0.542343

>  <SCORE.INTRA>
-2.83126

>  <SCORE.INTRA.DIHEDRAL>
-3.33688

>  <SCORE.INTRA.DIHEDRAL.0>
9.33621

>  <SCORE.INTRA.POLAR>
0

>  <SCORE.INTRA.POLAR.0>
0

>  <SCORE.INTRA.REPUL>
0

>  <SCORE.INTRA.REPUL.0>
0

>  <SCORE.INTRA.SOLV>
0.356749

>  <SCORE.INTRA.SOLV.lig_0>
-65.9238

>  <SCORE.INTRA.VDW>
-1.34119

>  <SCORE.INTRA.VDW.0>
-0.405582

>  <SCORE.INTRA.norm>
-0.108895

>  <SCORE.RESTR>
0

>  <SCORE.RESTR.CAVITY>
0

>  <SCORE.RESTR.norm>
0

>  <SCORE.SYSTEM>
0

>  <SCORE.SYSTEM.CONST>
0

>  <SCORE.SYSTEM.DIHEDRAL>
0

>  <SCORE.SYSTEM.SOLV>
0

>  <SCORE.SYSTEM.norm>
0

>  <SCORE.heavy>
26

>  <SCORE.norm>
-0.651238

>  <RMSD>
2.790

$$$$
ligand
 OpenBabel11021811443D
libRbt.so/2013.1/901 2013/11/27
 26 28  0  0  0  0  0  0  0  0999 V2000
   16.6076   40.3130   63.9289 C   0  0  0  0  0  0  0  0  0  0  0  0
   22.4092   38.6056   67.0823 C   0  0  0  0  0  0  0  0  0  0  0  0
   27.7223   40.2349   65.8376 P   0  0  1  0  0  0  0  0  0  0  0  0
   27.1273   40.8075   68.2880 P   0  0  1  0  0  0  0  0  0  0  0  0
   21.3658   41.2049   66.9260 C   0  0  0  0  0  0  0  0  0  0  0  0
   19.5258   39.7187   66.0790 C   0  0  0  0  0  0  0  0  0  0  0  0
   20.1064   40.9703   66.1322 C   0  0  0  0  0  0  0  0  0  0  0  0
   19.4970   42.0130   65.4322 C   0  0  0  0  0  0  0  0  0  0  0  0
   20.0410   43.2886   65.4532 N   0  0  0  0  0  0  0  0  0  0  0  0
   18.3895   41.7639   64.7396 N   0  0  0  0  0  0  0  0  0  0  0  0
   17.8665   40.5551   64.7201 C   0  0  0  0  0  0  0  0  0  0  0  0
   18.4177   39.5489   65.3702 N   0  0  0  0  0  0  0  0  0  0  0  0
   28.4382   41.2226   64.9989 O   0  0  0  0  0  0  0  0  0  0  0  0
   28.6149   40.3896   68.3110 O   0  0  0  0  0  0  0  0  0  0  0  0
   24.3704   40.9021   64.5880 S   0  0  0  0  0  0  0  0  0  0  0  0
   23.0589   41.7698   65.3258 C   0  0  0  0  0  0  0  0  0  0  0  0
   28.7772   39.4571   66.7704 O   0  0  0  0  0  0  0  0  0  0  0  0
   26.9450   42.1938   69.0851 O   0  5  0  0  0  0  0  0  0  0  0  0
   22.5305   40.8578   66.1086 N   0  0  0  0  0  0  0  0  0  0  0  0
   26.6467   40.9967   66.7629 O   0  0  0  0  0  0  0  0  0  0  0  0
   26.2753   39.7098   68.9639 O   0  0  0  0  0  0  0  0  0  0  0  0
   23.0265   39.6417   66.1772 C   0  0  2  0  0  0  0  0  0  0  0  0
   24.1031   39.3377   65.4084 C   0  0  2  0  0  0  0  0  0  0  0  0
   24.8632   38.0432   65.2844 C   0  0  0  0  0  0  0  0  0  0  0  0
   26.3046   38.2482   65.7561 C   0  0  0  0  0  0  0  0  0  0  0  0
   26.9603   39.1779   64.8914 O   0  0  0  0  0  0  0  0  0  0  0  0
  1 11  1  0  0  0  0
  3 13  1  6  0  0  0
  3 17  1  0  0  0  0
  3 20  1  0  0  0  0
  3 26  1  0  0  0  0
  4 14  1  0  0  0  0
  4 18  1  1  0  0  0
  4 21  2  0  0  0  0
  4 20  1  0  0  0  0
  5 19  1  0  0  0  0
  5  7  1  0  0  0  0
  6  7  2  0  0  0  0
  6 12  1  0  0  0  0
  7  8  1  0  0  0  0
  8  9  1  0  0  0  0
  8 10  2  0  0  0  0
 10 11  1  0  0  0  0
 11 12  2  0  0  0  0
 14 17  1  0  0  0  0
 15 23  1  0  0  0  0
 15 16  1  0  0  0  0
 16 19  1  0  0  0  0
 19 22  1  0  0  0  0
 22  2  1  6  0  0  0
 22 23  1  0  0  0  0
 23 24  1  1  0  0  0
 24 25  1  0  0  0  0
 25 26  1  0  0  0  0
M  CHG  1  18  -1
M  END
>  <CHROM.1>
87.73738682,84.81955160,62.84877913,-64.02452354,133.25242099,179.37993695
24.01948161,40.44178181,66.15402765,-3.01285115,-0.17059791,0.95676785

>  <Name>
ligand

>  <RI>
0

>  <Rbt.Current_Directory>
/home/itssahil/PROJECTS/Mol_Feturizer/New_Systems/rnas/2HOL

>  <Rbt.Executable>
rbdock ($Id: //depot/dev/client3/rdock/2013.1/src/exe/rbdock.cxx#4 $)

>  <Rbt.Library>
libRbt.so (2013.1, Build901 2013/11/27)

>  <Rbt.Parameter_File>
/export/apps/rDock/src/rDock_2013.1_src/data/scripts/dock_solv.prm

>  <Rbt.Receptor>
prm/pocket_docking_3.prm

>  <SCORE>
-18.5844

>  <SCORE.INTER>
-16.7815

>  <SCORE.INTER.CONST>
1

>  <SCORE.INTER.POLAR>
0

>  <SCORE.INTER.ROT>
6

>  <SCORE.INTER.SOLV>
16.2631

>  <SCORE.INTER.VDW>
-24.2087

>  <SCORE.INTER.norm>
-0.645441

>  <SCORE.INTRA>
-1.8029

>  <SCORE.INTRA.DIHEDRAL>
2.25451

>  <SCORE.INTRA.DIHEDRAL.0>
9.33621

>  <SCORE.INTRA.POLAR>
0

>  <SCORE.INTRA.POLAR.0>
0

>  <SCORE.INTRA.REPUL>
0

>  <SCORE.INTRA.REPUL.0>
0

>  <SCORE.INTRA.SOLV>
1.98765

>  <SCORE.INTRA.SOLV.lig_0>
-65.9238

>  <SCORE.INTRA.VDW>
-3.92399

>  <SCORE.INTRA.VDW.0>
-0.405582

>  <SCORE.INTRA.norm>
-0.0693425

>  <SCORE.RESTR>
0

>  <SCORE.RESTR.CAVITY>
0

>  <SCORE.RESTR.norm>
0

>  <SCORE.SYSTEM>
0

>  <SCORE.SYSTEM.CONST>
0

>  <SCORE.SYSTEM.DIHEDRAL>
0

>  <SCORE.SYSTEM.SOLV>
0

>  <SCORE.SYSTEM.norm>
0

>  <SCORE.heavy>
26

>  <SCORE.norm>
-0.714784

>  <RMSD>
2.810

$$$$
ligand
 OpenBabel11021811443D
libRbt.so/2013.1/901 2013/11/27
 26 28  0  0  0  0  0  0  0  0999 V2000
   15.7874   39.5209   63.5525 C   0  0  0  0  0  0  0  0  0  0  0  0
   21.9682   39.6984   68.5285 C   0  0  0  0  0  0  0  0  0  0  0  0
   26.9312   40.1808   68.3350 P   0  0  1  0  0  0  0  0  0  0  0  0
   27.4163   42.3258   66.9748 P   0  0  1  0  0  0  0  0  0  0  0  0
   20.5261   40.8496   66.4156 C   0  0  0  0  0  0  0  0  0  0  0  0
   18.7505   39.2216   65.7025 C   0  0  0  0  0  0  0  0  0  0  0  0
   19.2718   40.4993   65.6572 C   0  0  0  0  0  0  0  0  0  0  0  0
   18.6072   41.4586   64.8913 C   0  0  0  0  0  0  0  0  0  0  0  0
   19.0904   42.7562   64.8127 N   0  0  0  0  0  0  0  0  0  0  0  0
   17.5062   41.1084   64.2329 N   0  0  0  0  0  0  0  0  0  0  0  0
   17.0408   39.8784   64.3079 C   0  0  0  0  0  0  0  0  0  0  0  0
   17.6450   38.9490   65.0221 N   0  0  0  0  0  0  0  0  0  0  0  0
   28.0088   39.1934   68.5706 O   0  0  0  0  0  0  0  0  0  0  0  0
   27.9518   42.6084   68.3966 O   0  0  0  0  0  0  0  0  0  0  0  0
   23.0920   38.3949   65.0100 S   0  0  0  0  0  0  0  0  0  0  0  0
   21.8099   39.5570   64.8577 C   0  0  0  0  0  0  0  0  0  0  0  0
   27.0663   41.3860   69.3920 O   0  0  0  0  0  0  0  0  0  0  0  0
   28.5393   42.7147   65.8893 O   0  5  0  0  0  0  0  0  0  0  0  0
   21.5714   39.8704   66.1103 N   0  0  0  0  0  0  0  0  0  0  0  0
   27.0550   40.7626   66.8385 O   0  0  0  0  0  0  0  0  0  0  0  0
   26.1469   43.1713   66.7271 O   0  0  0  0  0  0  0  0  0  0  0  0
   22.2531   39.3270   67.0951 C   0  0  2  0  0  0  0  0  0  0  0  0
   23.2145   38.4179   66.7923 C   0  0  2  0  0  0  0  0  0  0  0  0
   24.1318   37.6463   67.7044 C   0  0  0  0  0  0  0  0  0  0  0  0
   25.5193   38.2919   67.7012 C   0  0  0  0  0  0  0  0  0  0  0  0
   25.4991   39.4668   68.5144 O   0  0  0  0  0  0  0  0  0  0  0  0
  1 11  1  0  0  0  0
  3 13  1  1  0  0  0
  3 17  1  0  0  0  0
  3 20  1  0  0  0  0
  3 26  1  0  0  0  0
  4 14  1  0  0  0  0
  4 18  1  6  0  0  0
  4 21  2  0  0  0  0
  4 20  1  0  0  0  0
  5 19  1  0  0  0  0
  5  7  1  0  0  0  0
  6  7  2  0  0  0  0
  6 12  1  0  0  0  0
  7  8  1  0  0  0  0
  8  9  1  0  0  0  0
  8 10  2  0  0  0  0
 10 11  1  0  0  0  0
 11 12  2  0  0  0  0
 14 17  1  0  0  0  0
 15 23  1  0  0  0  0
 15 16  1  0  0  0  0
 16 19  1  0  0  0  0
 19 22  1  0  0  0  0
 22  2  1  1  0  0  0
 22 23  1  0  0  0  0
 23 24  1  6  0  0  0
 24 25  1  0  0  0  0
 25 26  1  0  0  0  0
M  CHG  1  18  -1
M  END
>  <CHROM.1>
48.30356163,50.60613833,78.17147662,77.21767892,-173.80446205,-51.28515479
23.37000636,40.32546537,66.56647603,3.13006836,0.33309170,2.83336648

>  <Name>
ligand

>  <RI>
0

>  <Rbt.Current_Directory>
/home/itssahil/PROJECTS/Mol_Feturizer/New_Systems/rnas/2HOL

>  <Rbt.Executable>
rbdock ($Id: //depot/dev/client3/rdock/2013.1/src/exe/rbdock.cxx#4 $)

>  <Rbt.Library>
libRbt.so (2013.1, Build901 2013/11/27)

>  <Rbt.Parameter_File>
/export/apps/rDock/src/rDock_2013.1_src/data/scripts/dock_solv.prm

>  <Rbt.Receptor>
prm/pocket_docking_5.prm

>  <SCORE>
-21.8993

>  <SCORE.INTER>
-18.7894

>  <SCORE.INTER.CONST>
1

>  <SCORE.INTER.POLAR>
0

>  <SCORE.INTER.ROT>
6

>  <SCORE.INTER.SOLV>
17.0532

>  <SCORE.INTER.VDW>
-25.8107

>  <SCORE.INTER.norm>
-0.72267

>  <SCORE.INTRA>
-3.10987

>  <SCORE.INTRA.DIHEDRAL>
-2.95884

>  <SCORE.INTRA.DIHEDRAL.0>
9.33621

>  <SCORE.INTRA.POLAR>
0

>  <SCORE.INTRA.POLAR.0>
0

>  <SCORE.INTRA.REPUL>
0

>  <SCORE.INTRA.REPUL.0>
0

>  <SCORE.INTRA.SOLV>
-0.39656

>  <SCORE.INTRA.SOLV.lig_0>
-65.9238

>  <SCORE.INTRA.VDW>
-1.43217

>  <SCORE.INTRA.VDW.0>
-0.405582

>  <SCORE.INTRA.norm>
-0.11961

>  <SCORE.RESTR>
0

>  <SCORE.RESTR.CAVITY>
0

>  <SCORE.RESTR.norm>
0

>  <SCORE.SYSTEM>
0

>  <SCORE.SYSTEM.CONST>
0

>  <SCORE.SYSTEM.DIHEDRAL>
0

>  <SCORE.SYSTEM.SOLV>
0

>  <SCORE.SYSTEM.norm>
0

>  <SCORE.heavy>
26

>  <SCORE.norm>
-0.84228

>  <RMSD>
2.815

$$$$
ligand
 OpenBabel11021811443D
libRbt.so/2013.1/901 2013/11/27
 26 28  0  0  0  0  0  0  0  0999 V2000
   15.9246   39.6379   63.6089 C   0  0  0  0  0  0  0  0  0  0  0  0
   22.6285   40.2013   64.8560 C   0  0  0  0  0  0  0  0  0  0  0  0
   26.9402   40.1685   66.0794 P   0  0  1  0  0  0  0  0  0  0  0  0
   27.4373   42.4581   67.1735 P   0  0  1  0  0  0  0  0  0  0  0  0
   20.5774   40.9304   66.6254 C   0  0  0  0  0  0  0  0  0  0  0  0
   18.8355   39.3068   65.8247 C   0  0  0  0  0  0  0  0  0  0  0  0
   19.3458   40.5897   65.8265 C   0  0  0  0  0  0  0  0  0  0  0  0
   18.6918   41.5634   65.0696 C   0  0  0  0  0  0  0  0  0  0  0  0
   19.1648   42.8667   65.0376 N   0  0  0  0  0  0  0  0  0  0  0  0
   17.6111   41.2214   64.3745 N   0  0  0  0  0  0  0  0  0  0  0  0
   17.1553   39.9859   64.4050 C   0  0  0  0  0  0  0  0  0  0  0  0
   17.7500   39.0430   65.1095 N   0  0  0  0  0  0  0  0  0  0  0  0
   27.9853   39.4847   65.2847 O   0  0  0  0  0  0  0  0  0  0  0  0
   28.0684   41.4057   68.1127 O   0  0  0  0  0  0  0  0  0  0  0  0
   22.1947   37.6861   67.8271 S   0  0  0  0  0  0  0  0  0  0  0  0
   21.0479   38.9855   67.9452 C   0  0  0  0  0  0  0  0  0  0  0  0
   27.1908   39.8957   67.6448 O   0  0  0  0  0  0  0  0  0  0  0  0
   28.5096   43.6187   66.8674 O   0  5  0  0  0  0  0  0  0  0  0  0
   21.3416   39.7094   66.8900 N   0  0  0  0  0  0  0  0  0  0  0  0
   27.0001   41.7523   65.7939 O   0  0  0  0  0  0  0  0  0  0  0  0
   26.1938   43.0732   67.8539 O   0  0  0  0  0  0  0  0  0  0  0  0
   22.3040   39.3599   66.0645 C   0  0  2  0  0  0  0  0  0  0  0  0
   23.0043   38.2276   66.3294 C   0  0  2  0  0  0  0  0  0  0  0  0
   24.1437   37.6002   65.5699 C   0  0  0  0  0  0  0  0  0  0  0  0
   25.4662   38.2223   66.0240 C   0  0  0  0  0  0  0  0  0  0  0  0
   25.4912   39.6042   65.6608 O   0  0  0  0  0  0  0  0  0  0  0  0
  1 11  1  0  0  0  0
  3 13  1  6  0  0  0
  3 17  1  0  0  0  0
  3 20  1  0  0  0  0
  3 26  1  0  0  0  0
  4 14  1  0  0  0  0
  4 18  1  6  0  0  0
  4 21  2  0  0  0  0
  4 20  1  0  0  0  0
  5 19  1  0  0  0  0
  5  7  1  0  0  0  0
  6  7  2  0  0  0  0
  6 12  1  0  0  0  0
  7  8  1  0  0  0  0
  8  9  1  0  0  0  0
  8 10  2  0  0  0  0
 10 11  1  0  0  0  0
 11 12  2  0  0  0  0
 14 17  1  0  0  0  0
 15 23  1  0  0  0  0
 15 16  1  0  0  0  0
 16 19  1  0  0  0  0
 19 22  1  0  0  0  0
 22  2  1  1  0  0  0
 22 23  1  0  0  0  0
 23 24  1  6  0  0  0
 24 25  1  0  0  0  0
 25 26  1  0  0  0  0
M  CHG  1  18  -1
M  END
>  <CHROM.1>
-86.91046894,21.55531712,-94.11659505,-65.19020781,-176.38080829,64.09529855
23.32468696,40.27865930,66.21068052,3.03213634,0.19236842,3.01533462

>  <Name>
ligand

>  <RI>
0

>  <Rbt.Current_Directory>
/home/itssahil/PROJECTS/Mol_Feturizer/New_Systems/rnas/2HOL

>  <Rbt.Executable>
rbdock ($Id: //depot/dev/client3/rdock/2013.1/src/exe/rbdock.cxx#4 $)

>  <Rbt.Library>
libRbt.so (2013.1, Build901 2013/11/27)

>  <Rbt.Parameter_File>
/export/apps/rDock/src/rDock_2013.1_src/data/scripts/dock_solv.prm

>  <Rbt.Receptor>
prm/pocket_docking_7.prm

>  <SCORE>
-23.0638

>  <SCORE.INTER>
-19.4262

>  <SCORE.INTER.CONST>
1

>  <SCORE.INTER.POLAR>
0

>  <SCORE.INTER.ROT>
6

>  <SCORE.INTER.SOLV>
18.6089

>  <SCORE.INTER.VDW>
-26.7538

>  <SCORE.INTER.norm>
-0.747162

>  <SCORE.INTRA>
-3.6376

>  <SCORE.INTRA.DIHEDRAL>
-4.34254

>  <SCORE.INTRA.DIHEDRAL.0>
9.33621

>  <SCORE.INTRA.POLAR>
0

>  <SCORE.INTRA.POLAR.0>
0

>  <SCORE.INTRA.REPUL>
0

>  <SCORE.INTRA.REPUL.0>
0

>  <SCORE.INTRA.SOLV>
0.15886

>  <SCORE.INTRA.SOLV.lig_0>
-65.9238

>  <SCORE.INTRA.VDW>
-1.54577

>  <SCORE.INTRA.VDW.0>
-0.405582

>  <SCORE.INTRA.norm>
-0.139908

>  <SCORE.RESTR>
0

>  <SCORE.RESTR.CAVITY>
0

>  <SCORE.RESTR.norm>
0

>  <SCORE.SYSTEM>
0

>  <SCORE.SYSTEM.CONST>
0

>  <SCORE.SYSTEM.DIHEDRAL>
0

>  <SCORE.SYSTEM.SOLV>
0

>  <SCORE.SYSTEM.norm>
0

>  <SCORE.heavy>
26

>  <SCORE.norm>
-0.88707

>  <RMSD>
2.830

$$$$
ligand
 OpenBabel11021811443D
libRbt.so/2013.1/901 2013/11/27
 26 28  0  0  0  0  0  0  0  0999 V2000
   16.1681   39.6419   63.7301 C   0  0  0  0  0  0  0  0  0  0  0  0
   21.3053   39.2480   68.0844 C   0  0  0  0  0  0  0  0  0  0  0  0
   26.3352   36.9749   69.0379 P   0  0  1  0  0  0  0  0  0  0  0  0
   27.4942   38.8495   67.6854 P   0  0  1  0  0  0  0  0  0  0  0  0
   20.7069   41.5466   66.5919 C   0  0  0  0  0  0  0  0  0  0  0  0
   19.1433   39.7123   65.8830 C   0  0  0  0  0  0  0  0  0  0  0  0
   19.5053   41.0438   65.8339 C   0  0  0  0  0  0  0  0  0  0  0  0
   18.7297   41.9127   65.0644 C   0  0  0  0  0  0  0  0  0  0  0  0
   19.0516   43.2592   64.9817 N   0  0  0  0  0  0  0  0  0  0  0  0
   17.6803   41.4289   64.4064 N   0  0  0  0  0  0  0  0  0  0  0  0
   17.3679   40.1517   64.4851 C   0  0  0  0  0  0  0  0  0  0  0  0
   18.0800   39.3051   65.2029 N   0  0  0  0  0  0  0  0  0  0  0  0
   27.0370   35.6942   69.2806 O   0  0  0  0  0  0  0  0  0  0  0  0
   28.0801   38.9467   69.1121 O   0  0  0  0  0  0  0  0  0  0  0  0
   23.8554   39.9057   65.1851 S   0  0  0  0  0  0  0  0  0  0  0  0
   22.6267   41.1331   65.2174 C   0  0  0  0  0  0  0  0  0  0  0  0
   26.8409   38.0741   70.0981 O   0  0  0  0  0  0  0  0  0  0  0  0
   28.6915   38.8564   66.6099 O   0  5  0  0  0  0  0  0  0  0  0  0
   21.8818   40.7512   66.2289 N   0  0  0  0  0  0  0  0  0  0  0  0
   26.6516   37.4847   67.5434 O   0  0  0  0  0  0  0  0  0  0  0  0
   26.5652   40.0573   67.4287 O   0  0  0  0  0  0  0  0  0  0  0  0
   22.1700   39.6728   66.9244 C   0  0  2  0  0  0  0  0  0  0  0  0
   23.2601   38.9460   66.5695 C   0  0  2  0  0  0  0  0  0  0  0  0
   23.8156   37.6842   67.1763 C   0  0  0  0  0  0  0  0  0  0  0  0
   24.1143   37.9172   68.6590 C   0  0  0  0  0  0  0  0  0  0  0  0
   24.7482   36.7583   69.2042 O   0  0  0  0  0  0  0  0  0  0  0  0
  1 11  1  0  0  0  0
  3 13  1  1  0  0  0
  3 17  1  0  0  0  0
  3 20  1  0  0  0  0
  3 26  1  0  0  0  0
  4 14  1  0  0  0  0
  4 18  1  6  0  0  0
  4 21  2  0  0  0  0
  4 20  1  0  0  0  0
  5 19  1  0  0  0  0
  5  7  1  0  0  0  0
  6  7  2  0  0  0  0
  6 12  1  0  0  0  0
  7  8  1  0  0  0  0
  8  9  1  0  0  0  0
  8 10  2  0  0  0  0
 10 11  1  0  0  0  0
 11 12  2  0  0  0  0
 14 17  1  0  0  0  0
 15 23  1  0  0  0  0
 15 16  1  0  0  0  0
 16 19  1  0  0  0  0
 19 22  1  0  0  0  0
 22  2  1  6  0  0  0
 22 23  1  0  0  0  0
 23 24  1  1  0  0  0
 24 25  1  0  0  0  0
 25 26  1  0  0  0  0
M  CHG  1  18  -1
M  END
>  <CHROM.1>
89.93025692,53.99061490,122.55935354,-175.00079643,91.06260901,-166.62814033
23.34789553,39.24030388,66.92545511,2.66612080,-0.13610576,-0.60928524

>  <Name>
ligand

>  <RI>
0

>  <Rbt.Current_Directory>
/home/itssahil/PROJECTS/Mol_Feturizer/New_Systems/rnas/2HOL

>  <Rbt.Executable>
rbdock ($Id: //depot/dev/client3/rdock/2013.1/src/exe/rbdock.cxx#4 $)

>  <Rbt.Library>
libRbt.so (2013.1, Build901 2013/11/27)

>  <Rbt.Parameter_File>
/export/apps/rDock/src/rDock_2013.1_src/data/scripts/dock_solv.prm

>  <Rbt.Receptor>
prm/pocket_docking_7.prm

>  <SCORE>
-19.0934

>  <SCORE.INTER>
-18.5931

>  <SCORE.INTER.CONST>
1

>  <SCORE.INTER.POLAR>
0

>  <SCORE.INTER.ROT>
6

>  <SCORE.INTER.SOLV>
20.8878

>  <SCORE.INTER.VDW>
-26.958

>  <SCORE.INTER.norm>
-0.715118

>  <SCORE.INTRA>
-0.500334

>  <SCORE.INTRA.DIHEDRAL>
-0.591675

>  <SCORE.INTRA.DIHEDRAL.0>
9.33621

>  <SCORE.INTRA.POLAR>
0

>  <SCORE.INTRA.POLAR.0>
0

>  <SCORE.INTRA.REPUL>
0

>  <SCORE.INTRA.REPUL.0>
0

>  <SCORE.INTRA.SOLV>
1.66589

>  <SCORE.INTRA.SOLV.lig_0>
-65.9238

>  <SCORE.INTRA.VDW>
-1.03744

>  <SCORE.INTRA.VDW.0>
-0.405582

>  <SCORE.INTRA.norm>
-0.0192436

>  <SCORE.RESTR>
0

>  <SCORE.RESTR.CAVITY>
0

>  <SCORE.RESTR.norm>
0

>  <SCORE.SYSTEM>
0

>  <SCORE.SYSTEM.CONST>
0

>  <SCORE.SYSTEM.DIHEDRAL>
0

>  <SCORE.SYSTEM.SOLV>
0

>  <SCORE.SYSTEM.norm>
0

>  <SCORE.heavy>
26

>  <SCORE.norm>
-0.734361

>  <RMSD>
2.831

$$$$
ligand
 OpenBabel11021811443D
libRbt.so/2013.1/901 2013/11/27
 26 28  0  0  0  0  0  0  0  0999 V2000
   16.1229   39.7644   63.6511 C   0  0  0  0  0  0  0  0  0  0  0  0
   22.4319   40.0119   64.8393 C   0  0  0  0  0  0  0  0  0  0  0  0
   27.5279   38.2631   64.8314 P   0  0  1  0  0  0  0  0  0  0  0  0
   27.8825   40.7638   65.3857 P   0  0  1  0  0  0  0  0  0  0  0  0
   20.7064   41.1773   66.7193 C   0  0  0  0  0  0  0  0  0  0  0  0
   19.0406   39.5009   65.8669 C   0  0  0  0  0  0  0  0  0  0  0  0
   19.4931   40.8047   65.9067 C   0  0  0  0  0  0  0  0  0  0  0  0
   18.7979   41.7693   65.1752 C   0  0  0  0  0  0  0  0  0  0  0  0
   19.2123   43.0928   65.1816 N   0  0  0  0  0  0  0  0  0  0  0  0
   17.7351   41.3992   64.4669 N   0  0  0  0  0  0  0  0  0  0  0  0
   17.3349   40.1442   64.4610 C   0  0  0  0  0  0  0  0  0  0  0  0
   17.9696   39.2093   65.1408 N   0  0  0  0  0  0  0  0  0  0  0  0
   28.4995   37.5499   63.9719 O   0  0  0  0  0  0  0  0  0  0  0  0
   28.8159   39.9917   66.3452 O   0  0  0  0  0  0  0  0  0  0  0  0
   22.3221   38.0679   68.2380 S   0  0  0  0  0  0  0  0  0  0  0  0
   21.2716   39.4506   68.2829 C   0  0  0  0  0  0  0  0  0  0  0  0
   28.0927   38.3345   66.3360 O   0  0  0  0  0  0  0  0  0  0  0  0
   28.7056   41.9476   64.6704 O   0  5  0  0  0  0  0  0  0  0  0  0
   21.4401   39.9641   67.0864 N   0  0  0  0  0  0  0  0  0  0  0  0
   27.3091   39.7561   64.2685 O   0  0  0  0  0  0  0  0  0  0  0  0
   26.7071   41.3664   66.1876 O   0  0  0  0  0  0  0  0  0  0  0  0
   22.2501   39.4108   66.2102 C   0  0  2  0  0  0  0  0  0  0  0  0
   22.9250   38.2897   66.5708 C   0  0  2  0  0  0  0  0  0  0  0  0
   23.9059   37.4610   65.7835 C   0  0  0  0  0  0  0  0  0  0  0  0
   25.2281   38.2203   65.6514 C   0  0  0  0  0  0  0  0  0  0  0  0
   26.1228   37.4766   64.8216 O   0  0  0  0  0  0  0  0  0  0  0  0
  1 11  1  0  0  0  0
  3 13  1  6  0  0  0
  3 17  1  0  0  0  0
  3 20  1  0  0  0  0
  3 26  1  0  0  0  0
  4 14  1  0  0  0  0
  4 18  1  6  0  0  0
  4 21  2  0  0  0  0
  4 20  1  0  0  0  0
  5 19  1  0  0  0  0
  5  7  1  0  0  0  0
  6  7  2  0  0  0  0
  6 12  1  0  0  0  0
  7  8  1  0  0  0  0
  8  9  1  0  0  0  0
  8 10  2  0  0  0  0
 10 11  1  0  0  0  0
 11 12  2  0  0  0  0
 14 17  1  0  0  0  0
 15 23  1  0  0  0  0
 15 16  1  0  0  0  0
 16 19  1  0  0  0  0
 19 22  1  0  0  0  0
 22  2  1  1  0  0  0
 22 23  1  0  0  0  0
 23 24  1  6  0  0  0
 24 25  1  0  0  0  0
 25 26  1  0  0  0  0
M  CHG  1  18  -1
M  END
>  <CHROM.1>
-98.98218675,14.92798058,-107.64349176,-175.75961844,-175.13414438,-179.28738204
23.58256873,39.63428379,65.65446812,-3.04960750,-0.05893316,2.72072943

>  <Name>
ligand

>  <RI>
0

>  <Rbt.Current_Directory>
/home/itssahil/PROJECTS/Mol_Feturizer/New_Systems/rnas/2HOL

>  <Rbt.Executable>
rbdock ($Id: //depot/dev/client3/rdock/2013.1/src/exe/rbdock.cxx#4 $)

>  <Rbt.Library>
libRbt.so (2013.1, Build901 2013/11/27)

>  <Rbt.Parameter_File>
/export/apps/rDock/src/rDock_2013.1_src/data/scripts/dock_solv.prm

>  <Rbt.Receptor>
prm/blind_docking_100.prm

>  <SCORE>
-24.929

>  <SCORE.INTER>
-21.2912

>  <SCORE.INTER.CONST>
1

>  <SCORE.INTER.POLAR>
0

>  <SCORE.INTER.ROT>
6

>  <SCORE.INTER.SOLV>
23.0215

>  <SCORE.INTER.VDW>
-29.468

>  <SCORE.INTER.norm>
-0.818892

>  <SCORE.INTRA>
-3.63777

>  <SCORE.INTRA.DIHEDRAL>
-4.52937

>  <SCORE.INTRA.DIHEDRAL.0>
9.33621

>  <SCORE.INTRA.POLAR>
0

>  <SCORE.INTRA.POLAR.0>
0

>  <SCORE.INTRA.REPUL>
0

>  <SCORE.INTRA.REPUL.0>
0

>  <SCORE.INTRA.SOLV>
0.524316

>  <SCORE.INTRA.SOLV.lig_0>
-65.9238

>  <SCORE.INTRA.VDW>
-1.63525

>  <SCORE.INTRA.VDW.0>
-0.405582

>  <SCORE.INTRA.norm>
-0.139914

>  <SCORE.RESTR>
0

>  <SCORE.RESTR.CAVITY>
0

>  <SCORE.RESTR.norm>
0

>  <SCORE.SYSTEM>
0

>  <SCORE.SYSTEM.CONST>
0

>  <SCORE.SYSTEM.DIHEDRAL>
0

>  <SCORE.SYSTEM.SOLV>
0

>  <SCORE.SYSTEM.norm>
0

>  <SCORE.heavy>
26

>  <SCORE.norm>
-0.958807

>  <RMSD>
2.846

$$$$
ligand
 OpenBabel11021811443D
libRbt.so/2013.1/901 2013/11/27
 26 28  0  0  0  0  0  0  0  0999 V2000
   16.8000   40.6069   63.9116 C   0  0  0  0  0  0  0  0  0  0  0  0
   23.3530   38.7590   66.8849 C   0  0  0  0  0  0  0  0  0  0  0  0
   28.4739   39.3098   66.9401 P   0  0  1  0  0  0  0  0  0  0  0  0
   28.2807   39.7443   69.4818 P   0  0  1  0  0  0  0  0  0  0  0  0
   21.6139   40.9597   66.9316 C   0  0  0  0  0  0  0  0  0  0  0  0
   19.4026   41.8777   66.1708 C   0  0  0  0  0  0  0  0  0  0  0  0
   20.3402   40.8649   66.1318 C   0  0  0  0  0  0  0  0  0  0  0  0
   20.0784   39.7510   65.3322 C   0  0  0  0  0  0  0  0  0  0  0  0
   20.9880   38.7066   65.2591 N   0  0  0  0  0  0  0  0  0  0  0  0
   18.9406   39.7032   64.6457 N   0  0  0  0  0  0  0  0  0  0  0  0
   18.0755   40.6946   64.7084 C   0  0  0  0  0  0  0  0  0  0  0  0
   18.2927   41.7603   65.4542 N   0  0  0  0  0  0  0  0  0  0  0  0
   28.9115   40.3958   66.0340 O   0  0  0  0  0  0  0  0  0  0  0  0
   29.7837   39.5010   69.2174 O   0  0  0  0  0  0  0  0  0  0  0  0
   24.3907   41.5919   64.3869 S   0  0  0  0  0  0  0  0  0  0  0  0
   22.9503   42.0296   65.2537 C   0  0  0  0  0  0  0  0  0  0  0  0
   29.7607   38.6349   67.6304 O   0  0  0  0  0  0  0  0  0  0  0  0
   28.0980   41.0785   70.3633 O   0  5  0  0  0  0  0  0  0  0  0  0
   22.7616   40.9818   66.0221 N   0  0  0  0  0  0  0  0  0  0  0  0
   27.5103   39.9172   68.0785 O   0  0  0  0  0  0  0  0  0  0  0  0
   27.6923   38.5377   70.2470 O   0  0  0  0  0  0  0  0  0  0  0  0
   23.5825   39.9545   65.9951 C   0  0  2  0  0  0  0  0  0  0  0  0
   24.6376   39.9916   65.1419 C   0  0  2  0  0  0  0  0  0  0  0  0
   25.7180   38.9699   64.9016 C   0  0  0  0  0  0  0  0  0  0  0  0
   26.2805   38.4938   66.2428 C   0  0  0  0  0  0  0  0  0  0  0  0
   27.6708   38.1974   66.0972 O   0  0  0  0  0  0  0  0  0  0  0  0
  1 11  1  0  0  0  0
  3 13  1  6  0  0  0
  3 17  1  0  0  0  0
  3 20  1  0  0  0  0
  3 26  1  0  0  0  0
  4 14  1  0  0  0  0
  4 18  1  1  0  0  0
  4 21  2  0  0  0  0
  4 20  1  0  0  0  0
  5 19  1  0  0  0  0
  5  7  1  0  0  0  0
  6  7  2  0  0  0  0
  6 12  1  0  0  0  0
  7  8  1  0  0  0  0
  8  9  1  0  0  0  0
  8 10  2  0  0  0  0
 10 11  1  0  0  0  0
 11 12  2  0  0  0  0
 14 17  1  0  0  0  0
 15 23  1  0  0  0  0
 15 16  1  0  0  0  0
 16 19  1  0  0  0  0
 19 22  1  0  0  0  0
 22  2  1  6  0  0  0
 22 23  1  0  0  0  0
 23 24  1  1  0  0  0
 24 25  1  0  0  0  0
 25 26  1  0  0  0  0
M  CHG  1  18  -1
M  END
>  <CHROM.1>
68.47557455,-117.00802342,132.10424385,-146.78313113,111.50864266,-96.45008244
24.60587191,40.02019276,66.58095308,2.81747729,0.15730431,-1.63218309

>  <Name>
ligand

>  <RI>
0

>  <Rbt.Current_Directory>
/home/itssahil/PROJECTS/Mol_Feturizer/New_Systems/rnas/2HOL

>  <Rbt.Executable>
rbdock ($Id: //depot/dev/client3/rdock/2013.1/src/exe/rbdock.cxx#4 $)

>  <Rbt.Library>
libRbt.so (2013.1, Build901 2013/11/27)

>  <Rbt.Parameter_File>
/export/apps/rDock/src/rDock_2013.1_src/data/scripts/dock_solv.prm

>  <Rbt.Receptor>
prm/pocket_docking_2.prm

>  <SCORE>
-4.08991

>  <SCORE.INTER>
-11.9711

>  <SCORE.INTER.CONST>
1

>  <SCORE.INTER.POLAR>
0

>  <SCORE.INTER.ROT>
6

>  <SCORE.INTER.SOLV>
15.5432

>  <SCORE.INTER.VDW>
-20.7618

>  <SCORE.INTER.norm>
-0.460426

>  <SCORE.INTRA>
6.39119

>  <SCORE.INTRA.DIHEDRAL>
6.96479

>  <SCORE.INTRA.DIHEDRAL.0>
9.33621

>  <SCORE.INTRA.POLAR>
0

>  <SCORE.INTRA.POLAR.0>
0

>  <SCORE.INTRA.REPUL>
0

>  <SCORE.INTRA.REPUL.0>
0

>  <SCORE.INTRA.SOLV>
3.98976

>  <SCORE.INTRA.SOLV.lig_0>
-65.9238

>  <SCORE.INTRA.VDW>
0.913911

>  <SCORE.INTRA.VDW.0>
-0.405582

>  <SCORE.INTRA.norm>
0.245815

>  <SCORE.RESTR>
1.48997

>  <SCORE.RESTR.CAVITY>
1.48997

>  <SCORE.RESTR.norm>
0.0573066

>  <SCORE.SYSTEM>
0

>  <SCORE.SYSTEM.CONST>
0

>  <SCORE.SYSTEM.DIHEDRAL>
0

>  <SCORE.SYSTEM.SOLV>
0

>  <SCORE.SYSTEM.norm>
0

>  <SCORE.heavy>
26

>  <SCORE.norm>
-0.157304

>  <RMSD>
2.857

$$$$
ligand
 OpenBabel11021811443D
libRbt.so/2013.1/901 2013/11/27
 26 28  0  0  0  0  0  0  0  0999 V2000
   16.2175   39.1289   64.0828 C   0  0  0  0  0  0  0  0  0  0  0  0
   22.7244   43.6634   66.9963 C   0  0  0  0  0  0  0  0  0  0  0  0
   26.2293   38.5123   67.7142 P   0  0  1  0  0  0  0  0  0  0  0  0
   28.0616   37.7681   66.0483 P   0  0  1  0  0  0  0  0  0  0  0  0
   20.4293   42.5282   65.8504 C   0  0  0  0  0  0  0  0  0  0  0  0
   18.3934   42.0650   64.4531 C   0  0  0  0  0  0  0  0  0  0  0  0
   19.3149   41.6274   65.3835 C   0  0  0  0  0  0  0  0  0  0  0  0
   19.1885   40.3291   65.8804 C   0  0  0  0  0  0  0  0  0  0  0  0
   20.0882   39.8421   66.8168 N   0  0  0  0  0  0  0  0  0  0  0  0
   18.1885   39.5673   65.4468 N   0  0  0  0  0  0  0  0  0  0  0  0
   17.3340   40.0237   64.5542 C   0  0  0  0  0  0  0  0  0  0  0  0
   17.4256   41.2450   64.0655 N   0  0  0  0  0  0  0  0  0  0  0  0
   25.4337   37.4980   68.4423 O   0  0  0  0  0  0  0  0  0  0  0  0
   28.7028   37.6466   67.4491 O   0  0  0  0  0  0  0  0  0  0  0  0
   23.4393   40.2855   65.1467 S   0  0  0  0  0  0  0  0  0  0  0  0
   21.7563   40.7026   65.0429 C   0  0  0  0  0  0  0  0  0  0  0  0
   27.6443   38.7160   68.4517 O   0  0  0  0  0  0  0  0  0  0  0  0
   28.3160   36.4117   65.2201 O   0  5  0  0  0  0  0  0  0  0  0  0
   21.7112   41.8350   65.7058 N   0  0  0  0  0  0  0  0  0  0  0  0
   26.4779   38.0148   66.2029 O   0  0  0  0  0  0  0  0  0  0  0  0
   28.6970   38.9579   65.2945 O   0  0  0  0  0  0  0  0  0  0  0  0
   22.7922   42.3612   66.2389 C   0  0  2  0  0  0  0  0  0  0  0  0
   23.9701   41.7013   66.0984 C   0  0  2  0  0  0  0  0  0  0  0  0
   25.3429   42.0637   66.6012 C   0  0  0  0  0  0  0  0  0  0  0  0
   26.1568   40.7886   66.8330 C   0  0  0  0  0  0  0  0  0  0  0  0
   25.4286   39.9093   67.6925 O   0  0  0  0  0  0  0  0  0  0  0  0
  1 11  1  0  0  0  0
  3 13  1  1  0  0  0
  3 17  1  0  0  0  0
  3 20  1  0  0  0  0
  3 26  1  0  0  0  0
  4 14  1  0  0  0  0
  4 18  1  6  0  0  0
  4 21  2  0  0  0  0
  4 20  1  0  0  0  0
  5 19  1  0  0  0  0
  5  7  1  0  0  0  0
  6  7  2  0  0  0  0
  6 12  1  0  0  0  0
  7  8  1  0  0  0  0
  8  9  1  0  0  0  0
  8 10  2  0  0  0  0
 10 11  1  0  0  0  0
 11 12  2  0  0  0  0
 14 17  1  0  0  0  0
 15 23  1  0  0  0  0
 15 16  1  0  0  0  0
 16 19  1  0  0  0  0
 19 22  1  0  0  0  0
 22  2  1  1  0  0  0
 22 23  1  0  0  0  0
 23 24  1  6  0  0  0
 24 25  1  0  0  0  0
 25 26  1  0  0  0  0
M  CHG  1  18  -1
M  END
>  <CHROM.1>
10.29420911,-127.85392472,-28.69481792,-53.93429432,171.62659757,-172.50852360
23.61573070,39.87222935,66.14273570,2.88954754,-0.23649231,0.16496951

>  <Name>
ligand

>  <RI>
0

>  <Rbt.Current_Directory>
/home/itssahil/PROJECTS/Mol_Feturizer/New_Systems/rnas/2HOL

>  <Rbt.Executable>
rbdock ($Id: //depot/dev/client3/rdock/2013.1/src/exe/rbdock.cxx#4 $)

>  <Rbt.Library>
libRbt.so (2013.1, Build901 2013/11/27)

>  <Rbt.Parameter_File>
/export/apps/rDock/src/rDock_2013.1_src/data/scripts/dock_solv.prm

>  <Rbt.Receptor>
prm/pocket_docking_5.prm

>  <SCORE>
-19.1424

>  <SCORE.INTER>
-19.2174

>  <SCORE.INTER.CONST>
1

>  <SCORE.INTER.POLAR>
0

>  <SCORE.INTER.ROT>
6

>  <SCORE.INTER.SOLV>
16.798

>  <SCORE.INTER.VDW>
-26.0109

>  <SCORE.INTER.norm>
-0.739129

>  <SCORE.INTRA>
0.0749546

>  <SCORE.INTRA.DIHEDRAL>
-3.94288

>  <SCORE.INTRA.DIHEDRAL.0>
9.33621

>  <SCORE.INTRA.POLAR>
0

>  <SCORE.INTRA.POLAR.0>
0

>  <SCORE.INTRA.REPUL>
0

>  <SCORE.INTRA.REPUL.0>
0

>  <SCORE.INTRA.SOLV>
2.93336

>  <SCORE.INTRA.SOLV.lig_0>
-65.9238

>  <SCORE.INTRA.VDW>
0.579714

>  <SCORE.INTRA.VDW.0>
-0.405582

>  <SCORE.INTRA.norm>
0.00288287

>  <SCORE.RESTR>
0

>  <SCORE.RESTR.CAVITY>
0

>  <SCORE.RESTR.norm>
0

>  <SCORE.SYSTEM>
0

>  <SCORE.SYSTEM.CONST>
0

>  <SCORE.SYSTEM.DIHEDRAL>
0

>  <SCORE.SYSTEM.SOLV>
0

>  <SCORE.SYSTEM.norm>
0

>  <SCORE.heavy>
26

>  <SCORE.norm>
-0.736246

>  <RMSD>
2.878

$$$$
ligand
 OpenBabel11021811443D
libRbt.so/2013.1/901 2013/11/27
 26 28  0  0  0  0  0  0  0  0999 V2000
   16.0313   39.6704   63.7022 C   0  0  0  0  0  0  0  0  0  0  0  0
   23.2506   42.3209   66.1943 C   0  0  0  0  0  0  0  0  0  0  0  0
   27.9440   39.5712   67.2888 P   0  0  1  0  0  0  0  0  0  0  0  0
   26.4277   38.2333   68.9004 P   0  0  1  0  0  0  0  0  0  0  0  0
   20.7270   41.1520   66.5612 C   0  0  0  0  0  0  0  0  0  0  0  0
   18.9510   39.4932   65.9239 C   0  0  0  0  0  0  0  0  0  0  0  0
   19.4841   40.7612   65.8038 C   0  0  0  0  0  0  0  0  0  0  0  0
   18.8422   41.6722   64.9631 C   0  0  0  0  0  0  0  0  0  0  0  0
   19.3380   42.9581   64.8077 N   0  0  0  0  0  0  0  0  0  0  0  0
   17.7508   41.2870   64.3085 N   0  0  0  0  0  0  0  0  0  0  0  0
   17.2734   40.0682   64.4561 C   0  0  0  0  0  0  0  0  0  0  0  0
   17.8561   39.1841   65.2421 N   0  0  0  0  0  0  0  0  0  0  0  0
   29.4161   39.5062   67.4311 O   0  0  0  0  0  0  0  0  0  0  0  0
   26.9144   37.2121   67.8477 O   0  0  0  0  0  0  0  0  0  0  0  0
   23.2163   38.4739   65.4582 S   0  0  0  0  0  0  0  0  0  0  0  0
   21.6394   39.0261   65.9334 C   0  0  0  0  0  0  0  0  0  0  0  0
   27.4247   38.2805   66.4812 O   0  0  0  0  0  0  0  0  0  0  0  0
   26.6458   37.6303   70.3767 O   0  5  0  0  0  0  0  0  0  0  0  0
   21.8448   40.3071   66.1352 N   0  0  0  0  0  0  0  0  0  0  0  0
   27.2650   39.6003   68.7488 O   0  0  0  0  0  0  0  0  0  0  0  0
   24.9259   38.5221   68.6795 O   0  0  0  0  0  0  0  0  0  0  0  0
   23.0309   40.8476   65.9596 C   0  0  2  0  0  0  0  0  0  0  0  0
   24.0555   40.0473   65.5695 C   0  0  2  0  0  0  0  0  0  0  0  0
   25.4973   40.3906   65.3012 C   0  0  0  0  0  0  0  0  0  0  0  0
   26.1169   41.0150   66.5534 C   0  0  0  0  0  0  0  0  0  0  0  0
   27.5401   40.9066   66.4845 O   0  0  0  0  0  0  0  0  0  0  0  0
  1 11  1  0  0  0  0
  3 13  1  1  0  0  0
  3 17  1  0  0  0  0
  3 20  1  0  0  0  0
  3 26  1  0  0  0  0
  4 14  1  0  0  0  0
  4 18  1  1  0  0  0
  4 21  2  0  0  0  0
  4 20  1  0  0  0  0
  5 19  1  0  0  0  0
  5  7  1  0  0  0  0
  6  7  2  0  0  0  0
  6 12  1  0  0  0  0
  7  8  1  0  0  0  0
  8  9  1  0  0  0  0
  8 10  2  0  0  0  0
 10 11  1  0  0  0  0
 11 12  2  0  0  0  0
 14 17  1  0  0  0  0
 15 23  1  0  0  0  0
 15 16  1  0  0  0  0
 16 19  1  0  0  0  0
 19 22  1  0  0  0  0
 22  2  1  1  0  0  0
 22 23  1  0  0  0  0
 23 24  1  6  0  0  0
 24 25  1  0  0  0  0
 25 26  1  0  0  0  0
M  CHG  1  18  -1
M  END
>  <CHROM.1>
-40.86098362,61.91566833,-122.22989790,159.67295405,-94.81421177,-171.54997137
23.60316971,39.73883424,66.52966895,2.83123401,-0.19024857,-0.55354018

>  <Name>
ligand

>  <RI>
0

>  <Rbt.Current_Directory>
/home/itssahil/PROJECTS/Mol_Feturizer/New_Systems/rnas/2HOL

>  <Rbt.Executable>
rbdock ($Id: //depot/dev/client3/rdock/2013.1/src/exe/rbdock.cxx#4 $)

>  <Rbt.Library>
libRbt.so (2013.1, Build901 2013/11/27)

>  <Rbt.Parameter_File>
/export/apps/rDock/src/rDock_2013.1_src/data/scripts/dock_solv.prm

>  <Rbt.Receptor>
prm/pocket_docking_4.prm

>  <SCORE>
-16.4623

>  <SCORE.INTER>
-17.3555

>  <SCORE.INTER.CONST>
1

>  <SCORE.INTER.POLAR>
0

>  <SCORE.INTER.ROT>
6

>  <SCORE.INTER.SOLV>
17.892

>  <SCORE.INTER.VDW>
-25.1343

>  <SCORE.INTER.norm>
-0.66752

>  <SCORE.INTRA>
0.893247

>  <SCORE.INTRA.DIHEDRAL>
1.26276

>  <SCORE.INTRA.DIHEDRAL.0>
9.33621

>  <SCORE.INTRA.POLAR>
0

>  <SCORE.INTRA.POLAR.0>
0

>  <SCORE.INTRA.REPUL>
0

>  <SCORE.INTRA.REPUL.0>
0

>  <SCORE.INTRA.SOLV>
2.02031

>  <SCORE.INTRA.SOLV.lig_0>
-65.9238

>  <SCORE.INTRA.VDW>
-0.748286

>  <SCORE.INTRA.VDW.0>
-0.405582

>  <SCORE.INTRA.norm>
0.0343556

>  <SCORE.RESTR>
0

>  <SCORE.RESTR.CAVITY>
0

>  <SCORE.RESTR.norm>
0

>  <SCORE.SYSTEM>
0

>  <SCORE.SYSTEM.CONST>
0

>  <SCORE.SYSTEM.DIHEDRAL>
0

>  <SCORE.SYSTEM.SOLV>
0

>  <SCORE.SYSTEM.norm>
0

>  <SCORE.heavy>
26

>  <SCORE.norm>
-0.633164

>  <RMSD>
2.888

$$$$
ligand
 OpenBabel11021811443D
libRbt.so/2013.1/901 2013/11/27
 26 28  0  0  0  0  0  0  0  0999 V2000
   16.0330   39.3801   63.7369 C   0  0  0  0  0  0  0  0  0  0  0  0
   22.7446   43.5376   66.7682 C   0  0  0  0  0  0  0  0  0  0  0  0
   26.6458   39.4401   66.7094 P   0  0  1  0  0  0  0  0  0  0  0  0
   29.0477   38.9970   67.5585 P   0  0  1  0  0  0  0  0  0  0  0  0
   20.3451   42.2411   66.1115 C   0  0  0  0  0  0  0  0  0  0  0  0
   18.3684   42.0906   64.5683 C   0  0  0  0  0  0  0  0  0  0  0  0
   19.2041   41.4826   65.4838 C   0  0  0  0  0  0  0  0  0  0  0  0
   18.9655   40.1472   65.8131 C   0  0  0  0  0  0  0  0  0  0  0  0
   19.7758   39.4911   66.7277 N   0  0  0  0  0  0  0  0  0  0  0  0
   17.9453   39.5145   65.2410 N   0  0  0  0  0  0  0  0  0  0  0  0
   17.1755   40.1319   64.3685 C   0  0  0  0  0  0  0  0  0  0  0  0
   17.3740   41.3925   64.0363 N   0  0  0  0  0  0  0  0  0  0  0  0
   26.3588   39.4244   65.2571 O   0  0  0  0  0  0  0  0  0  0  0  0
   28.4530   37.6032   67.2553 O   0  0  0  0  0  0  0  0  0  0  0  0
   23.2935   40.1633   64.8564 S   0  0  0  0  0  0  0  0  0  0  0  0
   21.5999   40.4776   65.0811 C   0  0  0  0  0  0  0  0  0  0  0  0
   26.6751   37.9317   67.2676 O   0  0  0  0  0  0  0  0  0  0  0  0
   30.5005   39.1224   66.8773 O   0  5  0  0  0  0  0  0  0  0  0  0
   21.6148   41.6214   65.7257 N   0  0  0  0  0  0  0  0  0  0  0  0
   28.0756   40.1355   66.9657 O   0  0  0  0  0  0  0  0  0  0  0  0
   29.1793   39.1772   69.0875 O   0  0  0  0  0  0  0  0  0  0  0  0
   22.7441   42.2235   66.0287 C   0  0  2  0  0  0  0  0  0  0  0  0
   23.9106   41.6310   65.6670 C   0  0  2  0  0  0  0  0  0  0  0  0
   25.3299   42.0860   65.8848 C   0  0  0  0  0  0  0  0  0  0  0  0
   25.7971   41.6582   67.2779 C   0  0  0  0  0  0  0  0  0  0  0  0
   25.5006   40.2742   67.4748 O   0  0  0  0  0  0  0  0  0  0  0  0
  1 11  1  0  0  0  0
  3 13  1  6  0  0  0
  3 17  1  0  0  0  0
  3 20  1  0  0  0  0
  3 26  1  0  0  0  0
  4 14  1  0  0  0  0
  4 18  1  6  0  0  0
  4 21  2  0  0  0  0
  4 20  1  0  0  0  0
  5 19  1  0  0  0  0
  5  7  1  0  0  0  0
  6  7  2  0  0  0  0
  6 12  1  0  0  0  0
  7  8  1  0  0  0  0
  8  9  1  0  0  0  0
  8 10  2  0  0  0  0
 10 11  1  0  0  0  0
 11 12  2  0  0  0  0
 14 17  1  0  0  0  0
 15 23  1  0  0  0  0
 15 16  1  0  0  0  0
 16 19  1  0  0  0  0
 19 22  1  0  0  0  0
 22  2  1  1  0  0  0
 22 23  1  0  0  0  0
 23 24  1  6  0  0  0
 24 25  1  0  0  0  0
 25 26  1  0  0  0  0
M  CHG  1  18  -1
M  END
>  <CHROM.1>
-8.19600795,-116.82878920,-95.92407336,49.28591255,79.35324362,-78.43016205
23.79582287,40.26284256,66.16312785,3.00644817,-0.24645495,0.06752794

>  <Name>
ligand

>  <RI>
0

>  <Rbt.Current_Directory>
/home/itssahil/PROJECTS/Mol_Feturizer/New_Systems/rnas/2HOL

>  <Rbt.Executable>
rbdock ($Id: //depot/dev/client3/rdock/2013.1/src/exe/rbdock.cxx#4 $)

>  <Rbt.Library>
libRbt.so (2013.1, Build901 2013/11/27)

>  <Rbt.Parameter_File>
/export/apps/rDock/src/rDock_2013.1_src/data/scripts/dock_solv.prm

>  <Rbt.Receptor>
prm/pocket_docking_3.prm

>  <SCORE>
-16.7004

>  <SCORE.INTER>
-18.1394

>  <SCORE.INTER.CONST>
1

>  <SCORE.INTER.POLAR>
0

>  <SCORE.INTER.ROT>
6

>  <SCORE.INTER.SOLV>
15.7672

>  <SCORE.INTER.VDW>
-24.9487

>  <SCORE.INTER.norm>
-0.69767

>  <SCORE.INTRA>
1.43906

>  <SCORE.INTRA.DIHEDRAL>
-1.91624

>  <SCORE.INTRA.DIHEDRAL.0>
9.33621

>  <SCORE.INTRA.POLAR>
0

>  <SCORE.INTRA.POLAR.0>
0

>  <SCORE.INTRA.REPUL>
0

>  <SCORE.INTRA.REPUL.0>
0

>  <SCORE.INTRA.SOLV>
2.71527

>  <SCORE.INTRA.SOLV.lig_0>
-65.9238

>  <SCORE.INTRA.VDW>
1.03954

>  <SCORE.INTRA.VDW.0>
-0.405582

>  <SCORE.INTRA.norm>
0.0553484

>  <SCORE.RESTR>
0

>  <SCORE.RESTR.CAVITY>
0

>  <SCORE.RESTR.norm>
0

>  <SCORE.SYSTEM>
0

>  <SCORE.SYSTEM.CONST>
0

>  <SCORE.SYSTEM.DIHEDRAL>
0

>  <SCORE.SYSTEM.SOLV>
0

>  <SCORE.SYSTEM.norm>
0

>  <SCORE.heavy>
26

>  <SCORE.norm>
-0.642321

>  <RMSD>
2.907

$$$$
ligand
 OpenBabel11021811443D
libRbt.so/2013.1/901 2013/11/27
 26 28  0  0  0  0  0  0  0  0999 V2000
   20.9744   45.0817   66.1478 C   0  0  0  0  0  0  0  0  0  0  0  0
   22.4796   39.0137   65.2883 C   0  0  0  0  0  0  0  0  0  0  0  0
   27.4915   39.3797   68.4642 P   0  0  1  0  0  0  0  0  0  0  0  0
   28.3637   41.3641   67.0543 P   0  0  1  0  0  0  0  0  0  0  0  0
   19.8771   39.4952   66.2182 C   0  0  0  0  0  0  0  0  0  0  0  0
   21.2003   41.5032   66.9452 C   0  0  0  0  0  0  0  0  0  0  0  0
   20.1664   40.9741   66.1987 C   0  0  0  0  0  0  0  0  0  0  0  0
   19.3959   41.8437   65.4250 C   0  0  0  0  0  0  0  0  0  0  0  0
   18.3456   41.3621   64.6578 N   0  0  0  0  0  0  0  0  0  0  0  0
   19.6801   43.1427   65.4389 N   0  0  0  0  0  0  0  0  0  0  0  0
   20.6793   43.6045   66.1624 C   0  0  0  0  0  0  0  0  0  0  0  0
   21.4257   42.8097   66.9040 N   0  0  0  0  0  0  0  0  0  0  0  0
   28.1820   39.0017   69.7180 O   0  0  0  0  0  0  0  0  0  0  0  0
   27.5461   42.0000   68.2011 O   0  0  0  0  0  0  0  0  0  0  0  0
   21.8891   37.7265   68.9402 S   0  0  0  0  0  0  0  0  0  0  0  0
   20.4485   38.4584   68.3026 C   0  0  0  0  0  0  0  0  0  0  0  0
   26.5093   40.6223   68.7454 O   0  0  0  0  0  0  0  0  0  0  0  0
   29.7932   42.0952   66.9423 O   0  5  0  0  0  0  0  0  0  0  0  0
   20.8324   38.8219   67.1008 N   0  0  0  0  0  0  0  0  0  0  0  0
   28.5830   39.7978   67.3563 O   0  0  0  0  0  0  0  0  0  0  0  0
   27.5958   41.5294   65.7236 O   0  0  0  0  0  0  0  0  0  0  0  0
   22.0542   38.5913   66.6719 C   0  0  2  0  0  0  0  0  0  0  0  0
   22.9265   37.9706   67.5063 C   0  0  2  0  0  0  0  0  0  0  0  0
   24.3668   37.5899   67.2840 C   0  0  0  0  0  0  0  0  0  0  0  0
   25.2634   38.4126   68.2120 C   0  0  0  0  0  0  0  0  0  0  0  0
   26.6339   38.1282   67.9245 O   0  0  0  0  0  0  0  0  0  0  0  0
  1 11  1  0  0  0  0
  3 13  1  1  0  0  0
  3 17  1  0  0  0  0
  3 20  1  0  0  0  0
  3 26  1  0  0  0  0
  4 14  1  0  0  0  0
  4 18  1  6  0  0  0
  4 21  2  0  0  0  0
  4 20  1  0  0  0  0
  5 19  1  0  0  0  0
  5  7  1  0  0  0  0
  6  7  2  0  0  0  0
  6 12  1  0  0  0  0
  7  8  1  0  0  0  0
  8  9  1  0  0  0  0
  8 10  2  0  0  0  0
 10 11  1  0  0  0  0
 11 12  2  0  0  0  0
 14 17  1  0  0  0  0
 15 23  1  0  0  0  0
 15 16  1  0  0  0  0
 16 19  1  0  0  0  0
 19 22  1  0  0  0  0
 22  2  1  1  0  0  0
 22 23  1  0  0  0  0
 23 24  1  6  0  0  0
 24 25  1  0  0  0  0
 25 26  1  0  0  0  0
M  CHG  1  18  -1
M  END
>  <CHROM.1>
102.40908969,-0.21108703,-66.65751813,-175.38829613,157.98588618,104.85475846
24.06669278,40.28856821,67.22571452,-2.98083522,0.14651321,2.76885128

>  <Name>
ligand

>  <RI>
0

>  <Rbt.Current_Directory>
/home/itssahil/PROJECTS/Mol_Feturizer/New_Systems/rnas/2HOL

>  <Rbt.Executable>
rbdock ($Id: //depot/dev/client3/rdock/2013.1/src/exe/rbdock.cxx#4 $)

>  <Rbt.Library>
libRbt.so (2013.1, Build901 2013/11/27)

>  <Rbt.Parameter_File>
/export/apps/rDock/src/rDock_2013.1_src/data/scripts/dock_solv.prm

>  <Rbt.Receptor>
prm/pocket_docking_3.prm

>  <SCORE>
-11.5886

>  <SCORE.INTER>
-11.6708

>  <SCORE.INTER.CONST>
1

>  <SCORE.INTER.POLAR>
0

>  <SCORE.INTER.ROT>
6

>  <SCORE.INTER.SOLV>
15.9045

>  <SCORE.INTER.VDW>
-20.682

>  <SCORE.INTER.norm>
-0.448876

>  <SCORE.INTRA>
0.0622726

>  <SCORE.INTRA.DIHEDRAL>
0.0726174

>  <SCORE.INTRA.DIHEDRAL.0>
9.33621

>  <SCORE.INTRA.POLAR>
0

>  <SCORE.INTRA.POLAR.0>
0

>  <SCORE.INTRA.REPUL>
0

>  <SCORE.INTRA.REPUL.0>
0

>  <SCORE.INTRA.SOLV>
-0.667738

>  <SCORE.INTRA.SOLV.lig_0>
-65.9238

>  <SCORE.INTRA.VDW>
0.359833

>  <SCORE.INTRA.VDW.0>
-0.405582

>  <SCORE.INTRA.norm>
0.0023951

>  <SCORE.RESTR>
0.019931

>  <SCORE.RESTR.CAVITY>
0.019931

>  <SCORE.RESTR.norm>
0.000766576

>  <SCORE.SYSTEM>
0

>  <SCORE.SYSTEM.CONST>
0

>  <SCORE.SYSTEM.DIHEDRAL>
0

>  <SCORE.SYSTEM.SOLV>
0

>  <SCORE.SYSTEM.norm>
0

>  <SCORE.heavy>
26

>  <SCORE.norm>
-0.445714

>  <RMSD>
2.910

$$$$
ligand
 OpenBabel11021811443D
libRbt.so/2013.1/901 2013/11/27
 26 28  0  0  0  0  0  0  0  0999 V2000
   19.6930   44.4096   65.8863 C   0  0  0  0  0  0  0  0  0  0  0  0
   24.1205   38.3443   65.7976 C   0  0  0  0  0  0  0  0  0  0  0  0
   27.9001   39.6063   69.6047 P   0  0  1  0  0  0  0  0  0  0  0  0
   28.0990   41.3853   67.7387 P   0  0  1  0  0  0  0  0  0  0  0  0
   21.4112   38.9969   65.4762 C   0  0  0  0  0  0  0  0  0  0  0  0
   21.8672   41.4522   65.7504 C   0  0  0  0  0  0  0  0  0  0  0  0
   20.9550   40.4291   65.5847 C   0  0  0  0  0  0  0  0  0  0  0  0
   19.5992   40.7551   65.5198 C   0  0  0  0  0  0  0  0  0  0  0  0
   18.6431   39.7641   65.3547 N   0  0  0  0  0  0  0  0  0  0  0  0
   19.2371   42.0303   65.6247 N   0  0  0  0  0  0  0  0  0  0  0  0
   20.1416   42.9757   65.7772 C   0  0  0  0  0  0  0  0  0  0  0  0
   21.4297   42.7009   65.8425 N   0  0  0  0  0  0  0  0  0  0  0  0
   29.0227   39.3907   70.5453 O   0  0  0  0  0  0  0  0  0  0  0  0
   27.7394   42.1698   69.0206 O   0  0  0  0  0  0  0  0  0  0  0  0
   22.0236   37.8595   69.0702 S   0  0  0  0  0  0  0  0  0  0  0  0
   21.0201   38.4304   67.7724 C   0  0  0  0  0  0  0  0  0  0  0  0
   27.0398   40.8806   70.0780 O   0  0  0  0  0  0  0  0  0  0  0  0
   29.3513   42.0874   67.0112 O   0  5  0  0  0  0  0  0  0  0  0  0
   21.8786   38.5324   66.7842 N   0  0  0  0  0  0  0  0  0  0  0  0
   28.4824   39.8704   68.1266 O   0  0  0  0  0  0  0  0  0  0  0  0
   26.8852   41.3806   66.7824 O   0  0  0  0  0  0  0  0  0  0  0  0
   23.1470   38.2231   66.9428 C   0  0  2  0  0  0  0  0  0  0  0  0
   23.5620   37.7993   68.1637 C   0  0  2  0  0  0  0  0  0  0  0  0
   24.9359   37.3887   68.6249 C   0  0  0  0  0  0  0  0  0  0  0  0
   25.8108   38.6322   68.7989 C   0  0  0  0  0  0  0  0  0  0  0  0
   26.9584   38.3002   69.5831 O   0  0  0  0  0  0  0  0  0  0  0  0
  1 11  1  0  0  0  0
  3 13  1  1  0  0  0
  3 17  1  0  0  0  0
  3 20  1  0  0  0  0
  3 26  1  0  0  0  0
  4 14  1  0  0  0  0
  4 18  1  6  0  0  0
  4 21  2  0  0  0  0
  4 20  1  0  0  0  0
  5 19  1  0  0  0  0
  5  7  1  0  0  0  0
  6  7  2  0  0  0  0
  6 12  1  0  0  0  0
  7  8  1  0  0  0  0
  8  9  1  0  0  0  0
  8 10  2  0  0  0  0
 10 11  1  0  0  0  0
 11 12  2  0  0  0  0
 14 17  1  0  0  0  0
 15 23  1  0  0  0  0
 15 16  1  0  0  0  0
 16 19  1  0  0  0  0
 19 22  1  0  0  0  0
 22  2  1  1  0  0  0
 22 23  1  0  0  0  0
 23 24  1  6  0  0  0
 24 25  1  0  0  0  0
 25 26  1  0  0  0  0
M  CHG  1  18  -1
M  END
>  <CHROM.1>
65.49916299,71.69567997,-105.45989419,163.59352100,174.58129771,172.67230714
24.34232514,40.10059694,67.60407316,-2.94041118,0.29957624,2.72598606

>  <Name>
ligand

>  <RI>
0

>  <Rbt.Current_Directory>
/home/itssahil/PROJECTS/Mol_Feturizer/New_Systems/rnas/2HOL

>  <Rbt.Executable>
rbdock ($Id: //depot/dev/client3/rdock/2013.1/src/exe/rbdock.cxx#4 $)

>  <Rbt.Library>
libRbt.so (2013.1, Build901 2013/11/27)

>  <Rbt.Parameter_File>
/export/apps/rDock/src/rDock_2013.1_src/data/scripts/dock_solv.prm

>  <Rbt.Receptor>
prm/pocket_docking_3.prm

>  <SCORE>
-19.1522

>  <SCORE.INTER>
-15.8471

>  <SCORE.INTER.CONST>
1

>  <SCORE.INTER.POLAR>
0

>  <SCORE.INTER.ROT>
6

>  <SCORE.INTER.SOLV>
14.2042

>  <SCORE.INTER.VDW>
-22.8995

>  <SCORE.INTER.norm>
-0.609505

>  <SCORE.INTRA>
-3.30508

>  <SCORE.INTRA.DIHEDRAL>
-3.49336

>  <SCORE.INTRA.DIHEDRAL.0>
9.33621

>  <SCORE.INTRA.POLAR>
0

>  <SCORE.INTRA.POLAR.0>
0

>  <SCORE.INTRA.REPUL>
0

>  <SCORE.INTRA.REPUL.0>
0

>  <SCORE.INTRA.SOLV>
0.834745

>  <SCORE.INTRA.SOLV.lig_0>
-65.9238

>  <SCORE.INTRA.VDW>
-1.97577

>  <SCORE.INTRA.VDW.0>
-0.405582

>  <SCORE.INTRA.norm>
-0.127118

>  <SCORE.RESTR>
0

>  <SCORE.RESTR.CAVITY>
0

>  <SCORE.RESTR.norm>
0

>  <SCORE.SYSTEM>
0

>  <SCORE.SYSTEM.CONST>
0

>  <SCORE.SYSTEM.DIHEDRAL>
0

>  <SCORE.SYSTEM.SOLV>
0

>  <SCORE.SYSTEM.norm>
0

>  <SCORE.heavy>
26

>  <SCORE.norm>
-0.736623

>  <RMSD>
2.934

$$$$
ligand
 OpenBabel11021811443D
libRbt.so/2013.1/901 2013/11/27
 26 28  0  0  0  0  0  0  0  0999 V2000
   19.6750   44.3960   65.8916 C   0  0  0  0  0  0  0  0  0  0  0  0
   24.1700   38.3559   65.8737 C   0  0  0  0  0  0  0  0  0  0  0  0
   27.9063   39.5953   69.6359 P   0  0  1  0  0  0  0  0  0  0  0  0
   28.0992   41.3481   67.7446 P   0  0  1  0  0  0  0  0  0  0  0  0
   21.4689   39.0074   65.4874 C   0  0  0  0  0  0  0  0  0  0  0  0
   21.8901   41.4687   65.7642 C   0  0  0  0  0  0  0  0  0  0  0  0
   20.9927   40.4332   65.5943 C   0  0  0  0  0  0  0  0  0  0  0  0
   19.6329   40.7407   65.5237 C   0  0  0  0  0  0  0  0  0  0  0  0
   18.6912   39.7367   65.3542 N   0  0  0  0  0  0  0  0  0  0  0  0
   19.2528   42.0108   65.6273 N   0  0  0  0  0  0  0  0  0  0  0  0
   20.1436   42.9684   65.7840 C   0  0  0  0  0  0  0  0  0  0  0  0
   21.4351   42.7113   65.8547 N   0  0  0  0  0  0  0  0  0  0  0  0
   29.0372   39.3831   70.5674 O   0  0  0  0  0  0  0  0  0  0  0  0
   27.7594   42.1521   69.0198 O   0  0  0  0  0  0  0  0  0  0  0  0
   21.9921   37.8540   69.0904 S   0  0  0  0  0  0  0  0  0  0  0  0
   21.0209   38.4300   67.7704 C   0  0  0  0  0  0  0  0  0  0  0  0
   27.0611   40.8825   70.1014 O   0  0  0  0  0  0  0  0  0  0  0  0
   29.3492   42.0306   66.9948 O   0  5  0  0  0  0  0  0  0  0  0  0
   21.9038   38.5373   66.8045 N   0  0  0  0  0  0  0  0  0  0  0  0
   28.4749   39.8353   68.1484 O   0  0  0  0  0  0  0  0  0  0  0  0
   26.8754   41.3405   66.8013 O   0  0  0  0  0  0  0  0  0  0  0  0
   23.1682   38.2285   66.9935 C   0  0  2  0  0  0  0  0  0  0  0  0
   23.5528   37.7994   68.2225 C   0  0  2  0  0  0  0  0  0  0  0  0
   24.9151   37.3880   68.7161 C   0  0  0  0  0  0  0  0  0  0  0  0
   25.8027   38.6261   68.8620 C   0  0  0  0  0  0  0  0  0  0  0  0
   26.9543   38.2966   69.6414 O   0  0  0  0  0  0  0  0  0  0  0  0
  1 11  1  0  0  0  0
  3 13  1  1  0  0  0
  3 17  1  0  0  0  0
  3 20  1  0  0  0  0
  3 26  1  0  0  0  0
  4 14  1  0  0  0  0
  4 18  1  6  0  0  0
  4 21  2  0  0  0  0
  4 20  1  0  0  0  0
  5 19  1  0  0  0  0
  5  7  1  0  0  0  0
  6  7  2  0  0  0  0
  6 12  1  0  0  0  0
  7  8  1  0  0  0  0
  8  9  1  0  0  0  0
  8 10  2  0  0  0  0
 10 11  1  0  0  0  0
 11 12  2  0  0  0  0
 14 17  1  0  0  0  0
 15 23  1  0  0  0  0
 15 16  1  0  0  0  0
 16 19  1  0  0  0  0
 19 22  1  0  0  0  0
 22  2  1  1  0  0  0
 22 23  1  0  0  0  0
 23 24  1  6  0  0  0
 24 25  1  0  0  0  0
 25 26  1  0  0  0  0
M  CHG  1  18  -1
M  END
>  <CHROM.1>
64.80716518,73.18773680,-107.80794919,165.20558174,174.69897117,172.82817327
24.35002862,40.08962577,67.62693611,-2.93300668,0.29758218,2.71458875

>  <Name>
ligand

>  <RI>
0

>  <Rbt.Current_Directory>
/home/itssahil/PROJECTS/Mol_Feturizer/New_Systems/rnas/2HOL

>  <Rbt.Executable>
rbdock ($Id: //depot/dev/client3/rdock/2013.1/src/exe/rbdock.cxx#4 $)

>  <Rbt.Library>
libRbt.so (2013.1, Build901 2013/11/27)

>  <Rbt.Parameter_File>
/export/apps/rDock/src/rDock_2013.1_src/data/scripts/dock_solv.prm

>  <Rbt.Receptor>
prm/pocket_docking_3.prm

>  <SCORE>
-19.161

>  <SCORE.INTER>
-15.833

>  <SCORE.INTER.CONST>
1

>  <SCORE.INTER.POLAR>
0

>  <SCORE.INTER.ROT>
6

>  <SCORE.INTER.SOLV>
14.2355

>  <SCORE.INTER.VDW>
-22.9005

>  <SCORE.INTER.norm>
-0.608961

>  <SCORE.INTRA>
-3.32803

>  <SCORE.INTRA.DIHEDRAL>
-3.69796

>  <SCORE.INTRA.DIHEDRAL.0>
9.33621

>  <SCORE.INTRA.POLAR>
0

>  <SCORE.INTRA.POLAR.0>
0

>  <SCORE.INTRA.REPUL>
0

>  <SCORE.INTRA.REPUL.0>
0

>  <SCORE.INTRA.SOLV>
0.929066

>  <SCORE.INTRA.SOLV.lig_0>
-65.9238

>  <SCORE.INTRA.VDW>
-1.94358

>  <SCORE.INTRA.VDW.0>
-0.405582

>  <SCORE.INTRA.norm>
-0.128001

>  <SCORE.RESTR>
0

>  <SCORE.RESTR.CAVITY>
0

>  <SCORE.RESTR.norm>
0

>  <SCORE.SYSTEM>
0

>  <SCORE.SYSTEM.CONST>
0

>  <SCORE.SYSTEM.DIHEDRAL>
0

>  <SCORE.SYSTEM.SOLV>
0

>  <SCORE.SYSTEM.norm>
0

>  <SCORE.heavy>
26

>  <SCORE.norm>
-0.736962

>  <RMSD>
2.940

$$$$
ligand
 OpenBabel11021811443D
libRbt.so/2013.1/901 2013/11/27
 26 28  0  0  0  0  0  0  0  0999 V2000
   19.7023   44.3860   65.9080 C   0  0  0  0  0  0  0  0  0  0  0  0
   24.2312   38.3770   65.9017 C   0  0  0  0  0  0  0  0  0  0  0  0
   27.9340   39.6446   69.6224 P   0  0  1  0  0  0  0  0  0  0  0  0
   28.0852   41.4043   67.7337 P   0  0  1  0  0  0  0  0  0  0  0  0
   21.5288   39.0092   65.4929 C   0  0  0  0  0  0  0  0  0  0  0  0
   21.9368   41.4751   65.7475 C   0  0  0  0  0  0  0  0  0  0  0  0
   21.0440   40.4319   65.6027 C   0  0  0  0  0  0  0  0  0  0  0  0
   19.6805   40.7285   65.5603 C   0  0  0  0  0  0  0  0  0  0  0  0
   18.7432   39.7165   65.4167 N   0  0  0  0  0  0  0  0  0  0  0  0
   19.2930   41.9962   65.6655 N   0  0  0  0  0  0  0  0  0  0  0  0
   20.1795   42.9614   65.7977 C   0  0  0  0  0  0  0  0  0  0  0  0
   21.4742   42.7146   65.8415 N   0  0  0  0  0  0  0  0  0  0  0  0
   29.0758   39.4467   70.5438 O   0  0  0  0  0  0  0  0  0  0  0  0
   27.7445   42.2003   69.0138 O   0  0  0  0  0  0  0  0  0  0  0  0
   22.0263   37.8388   69.0940 S   0  0  0  0  0  0  0  0  0  0  0  0
   21.0634   38.4148   67.7680 C   0  0  0  0  0  0  0  0  0  0  0  0
   27.0741   40.9181   70.0981 O   0  0  0  0  0  0  0  0  0  0  0  0
   29.3187   42.1067   66.9751 O   0  5  0  0  0  0  0  0  0  0  0  0
   21.9547   38.5349   66.8115 N   0  0  0  0  0  0  0  0  0  0  0  0
   28.4864   39.8963   68.1307 O   0  0  0  0  0  0  0  0  0  0  0  0
   26.8536   41.3810   66.8009 O   0  0  0  0  0  0  0  0  0  0  0  0
   23.2196   38.2350   67.0109 C   0  0  2  0  0  0  0  0  0  0  0  0
   23.5958   37.8018   68.2411 C   0  0  2  0  0  0  0  0  0  0  0  0
   24.9565   37.3983   68.7455 C   0  0  0  0  0  0  0  0  0  0  0  0
   25.8586   38.6317   68.8285 C   0  0  0  0  0  0  0  0  0  0  0  0
   27.0011   38.3320   69.6328 O   0  0  0  0  0  0  0  0  0  0  0  0
  1 11  1  0  0  0  0
  3 13  1  1  0  0  0
  3 17  1  0  0  0  0
  3 20  1  0  0  0  0
  3 26  1  0  0  0  0
  4 14  1  0  0  0  0
  4 18  1  6  0  0  0
  4 21  2  0  0  0  0
  4 20  1  0  0  0  0
  5 19  1  0  0  0  0
  5  7  1  0  0  0  0
  6  7  2  0  0  0  0
  6 12  1  0  0  0  0
  7  8  1  0  0  0  0
  8  9  1  0  0  0  0
  8 10  2  0  0  0  0
 10 11  1  0  0  0  0
 11 12  2  0  0  0  0
 14 17  1  0  0  0  0
 15 23  1  0  0  0  0
 15 16  1  0  0  0  0
 16 19  1  0  0  0  0
 19 22  1  0  0  0  0
 22  2  1  1  0  0  0
 22 23  1  0  0  0  0
 23 24  1  6  0  0  0
 24 25  1  0  0  0  0
 25 26  1  0  0  0  0
M  CHG  1  18  -1
M  END
>  <CHROM.1>
64.97192252,75.04326203,-111.13070994,164.31898466,177.50897469,174.64981606
24.37899391,40.10932708,67.62934468,-2.94076723,0.29871532,2.71724167

>  <Name>
ligand

>  <RI>
0

>  <Rbt.Current_Directory>
/home/itssahil/PROJECTS/Mol_Feturizer/New_Systems/rnas/2HOL

>  <Rbt.Executable>
rbdock ($Id: //depot/dev/client3/rdock/2013.1/src/exe/rbdock.cxx#4 $)

>  <Rbt.Library>
libRbt.so (2013.1, Build901 2013/11/27)

>  <Rbt.Parameter_File>
/export/apps/rDock/src/rDock_2013.1_src/data/scripts/dock_solv.prm

>  <Rbt.Receptor>
prm/pocket_docking_3.prm

>  <SCORE>
-19.3143

>  <SCORE.INTER>
-16.0373

>  <SCORE.INTER.CONST>
1

>  <SCORE.INTER.POLAR>
0

>  <SCORE.INTER.ROT>
6

>  <SCORE.INTER.SOLV>
14.2042

>  <SCORE.INTER.VDW>
-23.0263

>  <SCORE.INTER.norm>
-0.616821

>  <SCORE.INTRA>
-3.29383

>  <SCORE.INTRA.DIHEDRAL>
-3.77955

>  <SCORE.INTRA.DIHEDRAL.0>
9.33621

>  <SCORE.INTRA.POLAR>
0

>  <SCORE.INTRA.POLAR.0>
0

>  <SCORE.INTRA.REPUL>
0

>  <SCORE.INTRA.REPUL.0>
0

>  <SCORE.INTRA.SOLV>
1.02998

>  <SCORE.INTRA.SOLV.lig_0>
-65.9238

>  <SCORE.INTRA.VDW>
-1.91905

>  <SCORE.INTRA.VDW.0>
-0.405582

>  <SCORE.INTRA.norm>
-0.126686

>  <SCORE.RESTR>
0.0168783

>  <SCORE.RESTR.CAVITY>
0.0168783

>  <SCORE.RESTR.norm>
0.000649166

>  <SCORE.SYSTEM>
0

>  <SCORE.SYSTEM.CONST>
0

>  <SCORE.SYSTEM.DIHEDRAL>
0

>  <SCORE.SYSTEM.SOLV>
0

>  <SCORE.SYSTEM.norm>
0

>  <SCORE.heavy>
26

>  <SCORE.norm>
-0.742858

>  <RMSD>
2.949

$$$$
ligand
 OpenBabel11021811443D
libRbt.so/2013.1/901 2013/11/27
 26 28  0  0  0  0  0  0  0  0999 V2000
   16.3376   39.8050   63.8315 C   0  0  0  0  0  0  0  0  0  0  0  0
   21.6992   39.5751   69.0199 C   0  0  0  0  0  0  0  0  0  0  0  0
   26.6738   39.3459   68.7945 P   0  0  1  0  0  0  0  0  0  0  0  0
   26.3998   41.4071   67.2573 P   0  0  1  0  0  0  0  0  0  0  0  0
   21.0899   41.0472   66.7110 C   0  0  0  0  0  0  0  0  0  0  0  0
   19.2502   39.4714   66.0446 C   0  0  0  0  0  0  0  0  0  0  0  0
   19.8320   40.7198   65.9482 C   0  0  0  0  0  0  0  0  0  0  0  0
   19.2254   41.6712   65.1263 C   0  0  0  0  0  0  0  0  0  0  0  0
   19.7708   42.9396   64.9950 N   0  0  0  0  0  0  0  0  0  0  0  0
   18.1192   41.3415   64.4661 N   0  0  0  0  0  0  0  0  0  0  0  0
   17.5949   40.1396   64.5909 C   0  0  0  0  0  0  0  0  0  0  0  0
   18.1435   39.2184   65.3587 N   0  0  0  0  0  0  0  0  0  0  0  0
   27.8422   38.4512   68.6328 O   0  0  0  0  0  0  0  0  0  0  0  0
   27.4168   41.8319   68.3406 O   0  0  0  0  0  0  0  0  0  0  0  0
   23.5695   38.2789   65.8318 S   0  0  0  0  0  0  0  0  0  0  0  0
   22.5618   39.6402   65.4462 C   0  0  0  0  0  0  0  0  0  0  0  0
   27.0994   40.6348   69.6579 O   0  0  0  0  0  0  0  0  0  0  0  0
   26.9747   41.7834   65.8019 O   0  5  0  0  0  0  0  0  0  0  0  0
   22.0278   39.9269   66.6109 N   0  0  0  0  0  0  0  0  0  0  0  0
   26.1555   39.8179   67.3447 O   0  0  0  0  0  0  0  0  0  0  0  0
   25.0634   42.1471   67.4895 O   0  0  0  0  0  0  0  0  0  0  0  0
   22.3198   39.2325   67.6890 C   0  0  2  0  0  0  0  0  0  0  0  0
   23.1874   38.1948   67.5750 C   0  0  2  0  0  0  0  0  0  0  0  0
   23.6909   37.2407   68.6262 C   0  0  0  0  0  0  0  0  0  0  0  0
   25.2065   37.3940   68.7736 C   0  0  0  0  0  0  0  0  0  0  0  0
   25.4933   38.5565   69.5536 O   0  0  0  0  0  0  0  0  0  0  0  0
  1 11  1  0  0  0  0
  3 13  1  6  0  0  0
  3 17  1  0  0  0  0
  3 20  1  0  0  0  0
  3 26  1  0  0  0  0
  4 14  1  0  0  0  0
  4 18  1  6  0  0  0
  4 21  2  0  0  0  0
  4 20  1  0  0  0  0
  5 19  1  0  0  0  0
  5  7  1  0  0  0  0
  6  7  2  0  0  0  0
  6 12  1  0  0  0  0
  7  8  1  0  0  0  0
  8  9  1  0  0  0  0
  8 10  2  0  0  0  0
 10 11  1  0  0  0  0
 11 12  2  0  0  0  0
 14 17  1  0  0  0  0
 15 23  1  0  0  0  0
 15 16  1  0  0  0  0
 16 19  1  0  0  0  0
 19 22  1  0  0  0  0
 22  2  1  6  0  0  0
 22 23  1  0  0  0  0
 23 24  1  1  0  0  0
 24 25  1  0  0  0  0
 25 26  1  0  0  0  0
M  CHG  1  18  -1
M  END
>  <CHROM.1>
67.11919701,43.38681017,62.32707963,78.39635356,-134.57605570,-57.17795257
23.31663829,39.96804438,67.01566939,2.93358622,-0.32919194,-0.42996931

>  <Name>
ligand

>  <RI>
0

>  <Rbt.Current_Directory>
/home/itssahil/PROJECTS/Mol_Feturizer/New_Systems/rnas/2HOL

>  <Rbt.Executable>
rbdock ($Id: //depot/dev/client3/rdock/2013.1/src/exe/rbdock.cxx#4 $)

>  <Rbt.Library>
libRbt.so (2013.1, Build901 2013/11/27)

>  <Rbt.Parameter_File>
/export/apps/rDock/src/rDock_2013.1_src/data/scripts/dock_solv.prm

>  <Rbt.Receptor>
prm/pocket_docking_3.prm

>  <SCORE>
-19.7674

>  <SCORE.INTER>
-18.1179

>  <SCORE.INTER.CONST>
1

>  <SCORE.INTER.POLAR>
0

>  <SCORE.INTER.ROT>
6

>  <SCORE.INTER.SOLV>
15.8791

>  <SCORE.INTER.VDW>
-24.9717

>  <SCORE.INTER.norm>
-0.696844

>  <SCORE.INTRA>
-1.64946

>  <SCORE.INTRA.DIHEDRAL>
3.22004

>  <SCORE.INTRA.DIHEDRAL.0>
9.33621

>  <SCORE.INTRA.POLAR>
0

>  <SCORE.INTRA.POLAR.0>
0

>  <SCORE.INTRA.REPUL>
0

>  <SCORE.INTRA.REPUL.0>
0

>  <SCORE.INTRA.SOLV>
0.2473

>  <SCORE.INTRA.SOLV.lig_0>
-65.9238

>  <SCORE.INTRA.VDW>
-3.38313

>  <SCORE.INTRA.VDW.0>
-0.405582

>  <SCORE.INTRA.norm>
-0.0634407

>  <SCORE.RESTR>
0

>  <SCORE.RESTR.CAVITY>
0

>  <SCORE.RESTR.norm>
0

>  <SCORE.SYSTEM>
0

>  <SCORE.SYSTEM.CONST>
0

>  <SCORE.SYSTEM.DIHEDRAL>
0

>  <SCORE.SYSTEM.SOLV>
0

>  <SCORE.SYSTEM.norm>
0

>  <SCORE.heavy>
26

>  <SCORE.norm>
-0.760285

>  <RMSD>
2.960

$$$$
ligand
 OpenBabel11021811443D
libRbt.so/2013.1/901 2013/11/27
 26 28  0  0  0  0  0  0  0  0999 V2000
   16.3143   39.6222   64.1242 C   0  0  0  0  0  0  0  0  0  0  0  0
   23.3918   42.8055   65.2563 C   0  0  0  0  0  0  0  0  0  0  0  0
   27.1420   40.5356   66.7889 P   0  0  1  0  0  0  0  0  0  0  0  0
   27.7350   42.2134   68.6651 P   0  0  1  0  0  0  0  0  0  0  0  0
   21.2023   41.4659   66.3883 C   0  0  0  0  0  0  0  0  0  0  0  0
   19.2583   41.7072   64.8153 C   0  0  0  0  0  0  0  0  0  0  0  0
   19.9085   40.9767   65.7899 C   0  0  0  0  0  0  0  0  0  0  0  0
   19.3373   39.7732   66.2068 C   0  0  0  0  0  0  0  0  0  0  0  0
   19.9508   39.0027   67.1832 N   0  0  0  0  0  0  0  0  0  0  0  0
   18.1922   39.3788   65.6577 N   0  0  0  0  0  0  0  0  0  0  0  0
   17.6078   40.1049   64.7269 C   0  0  0  0  0  0  0  0  0  0  0  0
   18.1213   41.2462   64.3114 N   0  0  0  0  0  0  0  0  0  0  0  0
   26.6347   39.1881   67.1332 O   0  0  0  0  0  0  0  0  0  0  0  0
   26.1983   42.2846   68.5177 O   0  0  0  0  0  0  0  0  0  0  0  0
   23.7668   38.9074   65.1788 S   0  0  0  0  0  0  0  0  0  0  0  0
   22.2627   39.3688   65.9152 C   0  0  0  0  0  0  0  0  0  0  0  0
   25.9373   41.5990   66.8651 O   0  0  0  0  0  0  0  0  0  0  0  0
   28.1196   42.0423   70.2185 O   0  5  0  0  0  0  0  0  0  0  0  0
   22.3162   40.6792   65.8540 N   0  0  0  0  0  0  0  0  0  0  0  0
   28.2962   40.9561   67.8304 O   0  0  0  0  0  0  0  0  0  0  0  0
   28.3637   43.5154   68.1199 O   0  0  0  0  0  0  0  0  0  0  0  0
   23.3458   41.2996   65.3204 C   0  0  2  0  0  0  0  0  0  0  0  0
   24.3705   40.5534   64.8351 C   0  0  2  0  0  0  0  0  0  0  0  0
   25.6566   40.9909   64.1844 C   0  0  0  0  0  0  0  0  0  0  0  0
   26.7460   39.9497   64.4515 C   0  0  0  0  0  0  0  0  0  0  0  0
   27.7486   40.5167   65.2973 O   0  0  0  0  0  0  0  0  0  0  0  0
  1 11  1  0  0  0  0
  3 13  1  1  0  0  0
  3 17  1  0  0  0  0
  3 20  1  0  0  0  0
  3 26  1  0  0  0  0
  4 14  1  0  0  0  0
  4 18  1  1  0  0  0
  4 21  2  0  0  0  0
  4 20  1  0  0  0  0
  5 19  1  0  0  0  0
  5  7  1  0  0  0  0
  6  7  2  0  0  0  0
  6 12  1  0  0  0  0
  7  8  1  0  0  0  0
  8  9  1  0  0  0  0
  8 10  2  0  0  0  0
 10 11  1  0  0  0  0
 11 12  2  0  0  0  0
 14 17  1  0  0  0  0
 15 23  1  0  0  0  0
 15 16  1  0  0  0  0
 16 19  1  0  0  0  0
 19 22  1  0  0  0  0
 22  2  1  1  0  0  0
 22 23  1  0  0  0  0
 23 24  1  6  0  0  0
 24 25  1  0  0  0  0
 25 26  1  0  0  0  0
M  CHG  1  18  -1
M  END
>  <CHROM.1>
-52.28186251,-105.31237219,-28.99743074,-112.99845536,76.51700802,51.62685443
23.92582461,40.79317276,66.29788387,2.82931245,0.04795360,-2.20447200

>  <Name>
ligand

>  <RI>
0

>  <Rbt.Current_Directory>
/home/itssahil/PROJECTS/Mol_Feturizer/New_Systems/rnas/2HOL

>  <Rbt.Executable>
rbdock ($Id: //depot/dev/client3/rdock/2013.1/src/exe/rbdock.cxx#4 $)

>  <Rbt.Library>
libRbt.so (2013.1, Build901 2013/11/27)

>  <Rbt.Parameter_File>
/export/apps/rDock/src/rDock_2013.1_src/data/scripts/dock_solv.prm

>  <Rbt.Receptor>
prm/pocket_docking_5.prm

>  <SCORE>
-11.6508

>  <SCORE.INTER>
-13.46

>  <SCORE.INTER.CONST>
1

>  <SCORE.INTER.POLAR>
0

>  <SCORE.INTER.ROT>
6

>  <SCORE.INTER.SOLV>
17.0429

>  <SCORE.INTER.VDW>
-22.2543

>  <SCORE.INTER.norm>
-0.517691

>  <SCORE.INTRA>
1.78034

>  <SCORE.INTRA.DIHEDRAL>
2.21359

>  <SCORE.INTRA.DIHEDRAL.0>
9.33621

>  <SCORE.INTRA.POLAR>
0

>  <SCORE.INTRA.POLAR.0>
0

>  <SCORE.INTRA.REPUL>
0

>  <SCORE.INTRA.REPUL.0>
0

>  <SCORE.INTRA.SOLV>
1.81558

>  <SCORE.INTRA.SOLV.lig_0>
-65.9238

>  <SCORE.INTRA.VDW>
-0.234238

>  <SCORE.INTRA.VDW.0>
-0.405582

>  <SCORE.INTRA.norm>
0.0684748

>  <SCORE.RESTR>
0.0287741

>  <SCORE.RESTR.CAVITY>
0.0287741

>  <SCORE.RESTR.norm>
0.0011067

>  <SCORE.SYSTEM>
0

>  <SCORE.SYSTEM.CONST>
0

>  <SCORE.SYSTEM.DIHEDRAL>
0

>  <SCORE.SYSTEM.SOLV>
0

>  <SCORE.SYSTEM.norm>
0

>  <SCORE.heavy>
26

>  <SCORE.norm>
-0.448109

>  <RMSD>
2.994

$$$$
ligand
 OpenBabel11021811443D
libRbt.so/2013.1/901 2013/11/27
 26 28  0  0  0  0  0  0  0  0999 V2000
   16.0919   39.5964   63.9046 C   0  0  0  0  0  0  0  0  0  0  0  0
   21.9070   40.0601   68.2742 C   0  0  0  0  0  0  0  0  0  0  0  0
   26.9473   39.1709   68.4991 P   0  0  1  0  0  0  0  0  0  0  0  0
   26.8759   41.7555   68.5385 P   0  0  1  0  0  0  0  0  0  0  0  0
   21.3442   40.9159   65.6626 C   0  0  0  0  0  0  0  0  0  0  0  0
   19.5848   39.2541   64.9883 C   0  0  0  0  0  0  0  0  0  0  0  0
   19.9537   40.5681   65.1972 C   0  0  0  0  0  0  0  0  0  0  0  0
   19.0056   41.5664   64.9667 C   0  0  0  0  0  0  0  0  0  0  0  0
   19.3265   42.9016   65.1613 N   0  0  0  0  0  0  0  0  0  0  0  0
   17.7910   41.2187   64.5518 N   0  0  0  0  0  0  0  0  0  0  0  0
   17.4800   39.9517   64.3697 C   0  0  0  0  0  0  0  0  0  0  0  0
   18.3525   38.9851   64.5782 N   0  0  0  0  0  0  0  0  0  0  0  0
   28.2480   38.4666   68.4379 O   0  0  0  0  0  0  0  0  0  0  0  0
   27.1998   41.3290   69.9881 O   0  0  0  0  0  0  0  0  0  0  0  0
   23.3712   37.6819   65.5280 S   0  0  0  0  0  0  0  0  0  0  0  0
   22.5289   39.0172   64.8036 C   0  0  0  0  0  0  0  0  0  0  0  0
   26.6442   39.6086   70.0171 O   0  0  0  0  0  0  0  0  0  0  0  0
   27.9099   42.8960   68.0690 O   0  5  0  0  0  0  0  0  0  0  0  0
   22.1169   39.6867   65.8552 N   0  0  0  0  0  0  0  0  0  0  0  0
   27.0023   40.4805   67.5633 O   0  0  0  0  0  0  0  0  0  0  0  0
   25.4351   42.3104   68.4765 O   0  0  0  0  0  0  0  0  0  0  0  0
   22.3861   39.2794   67.0765 C   0  0  2  0  0  0  0  0  0  0  0  0
   23.0992   38.1353   67.2345 C   0  0  2  0  0  0  0  0  0  0  0  0
   23.5414   37.4429   68.4970 C   0  0  0  0  0  0  0  0  0  0  0  0
   24.8131   38.1085   69.0279 C   0  0  0  0  0  0  0  0  0  0  0  0
   25.7803   38.1908   67.9792 O   0  0  0  0  0  0  0  0  0  0  0  0
  1 11  1  0  0  0  0
  3 13  1  6  0  0  0
  3 17  1  0  0  0  0
  3 20  1  0  0  0  0
  3 26  1  0  0  0  0
  4 14  1  0  0  0  0
  4 18  1  6  0  0  0
  4 21  2  0  0  0  0
  4 20  1  0  0  0  0
  5 19  1  0  0  0  0
  5  7  1  0  0  0  0
  6  7  2  0  0  0  0
  6 12  1  0  0  0  0
  7  8  1  0  0  0  0
  8  9  1  0  0  0  0
  8 10  2  0  0  0  0
 10 11  1  0  0  0  0
 11 12  2  0  0  0  0
 14 17  1  0  0  0  0
 15 23  1  0  0  0  0
 15 16  1  0  0  0  0
 16 19  1  0  0  0  0
 19 22  1  0  0  0  0
 22  2  1  1  0  0  0
 22 23  1  0  0  0  0
 23 24  1  6  0  0  0
 24 25  1  0  0  0  0
 25 26  1  0  0  0  0
M  CHG  1  18  -1
M  END
>  <CHROM.1>
73.15777881,-1.32146485,98.03100844,-51.40600416,167.93783335,123.73543329
23.41511098,39.91517416,67.00050980,-3.11152823,-0.44383793,0.04730238

>  <Name>
ligand

>  <RI>
0

>  <Rbt.Current_Directory>
/home/itssahil/PROJECTS/Mol_Feturizer/New_Systems/rnas/2HOL

>  <Rbt.Executable>
rbdock ($Id: //depot/dev/client3/rdock/2013.1/src/exe/rbdock.cxx#4 $)

>  <Rbt.Library>
libRbt.so (2013.1, Build901 2013/11/27)

>  <Rbt.Parameter_File>
/export/apps/rDock/src/rDock_2013.1_src/data/scripts/dock_solv.prm

>  <Rbt.Receptor>
prm/pocket_docking_4.prm

>  <SCORE>
-22.9645

>  <SCORE.INTER>
-22.3252

>  <SCORE.INTER.CONST>
1

>  <SCORE.INTER.POLAR>
0

>  <SCORE.INTER.ROT>
6

>  <SCORE.INTER.SOLV>
19.4758

>  <SCORE.INTER.VDW>
-28.9754

>  <SCORE.INTER.norm>
-0.858662

>  <SCORE.INTRA>
-0.639271

>  <SCORE.INTRA.DIHEDRAL>
-1.25898

>  <SCORE.INTRA.DIHEDRAL.0>
9.33621

>  <SCORE.INTRA.POLAR>
0

>  <SCORE.INTRA.POLAR.0>
0

>  <SCORE.INTRA.REPUL>
0

>  <SCORE.INTRA.REPUL.0>
0

>  <SCORE.INTRA.SOLV>
-0.0399085

>  <SCORE.INTRA.SOLV.lig_0>
-65.9238

>  <SCORE.INTRA.VDW>
0.0101747

>  <SCORE.INTRA.VDW.0>
-0.405582

>  <SCORE.INTRA.norm>
-0.0245873

>  <SCORE.RESTR>
0

>  <SCORE.RESTR.CAVITY>
0

>  <SCORE.RESTR.norm>
0

>  <SCORE.SYSTEM>
0

>  <SCORE.SYSTEM.CONST>
0

>  <SCORE.SYSTEM.DIHEDRAL>
0

>  <SCORE.SYSTEM.SOLV>
0

>  <SCORE.SYSTEM.norm>
0

>  <SCORE.heavy>
26

>  <SCORE.norm>
-0.883249

>  <RMSD>
3.016

$$$$
ligand
 OpenBabel11021811443D
libRbt.so/2013.1/901 2013/11/27
 26 28  0  0  0  0  0  0  0  0999 V2000
   15.8675   39.5681   63.6297 C   0  0  0  0  0  0  0  0  0  0  0  0
   21.9884   40.0637   68.2421 C   0  0  0  0  0  0  0  0  0  0  0  0
   27.0788   39.1329   67.6709 P   0  0  1  0  0  0  0  0  0  0  0  0
   27.6116   40.2707   69.9311 P   0  0  1  0  0  0  0  0  0  0  0  0
   20.9941   40.8607   65.7429 C   0  0  0  0  0  0  0  0  0  0  0  0
   19.2754   39.2077   64.9520 C   0  0  0  0  0  0  0  0  0  0  0  0
   19.6368   40.5200   65.1834 C   0  0  0  0  0  0  0  0  0  0  0  0
   18.7129   41.5234   64.8863 C   0  0  0  0  0  0  0  0  0  0  0  0
   19.0276   42.8571   65.1001 N   0  0  0  0  0  0  0  0  0  0  0  0
   17.5277   41.1818   64.3894 N   0  0  0  0  0  0  0  0  0  0  0  0
   17.2224   39.9163   64.1886 C   0  0  0  0  0  0  0  0  0  0  0  0
   18.0726   38.9450   64.4585 N   0  0  0  0  0  0  0  0  0  0  0  0
   27.6535   39.6708   66.4171 O   0  0  0  0  0  0  0  0  0  0  0  0
   28.8407   39.3901   69.6119 O   0  0  0  0  0  0  0  0  0  0  0  0
   23.0217   37.6501   65.3354 S   0  0  0  0  0  0  0  0  0  0  0  0
   22.0520   38.9603   64.7351 C   0  0  0  0  0  0  0  0  0  0  0  0
   28.1717   38.2144   68.4122 O   0  0  0  0  0  0  0  0  0  0  0  0
   28.0994   41.7504   70.3346 O   0  5  0  0  0  0  0  0  0  0  0  0
   21.8067   39.6452   65.8281 N   0  0  0  0  0  0  0  0  0  0  0  0
   26.6596   40.3529   68.6350 O   0  0  0  0  0  0  0  0  0  0  0  0
   26.8266   39.6491   71.1080 O   0  0  0  0  0  0  0  0  0  0  0  0
   22.2778   39.2655   66.9959 C   0  0  2  0  0  0  0  0  0  0  0  0
   23.0247   38.1336   67.0553 C   0  0  2  0  0  0  0  0  0  0  0  0
   23.6775   37.4718   68.2405 C   0  0  0  0  0  0  0  0  0  0  0  0
   25.0155   38.1536   68.5354 C   0  0  0  0  0  0  0  0  0  0  0  0
   25.7765   38.2493   67.3297 O   0  0  0  0  0  0  0  0  0  0  0  0
  1 11  1  0  0  0  0
  3 13  1  6  0  0  0
  3 17  1  0  0  0  0
  3 20  1  0  0  0  0
  3 26  1  0  0  0  0
  4 14  1  0  0  0  0
  4 18  1  1  0  0  0
  4 21  2  0  0  0  0
  4 20  1  0  0  0  0
  5 19  1  0  0  0  0
  5  7  1  0  0  0  0
  6  7  2  0  0  0  0
  6 12  1  0  0  0  0
  7  8  1  0  0  0  0
  8  9  1  0  0  0  0
  8 10  2  0  0  0  0
 10 11  1  0  0  0  0
 11 12  2  0  0  0  0
 14 17  1  0  0  0  0
 15 23  1  0  0  0  0
 15 16  1  0  0  0  0
 16 19  1  0  0  0  0
 19 22  1  0  0  0  0
 22  2  1  1  0  0  0
 22 23  1  0  0  0  0
 23 24  1  6  0  0  0
 24 25  1  0  0  0  0
 25 26  1  0  0  0  0
M  CHG  1  18  -1
M  END
>  <CHROM.1>
59.17564463,5.94175710,97.41600554,-49.77037175,173.07814086,-160.22809364
23.50136581,39.55748427,67.01369475,-2.96830175,-0.43008631,0.51760946

>  <Name>
ligand

>  <RI>
0

>  <Rbt.Current_Directory>
/home/itssahil/PROJECTS/Mol_Feturizer/New_Systems/rnas/2HOL

>  <Rbt.Executable>
rbdock ($Id: //depot/dev/client3/rdock/2013.1/src/exe/rbdock.cxx#4 $)

>  <Rbt.Library>
libRbt.so (2013.1, Build901 2013/11/27)

>  <Rbt.Parameter_File>
/export/apps/rDock/src/rDock_2013.1_src/data/scripts/dock_solv.prm

>  <Rbt.Receptor>
prm/pocket_docking_4.prm

>  <SCORE>
-23.4749

>  <SCORE.INTER>
-21.0107

>  <SCORE.INTER.CONST>
1

>  <SCORE.INTER.POLAR>
0

>  <SCORE.INTER.ROT>
6

>  <SCORE.INTER.SOLV>
23.3403

>  <SCORE.INTER.VDW>
-29.3872

>  <SCORE.INTER.norm>
-0.808102

>  <SCORE.INTRA>
-2.46421

>  <SCORE.INTRA.DIHEDRAL>
-3.39604

>  <SCORE.INTRA.DIHEDRAL.0>
9.33621

>  <SCORE.INTRA.POLAR>
0

>  <SCORE.INTRA.POLAR.0>
0

>  <SCORE.INTRA.REPUL>
0

>  <SCORE.INTRA.REPUL.0>
0

>  <SCORE.INTRA.SOLV>
0.283278

>  <SCORE.INTRA.SOLV.lig_0>
-65.9238

>  <SCORE.INTRA.VDW>
-0.907832

>  <SCORE.INTRA.VDW.0>
-0.405582

>  <SCORE.INTRA.norm>
-0.0947774

>  <SCORE.RESTR>
0

>  <SCORE.RESTR.CAVITY>
0

>  <SCORE.RESTR.norm>
0

>  <SCORE.SYSTEM>
0

>  <SCORE.SYSTEM.CONST>
0

>  <SCORE.SYSTEM.DIHEDRAL>
0

>  <SCORE.SYSTEM.SOLV>
0

>  <SCORE.SYSTEM.norm>
0

>  <SCORE.heavy>
26

>  <SCORE.norm>
-0.90288

>  <RMSD>
3.036

$$$$
ligand
 OpenBabel11021811443D
libRbt.so/2013.1/901 2013/11/27
 26 28  0  0  0  0  0  0  0  0999 V2000
   15.5524   39.4216   63.3706 C   0  0  0  0  0  0  0  0  0  0  0  0
   22.0006   40.0911   68.3062 C   0  0  0  0  0  0  0  0  0  0  0  0
   26.4776   40.8565   67.9873 P   0  0  1  0  0  0  0  0  0  0  0  0
   27.1951   42.5491   66.1688 P   0  0  1  0  0  0  0  0  0  0  0  0
   20.3047   40.8004   66.1871 C   0  0  0  0  0  0  0  0  0  0  0  0
   18.5867   39.1352   65.4207 C   0  0  0  0  0  0  0  0  0  0  0  0
   19.0467   40.4368   65.4412 C   0  0  0  0  0  0  0  0  0  0  0  0
   18.3166   41.4078   64.7535 C   0  0  0  0  0  0  0  0  0  0  0  0
   18.7368   42.7295   64.7429 N   0  0  0  0  0  0  0  0  0  0  0  0
   17.2147   41.0456   64.1034 N   0  0  0  0  0  0  0  0  0  0  0  0
   16.8090   39.7925   64.1140 C   0  0  0  0  0  0  0  0  0  0  0  0
   17.4760   38.8516   64.7536 N   0  0  0  0  0  0  0  0  0  0  0  0
   27.5034   40.1275   68.7670 O   0  0  0  0  0  0  0  0  0  0  0  0
   27.3281   43.3035   67.5110 O   0  0  0  0  0  0  0  0  0  0  0  0
   22.7165   38.0773   65.0238 S   0  0  0  0  0  0  0  0  0  0  0  0
   21.4112   39.1989   64.7882 C   0  0  0  0  0  0  0  0  0  0  0  0
   26.2745   42.3264   68.6085 O   0  0  0  0  0  0  0  0  0  0  0  0
   28.5415   42.7404   65.3079 O   0  5  0  0  0  0  0  0  0  0  0  0
   21.3186   39.7664   65.9686 N   0  0  0  0  0  0  0  0  0  0  0  0
   26.9579   40.9825   66.4553 O   0  0  0  0  0  0  0  0  0  0  0  0
   25.9943   43.1156   65.3784 O   0  0  0  0  0  0  0  0  0  0  0  0
   22.1185   39.4290   66.9565 C   0  0  2  0  0  0  0  0  0  0  0  0
   23.0485   38.4652   66.7359 C   0  0  2  0  0  0  0  0  0  0  0  0
   24.0767   37.8867   67.6723 C   0  0  0  0  0  0  0  0  0  0  0  0
   25.3584   38.7201   67.6041 C   0  0  0  0  0  0  0  0  0  0  0  0
   25.0844   40.0510   68.0464 O   0  0  0  0  0  0  0  0  0  0  0  0
  1 11  1  0  0  0  0
  3 13  1  1  0  0  0
  3 17  1  0  0  0  0
  3 20  1  0  0  0  0
  3 26  1  0  0  0  0
  4 14  1  0  0  0  0
  4 18  1  6  0  0  0
  4 21  2  0  0  0  0
  4 20  1  0  0  0  0
  5 19  1  0  0  0  0
  5  7  1  0  0  0  0
  6  7  2  0  0  0  0
  6 12  1  0  0  0  0
  7  8  1  0  0  0  0
  8  9  1  0  0  0  0
  8 10  2  0  0  0  0
 10 11  1  0  0  0  0
 11 12  2  0  0  0  0
 14 17  1  0  0  0  0
 15 23  1  0  0  0  0
 15 16  1  0  0  0  0
 16 19  1  0  0  0  0
 19 22  1  0  0  0  0
 22  2  1  1  0  0  0
 22 23  1  0  0  0  0
 23 24  1  6  0  0  0
 24 25  1  0  0  0  0
 25 26  1  0  0  0  0
M  CHG  1  18  -1
M  END
>  <CHROM.1>
37.43358001,41.26512793,91.35448186,62.69368362,178.48153664,-54.44316753
23.08851573,40.50298422,66.24101616,3.07884484,0.31984169,2.75593815

>  <Name>
ligand

>  <RI>
0

>  <Rbt.Current_Directory>
/home/itssahil/PROJECTS/Mol_Feturizer/New_Systems/rnas/2HOL

>  <Rbt.Executable>
rbdock ($Id: //depot/dev/client3/rdock/2013.1/src/exe/rbdock.cxx#4 $)

>  <Rbt.Library>
libRbt.so (2013.1, Build901 2013/11/27)

>  <Rbt.Parameter_File>
/export/apps/rDock/src/rDock_2013.1_src/data/scripts/dock_solv.prm

>  <Rbt.Receptor>
prm/pocket_docking_6.prm

>  <SCORE>
-22.0008

>  <SCORE.INTER>
-19.0367

>  <SCORE.INTER.CONST>
1

>  <SCORE.INTER.POLAR>
0

>  <SCORE.INTER.ROT>
6

>  <SCORE.INTER.SOLV>
17.054

>  <SCORE.INTER.VDW>
-25.9758

>  <SCORE.INTER.norm>
-0.732182

>  <SCORE.INTRA>
-2.9641

>  <SCORE.INTRA.DIHEDRAL>
-4.42723

>  <SCORE.INTRA.DIHEDRAL.0>
9.33621

>  <SCORE.INTRA.POLAR>
0

>  <SCORE.INTRA.POLAR.0>
0

>  <SCORE.INTRA.REPUL>
0

>  <SCORE.INTRA.REPUL.0>
0

>  <SCORE.INTRA.SOLV>
-0.112075

>  <SCORE.INTRA.SOLV.lig_0>
-65.9238

>  <SCORE.INTRA.VDW>
-0.694453

>  <SCORE.INTRA.VDW.0>
-0.405582

>  <SCORE.INTRA.norm>
-0.114004

>  <SCORE.RESTR>
0

>  <SCORE.RESTR.CAVITY>
0

>  <SCORE.RESTR.norm>
0

>  <SCORE.SYSTEM>
0

>  <SCORE.SYSTEM.CONST>
0

>  <SCORE.SYSTEM.DIHEDRAL>
0

>  <SCORE.SYSTEM.SOLV>
0

>  <SCORE.SYSTEM.norm>
0

>  <SCORE.heavy>
26

>  <SCORE.norm>
-0.846186

>  <RMSD>
3.039

$$$$
ligand
 OpenBabel11021811443D
libRbt.so/2013.1/901 2013/11/27
 26 28  0  0  0  0  0  0  0  0999 V2000
   16.6359   38.9503   64.4018 C   0  0  0  0  0  0  0  0  0  0  0  0
   22.8079   44.3633   65.4160 C   0  0  0  0  0  0  0  0  0  0  0  0
   27.5190   40.7627   68.7056 P   0  0  1  0  0  0  0  0  0  0  0  0
   26.9978   38.2887   68.1628 P   0  0  1  0  0  0  0  0  0  0  0  0
   20.2699   43.1772   65.5620 C   0  0  0  0  0  0  0  0  0  0  0  0
   17.9471   42.2814   65.2246 C   0  0  0  0  0  0  0  0  0  0  0  0
   19.3091   42.0575   65.2548 C   0  0  0  0  0  0  0  0  0  0  0  0
   19.7739   40.7674   64.9932 C   0  0  0  0  0  0  0  0  0  0  0  0
   21.1327   40.4905   65.0119 N   0  0  0  0  0  0  0  0  0  0  0  0
   18.8936   39.8058   64.7314 N   0  0  0  0  0  0  0  0  0  0  0  0
   17.6023   40.0646   64.7081 C   0  0  0  0  0  0  0  0  0  0  0  0
   17.1311   41.2721   64.9511 N   0  0  0  0  0  0  0  0  0  0  0  0
   27.8769   41.1586   70.0865 O   0  0  0  0  0  0  0  0  0  0  0  0
   28.5396   38.3892   68.1927 O   0  0  0  0  0  0  0  0  0  0  0  0
   22.6102   41.4744   68.0536 S   0  0  0  0  0  0  0  0  0  0  0  0
   21.0799   41.6934   67.2614 C   0  0  0  0  0  0  0  0  0  0  0  0
   28.8150   40.1617   67.9660 O   0  0  0  0  0  0  0  0  0  0  0  0
   26.5221   37.0384   69.0576 O   0  5  0  0  0  0  0  0  0  0  0  0
   21.3360   42.6809   66.4349 N   0  0  0  0  0  0  0  0  0  0  0  0
   26.3604   39.6450   68.7517 O   0  0  0  0  0  0  0  0  0  0  0  0
   26.5248   38.0878   66.7055 O   0  0  0  0  0  0  0  0  0  0  0  0
   22.5291   43.2307   66.3716 C   0  0  2  0  0  0  0  0  0  0  0  0
   23.5027   42.7602   67.1921 C   0  0  2  0  0  0  0  0  0  0  0  0
   24.9370   43.1976   67.3340 C   0  0  0  0  0  0  0  0  0  0  0  0
   25.6513   42.2931   68.3409 C   0  0  0  0  0  0  0  0  0  0  0  0
   26.9879   42.0504   67.8976 O   0  0  0  0  0  0  0  0  0  0  0  0
  1 11  1  0  0  0  0
  3 13  1  1  0  0  0
  3 17  1  0  0  0  0
  3 20  1  0  0  0  0
  3 26  1  0  0  0  0
  4 14  1  0  0  0  0
  4 18  1  1  0  0  0
  4 21  2  0  0  0  0
  4 20  1  0  0  0  0
  5 19  1  0  0  0  0
  5  7  1  0  0  0  0
  6  7  2  0  0  0  0
  6 12  1  0  0  0  0
  7  8  1  0  0  0  0
  8  9  1  0  0  0  0
  8 10  2  0  0  0  0
 10 11  1  0  0  0  0
 11 12  2  0  0  0  0
 14 17  1  0  0  0  0
 15 23  1  0  0  0  0
 15 16  1  0  0  0  0
 16 19  1  0  0  0  0
 19 22  1  0  0  0  0
 22  2  1  1  0  0  0
 22 23  1  0  0  0  0
 23 24  1  6  0  0  0
 24 25  1  0  0  0  0
 25 26  1  0  0  0  0
M  CHG  1  18  -1
M  END
>  <CHROM.1>
-29.26052265,139.45646135,3.21907357,142.06049543,-162.40072463,-76.87235538
23.59377489,40.83132790,67.06057504,2.99201212,-0.37240040,0.04029553

>  <Name>
ligand

>  <RI>
0

>  <Rbt.Current_Directory>
/home/itssahil/PROJECTS/Mol_Feturizer/New_Systems/rnas/2HOL

>  <Rbt.Executable>
rbdock ($Id: //depot/dev/client3/rdock/2013.1/src/exe/rbdock.cxx#4 $)

>  <Rbt.Library>
libRbt.so (2013.1, Build901 2013/11/27)

>  <Rbt.Parameter_File>
/export/apps/rDock/src/rDock_2013.1_src/data/scripts/dock_solv.prm

>  <Rbt.Receptor>
prm/pocket_docking_8.prm

>  <SCORE>
-19.0599

>  <SCORE.INTER>
-22.5465

>  <SCORE.INTER.CONST>
1

>  <SCORE.INTER.POLAR>
0

>  <SCORE.INTER.ROT>
6

>  <SCORE.INTER.SOLV>
14.6381

>  <SCORE.INTER.VDW>
-27.5104

>  <SCORE.INTER.norm>
-0.867173

>  <SCORE.INTRA>
3.48467

>  <SCORE.INTRA.DIHEDRAL>
0.974225

>  <SCORE.INTRA.DIHEDRAL.0>
9.33621

>  <SCORE.INTRA.POLAR>
0

>  <SCORE.INTRA.POLAR.0>
0

>  <SCORE.INTRA.REPUL>
0

>  <SCORE.INTRA.REPUL.0>
0

>  <SCORE.INTRA.SOLV>
3.32821

>  <SCORE.INTRA.SOLV.lig_0>
-65.9238

>  <SCORE.INTRA.VDW>
1.33345

>  <SCORE.INTRA.VDW.0>
-0.405582

>  <SCORE.INTRA.norm>
0.134026

>  <SCORE.RESTR>
0.00189149

>  <SCORE.RESTR.CAVITY>
0.00189149

>  <SCORE.RESTR.norm>
7.27495e-05

>  <SCORE.SYSTEM>
0

>  <SCORE.SYSTEM.CONST>
0

>  <SCORE.SYSTEM.DIHEDRAL>
0

>  <SCORE.SYSTEM.SOLV>
0

>  <SCORE.SYSTEM.norm>
0

>  <SCORE.heavy>
26

>  <SCORE.norm>
-0.733074

>  <RMSD>
3.057

$$$$
ligand
 OpenBabel11021811443D
libRbt.so/2013.1/901 2013/11/27
 26 28  0  0  0  0  0  0  0  0999 V2000
   20.0397   44.3705   65.6967 C   0  0  0  0  0  0  0  0  0  0  0  0
   22.3370   38.7302   64.9415 C   0  0  0  0  0  0  0  0  0  0  0  0
   27.8793   40.0993   67.4775 P   0  0  1  0  0  0  0  0  0  0  0  0
   28.0570   40.2138   70.0547 P   0  0  1  0  0  0  0  0  0  0  0  0
   20.7766   38.9462   67.2628 C   0  0  0  0  0  0  0  0  0  0  0  0
   21.4282   41.3722   67.3013 C   0  0  0  0  0  0  0  0  0  0  0  0
   20.5804   40.3815   66.8475 C   0  0  0  0  0  0  0  0  0  0  0  0
   19.5367   40.7432   65.9939 C   0  0  0  0  0  0  0  0  0  0  0  0
   18.6573   39.7857   65.5108 N   0  0  0  0  0  0  0  0  0  0  0  0
   19.3944   42.0211   65.6550 N   0  0  0  0  0  0  0  0  0  0  0  0
   20.2296   42.9336   66.1076 C   0  0  0  0  0  0  0  0  0  0  0  0
   21.2252   42.6248   66.9154 N   0  0  0  0  0  0  0  0  0  0  0  0
   28.8834   40.7866   66.6344 O   0  0  0  0  0  0  0  0  0  0  0  0
   29.0655   39.1270   69.6189 O   0  0  0  0  0  0  0  0  0  0  0  0
   24.3976   38.2160   68.2326 S   0  0  0  0  0  0  0  0  0  0  0  0
   22.7259   38.5220   68.5919 C   0  0  0  0  0  0  0  0  0  0  0  0
   28.4685   38.6858   67.9703 O   0  0  0  0  0  0  0  0  0  0  0  0
   28.7740   41.2386   71.0677 O   0  5  0  0  0  0  0  0  0  0  0  0
   22.2083   38.6668   67.3940 N   0  0  0  0  0  0  0  0  0  0  0  0
   27.5375   41.0144   68.7579 O   0  0  0  0  0  0  0  0  0  0  0  0
   26.8568   39.5460   70.7626 O   0  0  0  0  0  0  0  0  0  0  0  0
   22.9466   38.5626   66.3105 C   0  0  2  0  0  0  0  0  0  0  0  0
   24.2723   38.3082   66.4528 C   0  0  2  0  0  0  0  0  0  0  0  0
   25.3397   38.1451   65.4026 C   0  0  0  0  0  0  0  0  0  0  0  0
   26.6892   38.5910   65.9701 C   0  0  0  0  0  0  0  0  0  0  0  0
   26.5371   39.8533   66.6224 O   0  0  0  0  0  0  0  0  0  0  0  0
  1 11  1  0  0  0  0
  3 13  1  6  0  0  0
  3 17  1  0  0  0  0
  3 20  1  0  0  0  0
  3 26  1  0  0  0  0
  4 14  1  0  0  0  0
  4 18  1  1  0  0  0
  4 21  2  0  0  0  0
  4 20  1  0  0  0  0
  5 19  1  0  0  0  0
  5  7  1  0  0  0  0
  6  7  2  0  0  0  0
  6 12  1  0  0  0  0
  7  8  1  0  0  0  0
  8  9  1  0  0  0  0
  8 10  2  0  0  0  0
 10 11  1  0  0  0  0
 11 12  2  0  0  0  0
 14 17  1  0  0  0  0
 15 23  1  0  0  0  0
 15 16  1  0  0  0  0
 16 19  1  0  0  0  0
 19 22  1  0  0  0  0
 22  2  1  1  0  0  0
 22 23  1  0  0  0  0
 23 24  1  6  0  0  0
 24 25  1  0  0  0  0
 25 26  1  0  0  0  0
M  CHG  1  18  -1
M  END
>  <CHROM.1>
107.31484953,-34.86647663,-29.56907516,-47.45503674,167.17390100,88.83134058
24.56527418,39.99013608,67.50695975,-3.12960841,0.36136752,-2.78180597

>  <Name>
ligand

>  <RI>
0

>  <Rbt.Current_Directory>
/home/itssahil/PROJECTS/Mol_Feturizer/New_Systems/rnas/2HOL

>  <Rbt.Executable>
rbdock ($Id: //depot/dev/client3/rdock/2013.1/src/exe/rbdock.cxx#4 $)

>  <Rbt.Library>
libRbt.so (2013.1, Build901 2013/11/27)

>  <Rbt.Parameter_File>
/export/apps/rDock/src/rDock_2013.1_src/data/scripts/dock_solv.prm

>  <Rbt.Receptor>
prm/pocket_docking_5.prm

>  <SCORE>
-15.1819

>  <SCORE.INTER>
-13.3338

>  <SCORE.INTER.CONST>
1

>  <SCORE.INTER.POLAR>
0

>  <SCORE.INTER.ROT>
6

>  <SCORE.INTER.SOLV>
19.2936

>  <SCORE.INTER.VDW>
-22.9204

>  <SCORE.INTER.norm>
-0.512838

>  <SCORE.INTRA>
-1.86121

>  <SCORE.INTRA.DIHEDRAL>
-2.01098

>  <SCORE.INTRA.DIHEDRAL.0>
9.33621

>  <SCORE.INTRA.POLAR>
0

>  <SCORE.INTRA.POLAR.0>
0

>  <SCORE.INTRA.REPUL>
0

>  <SCORE.INTRA.REPUL.0>
0

>  <SCORE.INTRA.SOLV>
0.535173

>  <SCORE.INTRA.SOLV.lig_0>
-65.9238

>  <SCORE.INTRA.VDW>
-1.12331

>  <SCORE.INTRA.VDW.0>
-0.405582

>  <SCORE.INTRA.norm>
-0.071585

>  <SCORE.RESTR>
0.0130898

>  <SCORE.RESTR.CAVITY>
0.0130898

>  <SCORE.RESTR.norm>
0.000503455

>  <SCORE.SYSTEM>
0

>  <SCORE.SYSTEM.CONST>
0

>  <SCORE.SYSTEM.DIHEDRAL>
0

>  <SCORE.SYSTEM.SOLV>
0

>  <SCORE.SYSTEM.norm>
0

>  <SCORE.heavy>
26

>  <SCORE.norm>
-0.58392

>  <RMSD>
3.058

$$$$
ligand
 OpenBabel11021811443D
libRbt.so/2013.1/901 2013/11/27
 26 28  0  0  0  0  0  0  0  0999 V2000
   15.7598   39.5531   63.5283 C   0  0  0  0  0  0  0  0  0  0  0  0
   22.2153   39.9135   68.3498 C   0  0  0  0  0  0  0  0  0  0  0  0
   27.0750   39.9205   67.6660 P   0  0  1  0  0  0  0  0  0  0  0  0
   27.4724   40.6288   70.1210 P   0  0  1  0  0  0  0  0  0  0  0  0
   20.6729   40.7307   66.1537 C   0  0  0  0  0  0  0  0  0  0  0  0
   18.8587   39.1388   65.4563 C   0  0  0  0  0  0  0  0  0  0  0  0
   19.3724   40.4204   65.4583 C   0  0  0  0  0  0  0  0  0  0  0  0
   18.6563   41.4217   64.8001 C   0  0  0  0  0  0  0  0  0  0  0  0
   19.1298   42.7250   64.7727 N   0  0  0  0  0  0  0  0  0  0  0  0
   17.5154   41.1062   64.1943 N   0  0  0  0  0  0  0  0  0  0  0  0
   17.0592   39.8708   64.2212 C   0  0  0  0  0  0  0  0  0  0  0  0
   17.7116   38.9023   64.8338 N   0  0  0  0  0  0  0  0  0  0  0  0
   27.5700   40.7712   66.5601 O   0  0  0  0  0  0  0  0  0  0  0  0
   28.8012   39.9928   69.6543 O   0  0  0  0  0  0  0  0  0  0  0  0
   22.8634   37.7730   65.1342 S   0  0  0  0  0  0  0  0  0  0  0  0
   21.6775   39.0047   64.8278 C   0  0  0  0  0  0  0  0  0  0  0  0
   28.2794   39.0134   68.2267 O   0  0  0  0  0  0  0  0  0  0  0  0
   27.7714   42.0436   70.8275 O   0  5  0  0  0  0  0  0  0  0  0  0
   21.5940   39.6033   65.9934 N   0  0  0  0  0  0  0  0  0  0  0  0
   26.5104   40.8551   68.8497 O   0  0  0  0  0  0  0  0  0  0  0  0
   26.7789   39.6863   71.1302 O   0  0  0  0  0  0  0  0  0  0  0  0
   22.3216   39.2148   67.0178 C   0  0  2  0  0  0  0  0  0  0  0  0
   23.1657   38.1650   66.8508 C   0  0  2  0  0  0  0  0  0  0  0  0
   24.1001   37.5143   67.8370 C   0  0  0  0  0  0  0  0  0  0  0  0
   25.1680   38.5206   68.2718 C   0  0  0  0  0  0  0  0  0  0  0  0
   25.8930   38.9698   67.1253 O   0  0  0  0  0  0  0  0  0  0  0  0
  1 11  1  0  0  0  0
  3 13  1  6  0  0  0
  3 17  1  0  0  0  0
  3 20  1  0  0  0  0
  3 26  1  0  0  0  0
  4 14  1  0  0  0  0
  4 18  1  1  0  0  0
  4 21  2  0  0  0  0
  4 20  1  0  0  0  0
  5 19  1  0  0  0  0
  5  7  1  0  0  0  0
  6  7  2  0  0  0  0
  6 12  1  0  0  0  0
  7  8  1  0  0  0  0
  8  9  1  0  0  0  0
  8 10  2  0  0  0  0
 10 11  1  0  0  0  0
 11 12  2  0  0  0  0
 14 17  1  0  0  0  0
 15 23  1  0  0  0  0
 15 16  1  0  0  0  0
 16 19  1  0  0  0  0
 19 22  1  0  0  0  0
 22  2  1  1  0  0  0
 22 23  1  0  0  0  0
 23 24  1  6  0  0  0
 24 25  1  0  0  0  0
 25 26  1  0  0  0  0
M  CHG  1  18  -1
M  END
>  <CHROM.1>
41.99509908,36.34634861,116.32475431,-58.99132307,-175.20182424,-160.98903882
23.42771284,39.79218668,67.04255223,2.89914229,0.39697687,-2.59929710

>  <Name>
ligand

>  <RI>
0

>  <Rbt.Current_Directory>
/home/itssahil/PROJECTS/Mol_Feturizer/New_Systems/rnas/2HOL

>  <Rbt.Executable>
rbdock ($Id: //depot/dev/client3/rdock/2013.1/src/exe/rbdock.cxx#4 $)

>  <Rbt.Library>
libRbt.so (2013.1, Build901 2013/11/27)

>  <Rbt.Parameter_File>
/export/apps/rDock/src/rDock_2013.1_src/data/scripts/dock_solv.prm

>  <Rbt.Receptor>
prm/pocket_docking_4.prm

>  <SCORE>
-20.9864

>  <SCORE.INTER>
-18.4138

>  <SCORE.INTER.CONST>
1

>  <SCORE.INTER.POLAR>
0

>  <SCORE.INTER.ROT>
6

>  <SCORE.INTER.SOLV>
24.3244

>  <SCORE.INTER.VDW>
-27.984

>  <SCORE.INTER.norm>
-0.708224

>  <SCORE.INTRA>
-2.57254

>  <SCORE.INTRA.DIHEDRAL>
-4.11711

>  <SCORE.INTRA.DIHEDRAL.0>
9.33621

>  <SCORE.INTRA.POLAR>
0

>  <SCORE.INTRA.POLAR.0>
0

>  <SCORE.INTRA.REPUL>
0

>  <SCORE.INTRA.REPUL.0>
0

>  <SCORE.INTRA.SOLV>
0.312366

>  <SCORE.INTRA.SOLV.lig_0>
-65.9238

>  <SCORE.INTRA.VDW>
-0.67017

>  <SCORE.INTRA.VDW.0>
-0.405582

>  <SCORE.INTRA.norm>
-0.098944

>  <SCORE.RESTR>
0

>  <SCORE.RESTR.CAVITY>
0

>  <SCORE.RESTR.norm>
0

>  <SCORE.SYSTEM>
0

>  <SCORE.SYSTEM.CONST>
0

>  <SCORE.SYSTEM.DIHEDRAL>
0

>  <SCORE.SYSTEM.SOLV>
0

>  <SCORE.SYSTEM.norm>
0

>  <SCORE.heavy>
26

>  <SCORE.norm>
-0.807168

>  <RMSD>
3.074

$$$$
ligand
 OpenBabel11021811443D
libRbt.so/2013.1/901 2013/11/27
 26 28  0  0  0  0  0  0  0  0999 V2000
   16.4079   39.6351   63.7855 C   0  0  0  0  0  0  0  0  0  0  0  0
   22.6297   43.9366   66.5995 C   0  0  0  0  0  0  0  0  0  0  0  0
   27.7434   41.8101   67.3701 P   0  0  1  0  0  0  0  0  0  0  0  0
   27.4023   40.3324   69.4645 P   0  0  1  0  0  0  0  0  0  0  0  0
   20.7697   41.8395   66.7068 C   0  0  0  0  0  0  0  0  0  0  0  0
   19.2780   39.9244   66.0595 C   0  0  0  0  0  0  0  0  0  0  0  0
   19.6149   41.2573   65.9329 C   0  0  0  0  0  0  0  0  0  0  0  0
   18.8586   42.0523   65.0700 C   0  0  0  0  0  0  0  0  0  0  0  0
   19.1567   43.3970   64.9073 N   0  0  0  0  0  0  0  0  0  0  0  0
   17.8508   41.4996   64.4013 N   0  0  0  0  0  0  0  0  0  0  0  0
   17.5608   40.2240   64.5558 C   0  0  0  0  0  0  0  0  0  0  0  0
   18.2557   39.4462   65.3626 N   0  0  0  0  0  0  0  0  0  0  0  0
   28.5642   43.0391   67.4562 O   0  0  0  0  0  0  0  0  0  0  0  0
   28.7965   39.9549   68.9153 O   0  0  0  0  0  0  0  0  0  0  0  0
   23.7743   40.7630   64.6095 S   0  0  0  0  0  0  0  0  0  0  0  0
   22.2200   40.5061   65.3412 C   0  0  0  0  0  0  0  0  0  0  0  0
   28.7059   40.5318   67.2041 O   0  0  0  0  0  0  0  0  0  0  0  0
   27.5052   40.6170   71.0453 O   0  5  0  0  0  0  0  0  0  0  0  0
   22.0097   41.6497   65.9511 N   0  0  0  0  0  0  0  0  0  0  0  0
   26.8697   41.6536   68.7138 O   0  0  0  0  0  0  0  0  0  0  0  0
   26.4193   39.1667   69.2147 O   0  0  0  0  0  0  0  0  0  0  0  0
   22.8864   42.6285   65.8947 C   0  0  2  0  0  0  0  0  0  0  0  0
   24.0318   42.4317   65.1935 C   0  0  2  0  0  0  0  0  0  0  0  0
   25.1944   43.3623   64.9673 C   0  0  0  0  0  0  0  0  0  0  0  0
   26.1941   43.2222   66.1175 C   0  0  0  0  0  0  0  0  0  0  0  0
   26.7582   41.9094   66.1002 O   0  0  0  0  0  0  0  0  0  0  0  0
  1 11  1  0  0  0  0
  3 13  1  1  0  0  0
  3 17  1  0  0  0  0
  3 20  1  0  0  0  0
  3 26  1  0  0  0  0
  4 14  1  0  0  0  0
  4 18  1  1  0  0  0
  4 21  2  0  0  0  0
  4 20  1  0  0  0  0
  5 19  1  0  0  0  0
  5  7  1  0  0  0  0
  6  7  2  0  0  0  0
  6 12  1  0  0  0  0
  7  8  1  0  0  0  0
  8  9  1  0  0  0  0
  8 10  2  0  0  0  0
 10 11  1  0  0  0  0
 11 12  2  0  0  0  0
 14 17  1  0  0  0  0
 15 23  1  0  0  0  0
 15 16  1  0  0  0  0
 16 19  1  0  0  0  0
 19 22  1  0  0  0  0
 22  2  1  1  0  0  0
 22 23  1  0  0  0  0
 23 24  1  6  0  0  0
 24 25  1  0  0  0  0
 25 26  1  0  0  0  0
M  CHG  1  18  -1
M  END
>  <CHROM.1>
-41.60571482,87.00305327,-93.19188710,65.21281435,-177.43302748,-44.75154115
23.87162918,41.35076535,66.59668067,2.90403628,-0.28071656,-0.74715353

>  <Name>
ligand

>  <RI>
0

>  <Rbt.Current_Directory>
/home/itssahil/PROJECTS/Mol_Feturizer/New_Systems/rnas/2HOL

>  <Rbt.Executable>
rbdock ($Id: //depot/dev/client3/rdock/2013.1/src/exe/rbdock.cxx#4 $)

>  <Rbt.Library>
libRbt.so (2013.1, Build901 2013/11/27)

>  <Rbt.Parameter_File>
/export/apps/rDock/src/rDock_2013.1_src/data/scripts/dock_solv.prm

>  <Rbt.Receptor>
prm/pocket_docking_4.prm

>  <SCORE>
-19.3801

>  <SCORE.INTER>
-16.7087

>  <SCORE.INTER.CONST>
1

>  <SCORE.INTER.POLAR>
0

>  <SCORE.INTER.ROT>
6

>  <SCORE.INTER.SOLV>
19.6803

>  <SCORE.INTER.VDW>
-25.2992

>  <SCORE.INTER.norm>
-0.642643

>  <SCORE.INTRA>
-2.67176

>  <SCORE.INTRA.DIHEDRAL>
-4.01363

>  <SCORE.INTRA.DIHEDRAL.0>
9.33621

>  <SCORE.INTRA.POLAR>
0

>  <SCORE.INTRA.POLAR.0>
0

>  <SCORE.INTRA.REPUL>
0

>  <SCORE.INTRA.REPUL.0>
0

>  <SCORE.INTRA.SOLV>
0.968778

>  <SCORE.INTRA.SOLV.lig_0>
-65.9238

>  <SCORE.INTRA.VDW>
-1.14934

>  <SCORE.INTRA.VDW.0>
-0.405582

>  <SCORE.INTRA.norm>
-0.10276

>  <SCORE.RESTR>
0.0003517

>  <SCORE.RESTR.CAVITY>
0.0003517

>  <SCORE.RESTR.norm>
1.35269e-05

>  <SCORE.SYSTEM>
0

>  <SCORE.SYSTEM.CONST>
0

>  <SCORE.SYSTEM.DIHEDRAL>
0

>  <SCORE.SYSTEM.SOLV>
0

>  <SCORE.SYSTEM.norm>
0

>  <SCORE.heavy>
26

>  <SCORE.norm>
-0.745389

>  <RMSD>
3.079

$$$$
ligand
 OpenBabel11021811443D
libRbt.so/2013.1/901 2013/11/27
 26 28  0  0  0  0  0  0  0  0999 V2000
   20.0069   44.4000   65.7730 C   0  0  0  0  0  0  0  0  0  0  0  0
   22.7539   38.2080   69.1556 C   0  0  0  0  0  0  0  0  0  0  0  0
   27.4654   40.8072   68.7183 P   0  0  1  0  0  0  0  0  0  0  0  0
   28.1823   42.4183   66.8270 P   0  0  1  0  0  0  0  0  0  0  0  0
   20.9753   38.9528   67.1181 C   0  0  0  0  0  0  0  0  0  0  0  0
   21.5442   41.3975   67.2268 C   0  0  0  0  0  0  0  0  0  0  0  0
   20.7177   40.3942   66.7613 C   0  0  0  0  0  0  0  0  0  0  0  0
   19.6375   40.7489   65.9514 C   0  0  0  0  0  0  0  0  0  0  0  0
   18.7775   39.7788   65.4588 N   0  0  0  0  0  0  0  0  0  0  0  0
   19.4415   42.0323   65.6637 N   0  0  0  0  0  0  0  0  0  0  0  0
   20.2580   42.9570   66.1255 C   0  0  0  0  0  0  0  0  0  0  0  0
   21.2870   42.6551   66.8929 N   0  0  0  0  0  0  0  0  0  0  0  0
   28.4595   40.3419   69.7117 O   0  0  0  0  0  0  0  0  0  0  0  0
   27.9876   43.3077   68.0756 O   0  0  0  0  0  0  0  0  0  0  0  0
   24.3853   38.1546   65.5950 S   0  0  0  0  0  0  0  0  0  0  0  0
   22.7207   38.6431   65.5046 C   0  0  0  0  0  0  0  0  0  0  0  0
   26.9425   42.2726   69.1271 O   0  0  0  0  0  0  0  0  0  0  0  0
   29.5989   42.7553   66.1414 O   0  5  0  0  0  0  0  0  0  0  0  0
   22.3519   38.6002   66.7640 N   0  0  0  0  0  0  0  0  0  0  0  0
   28.1507   40.8683   67.2622 O   0  0  0  0  0  0  0  0  0  0  0  0
   27.0444   42.6932   65.8185 O   0  0  0  0  0  0  0  0  0  0  0  0
   23.1924   38.2512   67.7135 C   0  0  2  0  0  0  0  0  0  0  0  0
   24.4626   37.9231   67.3648 C   0  0  2  0  0  0  0  0  0  0  0  0
   25.6168   37.4887   68.2296 C   0  0  0  0  0  0  0  0  0  0  0  0
   26.7231   38.5448   68.1760 C   0  0  0  0  0  0  0  0  0  0  0  0
   26.2224   39.7840   68.6818 O   0  0  0  0  0  0  0  0  0  0  0  0
  1 11  1  0  0  0  0
  3 13  1  1  0  0  0
  3 17  1  0  0  0  0
  3 20  1  0  0  0  0
  3 26  1  0  0  0  0
  4 14  1  0  0  0  0
  4 18  1  6  0  0  0
  4 21  2  0  0  0  0
  4 20  1  0  0  0  0
  5 19  1  0  0  0  0
  5  7  1  0  0  0  0
  6  7  2  0  0  0  0
  6 12  1  0  0  0  0
  7  8  1  0  0  0  0
  8  9  1  0  0  0  0
  8 10  2  0  0  0  0
 10 11  1  0  0  0  0
 11 12  2  0  0  0  0
 14 17  1  0  0  0  0
 15 23  1  0  0  0  0
 15 16  1  0  0  0  0
 16 19  1  0  0  0  0
 19 22  1  0  0  0  0
 22  2  1  6  0  0  0
 22 23  1  0  0  0  0
 23 24  1  1  0  0  0
 24 25  1  0  0  0  0
 25 26  1  0  0  0  0
M  CHG  1  18  -1
M  END
>  <CHROM.1>
-63.02294082,-53.85612485,64.94620837,61.29519368,175.11219014,-66.03120042
24.54401670,40.59466816,67.17191931,3.08928726,0.21618436,2.94315593

>  <Name>
ligand

>  <RI>
0

>  <Rbt.Current_Directory>
/home/itssahil/PROJECTS/Mol_Feturizer/New_Systems/rnas/2HOL

>  <Rbt.Executable>
rbdock ($Id: //depot/dev/client3/rdock/2013.1/src/exe/rbdock.cxx#4 $)

>  <Rbt.Library>
libRbt.so (2013.1, Build901 2013/11/27)

>  <Rbt.Parameter_File>
/export/apps/rDock/src/rDock_2013.1_src/data/scripts/dock_solv.prm

>  <Rbt.Receptor>
prm/pocket_docking_8.prm

>  <SCORE>
-19.6881

>  <SCORE.INTER>
-15.6161

>  <SCORE.INTER.CONST>
1

>  <SCORE.INTER.POLAR>
0

>  <SCORE.INTER.ROT>
6

>  <SCORE.INTER.SOLV>
12.4146

>  <SCORE.INTER.VDW>
-22.1489

>  <SCORE.INTER.norm>
-0.600619

>  <SCORE.INTRA>
-4.07204

>  <SCORE.INTRA.DIHEDRAL>
-4.00618

>  <SCORE.INTRA.DIHEDRAL.0>
9.33621

>  <SCORE.INTRA.POLAR>
0

>  <SCORE.INTRA.POLAR.0>
0

>  <SCORE.INTRA.REPUL>
0

>  <SCORE.INTRA.REPUL.0>
0

>  <SCORE.INTRA.SOLV>
-0.352694

>  <SCORE.INTRA.SOLV.lig_0>
-65.9238

>  <SCORE.INTRA.VDW>
-1.8926

>  <SCORE.INTRA.VDW.0>
-0.405582

>  <SCORE.INTRA.norm>
-0.156617

>  <SCORE.RESTR>
0

>  <SCORE.RESTR.CAVITY>
0

>  <SCORE.RESTR.norm>
0

>  <SCORE.SYSTEM>
0

>  <SCORE.SYSTEM.CONST>
0

>  <SCORE.SYSTEM.DIHEDRAL>
0

>  <SCORE.SYSTEM.SOLV>
0

>  <SCORE.SYSTEM.norm>
0

>  <SCORE.heavy>
26

>  <SCORE.norm>
-0.757235

>  <RMSD>
3.135

$$$$
ligand
 OpenBabel11021811443D
libRbt.so/2013.1/901 2013/11/27
 26 28  0  0  0  0  0  0  0  0999 V2000
   19.6082   44.4302   65.9181 C   0  0  0  0  0  0  0  0  0  0  0  0
   24.0323   38.1682   65.6483 C   0  0  0  0  0  0  0  0  0  0  0  0
   27.0612   40.7761   68.2209 P   0  0  1  0  0  0  0  0  0  0  0  0
   27.1184   42.2226   66.0783 P   0  0  1  0  0  0  0  0  0  0  0  0
   21.3591   39.0187   65.6560 C   0  0  0  0  0  0  0  0  0  0  0  0
   21.7967   41.4802   65.9038 C   0  0  0  0  0  0  0  0  0  0  0  0
   20.8942   40.4506   65.7252 C   0  0  0  0  0  0  0  0  0  0  0  0
   19.5401   40.7697   65.6101 C   0  0  0  0  0  0  0  0  0  0  0  0
   18.5937   39.7721   65.4302 N   0  0  0  0  0  0  0  0  0  0  0  0
   19.1700   42.0450   65.6815 N   0  0  0  0  0  0  0  0  0  0  0  0
   20.0654   42.9966   65.8479 C   0  0  0  0  0  0  0  0  0  0  0  0
   21.3517   42.7284   65.9604 N   0  0  0  0  0  0  0  0  0  0  0  0
   28.3231   40.4204   68.9085 O   0  0  0  0  0  0  0  0  0  0  0  0
   27.2607   43.2174   67.2523 O   0  0  0  0  0  0  0  0  0  0  0  0
   22.4375   38.1945   69.2257 S   0  0  0  0  0  0  0  0  0  0  0  0
   21.2884   38.7190   68.0332 C   0  0  0  0  0  0  0  0  0  0  0  0
   26.6179   42.2627   68.6467 O   0  0  0  0  0  0  0  0  0  0  0  0
   28.2543   42.5220   64.9781 O   0  5  0  0  0  0  0  0  0  0  0  0
   21.9889   38.6474   66.9250 N   0  0  0  0  0  0  0  0  0  0  0  0
   27.2844   40.7180   66.6271 O   0  0  0  0  0  0  0  0  0  0  0  0
   25.7231   42.3848   65.4344 O   0  0  0  0  0  0  0  0  0  0  0  0
   23.2414   38.2463   66.9298 C   0  0  2  0  0  0  0  0  0  0  0  0
   23.8090   37.9112   68.1164 C   0  0  2  0  0  0  0  0  0  0  0  0
   25.2050   37.4305   68.4145 C   0  0  0  0  0  0  0  0  0  0  0  0
   26.2162   38.4968   67.9874 C   0  0  0  0  0  0  0  0  0  0  0  0
   25.9088   39.7315   68.6379 O   0  0  0  0  0  0  0  0  0  0  0  0
  1 11  1  0  0  0  0
  3 13  1  1  0  0  0
  3 17  1  0  0  0  0
  3 20  1  0  0  0  0
  3 26  1  0  0  0  0
  4 14  1  0  0  0  0
  4 18  1  6  0  0  0
  4 21  2  0  0  0  0
  4 20  1  0  0  0  0
  5 19  1  0  0  0  0
  5  7  1  0  0  0  0
  6  7  2  0  0  0  0
  6 12  1  0  0  0  0
  7  8  1  0  0  0  0
  8  9  1  0  0  0  0
  8 10  2  0  0  0  0
 10 11  1  0  0  0  0
 11 12  2  0  0  0  0
 14 17  1  0  0  0  0
 15 23  1  0  0  0  0
 15 16  1  0  0  0  0
 16 19  1  0  0  0  0
 19 22  1  0  0  0  0
 22  2  1  1  0  0  0
 22 23  1  0  0  0  0
 23 24  1  6  0  0  0
 24 25  1  0  0  0  0
 25 26  1  0  0  0  0
M  CHG  1  18  -1
M  END
>  <CHROM.1>
59.46366658,62.37928790,-119.42519561,56.03066454,176.39897300,-72.19983876
24.02739026,40.56159250,66.98215476,-3.11669429,0.17460908,2.68198552

>  <Name>
ligand

>  <RI>
0

>  <Rbt.Current_Directory>
/home/itssahil/PROJECTS/Mol_Feturizer/New_Systems/rnas/2HOL

>  <Rbt.Executable>
rbdock ($Id: //depot/dev/client3/rdock/2013.1/src/exe/rbdock.cxx#4 $)

>  <Rbt.Library>
libRbt.so (2013.1, Build901 2013/11/27)

>  <Rbt.Parameter_File>
/export/apps/rDock/src/rDock_2013.1_src/data/scripts/dock_solv.prm

>  <Rbt.Receptor>
prm/pocket_docking_4.prm

>  <SCORE>
-17.4143

>  <SCORE.INTER>
-13.8594

>  <SCORE.INTER.CONST>
1

>  <SCORE.INTER.POLAR>
0

>  <SCORE.INTER.ROT>
6

>  <SCORE.INTER.SOLV>
12.2547

>  <SCORE.INTER.VDW>
-20.9245

>  <SCORE.INTER.norm>
-0.533054

>  <SCORE.INTRA>
-3.5646

>  <SCORE.INTRA.DIHEDRAL>
-4.41411

>  <SCORE.INTRA.DIHEDRAL.0>
9.33621

>  <SCORE.INTRA.POLAR>
0

>  <SCORE.INTRA.POLAR.0>
0

>  <SCORE.INTRA.REPUL>
0

>  <SCORE.INTRA.REPUL.0>
0

>  <SCORE.INTRA.SOLV>
0.150139

>  <SCORE.INTRA.SOLV.lig_0>
-65.9238

>  <SCORE.INTRA.VDW>
-1.43262

>  <SCORE.INTRA.VDW.0>
-0.405582

>  <SCORE.INTRA.norm>
-0.1371

>  <SCORE.RESTR>
0.00970426

>  <SCORE.RESTR.CAVITY>
0.00970426

>  <SCORE.RESTR.norm>
0.000373241

>  <SCORE.SYSTEM>
0

>  <SCORE.SYSTEM.CONST>
0

>  <SCORE.SYSTEM.DIHEDRAL>
0

>  <SCORE.SYSTEM.SOLV>
0

>  <SCORE.SYSTEM.norm>
0

>  <SCORE.heavy>
26

>  <SCORE.norm>
-0.669781

>  <RMSD>
3.180

$$$$
ligand
 OpenBabel11021811443D
libRbt.so/2013.1/901 2013/11/27
 26 28  0  0  0  0  0  0  0  0999 V2000
   21.1839   45.0836   66.1609 C   0  0  0  0  0  0  0  0  0  0  0  0
   21.5701   38.6998   68.9955 C   0  0  0  0  0  0  0  0  0  0  0  0
   27.2813   39.6339   68.5245 P   0  0  1  0  0  0  0  0  0  0  0  0
   28.3309   41.5401   67.1275 P   0  0  1  0  0  0  0  0  0  0  0  0
   20.3521   39.4672   66.5878 C   0  0  0  0  0  0  0  0  0  0  0  0
   21.5744   41.5786   67.1876 C   0  0  0  0  0  0  0  0  0  0  0  0
   20.5711   40.9539   66.4739 C   0  0  0  0  0  0  0  0  0  0  0  0
   19.7647   41.7344   65.6437 C   0  0  0  0  0  0  0  0  0  0  0  0
   18.7430   41.1551   64.9062 N   0  0  0  0  0  0  0  0  0  0  0  0
   19.9870   43.0437   65.5747 N   0  0  0  0  0  0  0  0  0  0  0  0
   20.9590   43.5980   66.2697 C   0  0  0  0  0  0  0  0  0  0  0  0
   21.7380   42.8889   67.0630 N   0  0  0  0  0  0  0  0  0  0  0  0
   28.0095   39.0814   69.6890 O   0  0  0  0  0  0  0  0  0  0  0  0
   27.7271   42.2256   68.3740 O   0  0  0  0  0  0  0  0  0  0  0  0
   23.6678   37.7286   65.8334 S   0  0  0  0  0  0  0  0  0  0  0  0
   22.2004   38.5383   65.3766 C   0  0  0  0  0  0  0  0  0  0  0  0
   26.5364   40.9940   68.9526 O   0  0  0  0  0  0  0  0  0  0  0  0
   29.8429   42.0481   66.9129 O   0  5  0  0  0  0  0  0  0  0  0  0
   21.6435   38.7780   66.5412 N   0  0  0  0  0  0  0  0  0  0  0  0
   28.3247   39.9436   67.3375 O   0  0  0  0  0  0  0  0  0  0  0  0
   27.4862   41.8992   65.8845 O   0  0  0  0  0  0  0  0  0  0  0  0
   22.2218   38.4161   67.6656 C   0  0  2  0  0  0  0  0  0  0  0  0
   23.4161   37.7740   67.6017 C   0  0  2  0  0  0  0  0  0  0  0  0
   24.2882   37.2495   68.7121 C   0  0  0  0  0  0  0  0  0  0  0  0
   25.3092   38.3179   69.1098 C   0  0  0  0  0  0  0  0  0  0  0  0
   26.1926   38.5629   68.0137 O   0  0  0  0  0  0  0  0  0  0  0  0
  1 11  1  0  0  0  0
  3 13  1  1  0  0  0
  3 17  1  0  0  0  0
  3 20  1  0  0  0  0
  3 26  1  0  0  0  0
  4 14  1  0  0  0  0
  4 18  1  6  0  0  0
  4 21  2  0  0  0  0
  4 20  1  0  0  0  0
  5 19  1  0  0  0  0
  5  7  1  0  0  0  0
  6  7  2  0  0  0  0
  6 12  1  0  0  0  0
  7  8  1  0  0  0  0
  8  9  1  0  0  0  0
  8 10  2  0  0  0  0
 10 11  1  0  0  0  0
 11 12  2  0  0  0  0
 14 17  1  0  0  0  0
 15 23  1  0  0  0  0
 15 16  1  0  0  0  0
 16 19  1  0  0  0  0
 19 22  1  0  0  0  0
 22  2  1  6  0  0  0
 22 23  1  0  0  0  0
 23 24  1  1  0  0  0
 24 25  1  0  0  0  0
 25 26  1  0  0  0  0
M  CHG  1  18  -1
M  END
>  <CHROM.1>
-82.21420330,-43.95438811,87.38365704,-64.76780003,-177.10943980,59.38000577
24.31838039,40.33510281,67.21367129,-2.99676529,0.20228286,2.90837500

>  <Name>
ligand

>  <RI>
0

>  <Rbt.Current_Directory>
/home/itssahil/PROJECTS/Mol_Feturizer/New_Systems/rnas/2HOL

>  <Rbt.Executable>
rbdock ($Id: //depot/dev/client3/rdock/2013.1/src/exe/rbdock.cxx#4 $)

>  <Rbt.Library>
libRbt.so (2013.1, Build901 2013/11/27)

>  <Rbt.Parameter_File>
/export/apps/rDock/src/rDock_2013.1_src/data/scripts/dock_solv.prm

>  <Rbt.Receptor>
prm/pocket_docking_3.prm

>  <SCORE>
-17.8533

>  <SCORE.INTER>
-13.5883

>  <SCORE.INTER.CONST>
1

>  <SCORE.INTER.POLAR>
0

>  <SCORE.INTER.ROT>
6

>  <SCORE.INTER.SOLV>
13.7967

>  <SCORE.INTER.VDW>
-21.2577

>  <SCORE.INTER.norm>
-0.522625

>  <SCORE.INTRA>
-4.28941

>  <SCORE.INTRA.DIHEDRAL>
-4.32455

>  <SCORE.INTRA.DIHEDRAL.0>
9.33621

>  <SCORE.INTRA.POLAR>
0

>  <SCORE.INTRA.POLAR.0>
0

>  <SCORE.INTRA.REPUL>
0

>  <SCORE.INTRA.REPUL.0>
0

>  <SCORE.INTRA.SOLV>
-0.673307

>  <SCORE.INTRA.SOLV.lig_0>
-65.9238

>  <SCORE.INTRA.VDW>
-1.79048

>  <SCORE.INTRA.VDW.0>
-0.405582

>  <SCORE.INTRA.norm>
-0.164977

>  <SCORE.RESTR>
0.0243624

>  <SCORE.RESTR.CAVITY>
0.0243624

>  <SCORE.RESTR.norm>
0.000937017

>  <SCORE.SYSTEM>
0

>  <SCORE.SYSTEM.CONST>
0

>  <SCORE.SYSTEM.DIHEDRAL>
0

>  <SCORE.SYSTEM.SOLV>
0

>  <SCORE.SYSTEM.norm>
0

>  <SCORE.heavy>
26

>  <SCORE.norm>
-0.686665

>  <RMSD>
3.184

$$$$
ligand
 OpenBabel11021811443D
libRbt.so/2013.1/901 2013/11/27
 26 28  0  0  0  0  0  0  0  0999 V2000
   20.0406   44.4134   65.7523 C   0  0  0  0  0  0  0  0  0  0  0  0
   22.5395   38.1363   69.2083 C   0  0  0  0  0  0  0  0  0  0  0  0
   27.3880   40.5747   68.6836 P   0  0  1  0  0  0  0  0  0  0  0  0
   27.8013   42.2187   66.7310 P   0  0  1  0  0  0  0  0  0  0  0  0
   20.8205   38.9481   67.1454 C   0  0  0  0  0  0  0  0  0  0  0  0
   21.4647   41.3744   67.2451 C   0  0  0  0  0  0  0  0  0  0  0  0
   20.6129   40.3943   66.7759 C   0  0  0  0  0  0  0  0  0  0  0  0
   19.5544   40.7770   65.9501 C   0  0  0  0  0  0  0  0  0  0  0  0
   18.6705   39.8309   65.4532 N   0  0  0  0  0  0  0  0  0  0  0  0
   19.4024   42.0639   65.6515 N   0  0  0  0  0  0  0  0  0  0  0  0
   20.2418   42.9658   66.1174 C   0  0  0  0  0  0  0  0  0  0  0  0
   21.2513   42.6371   66.8997 N   0  0  0  0  0  0  0  0  0  0  0  0
   28.5272   40.0799   69.4893 O   0  0  0  0  0  0  0  0  0  0  0  0
   27.8268   43.0834   68.0115 O   0  0  0  0  0  0  0  0  0  0  0  0
   24.2261   38.0405   65.6745 S   0  0  0  0  0  0  0  0  0  0  0  0
   22.5807   38.5853   65.5591 C   0  0  0  0  0  0  0  0  0  0  0  0
   26.9579   42.0356   69.2016 O   0  0  0  0  0  0  0  0  0  0  0  0
   29.0888   42.5577   65.8265 O   0  5  0  0  0  0  0  0  0  0  0  0
   22.1901   38.5503   66.8122 N   0  0  0  0  0  0  0  0  0  0  0  0
   27.8234   40.6603   67.1355 O   0  0  0  0  0  0  0  0  0  0  0  0
   26.5155   42.5248   65.9306 O   0  0  0  0  0  0  0  0  0  0  0  0
   23.0027   38.1697   67.7737 C   0  0  2  0  0  0  0  0  0  0  0  0
   24.2666   37.8001   67.4444 C   0  0  2  0  0  0  0  0  0  0  0  0
   25.3913   37.3239   68.3259 C   0  0  0  0  0  0  0  0  0  0  0  0
   26.5512   38.3200   68.2596 C   0  0  0  0  0  0  0  0  0  0  0  0
   26.1438   39.5634   68.8340 O   0  0  0  0  0  0  0  0  0  0  0  0
  1 11  1  0  0  0  0
  3 13  1  1  0  0  0
  3 17  1  0  0  0  0
  3 20  1  0  0  0  0
  3 26  1  0  0  0  0
  4 14  1  0  0  0  0
  4 18  1  6  0  0  0
  4 21  2  0  0  0  0
  4 20  1  0  0  0  0
  5 19  1  0  0  0  0
  5  7  1  0  0  0  0
  6  7  2  0  0  0  0
  6 12  1  0  0  0  0
  7  8  1  0  0  0  0
  8  9  1  0  0  0  0
  8 10  2  0  0  0  0
 10 11  1  0  0  0  0
 11 12  2  0  0  0  0
 14 17  1  0  0  0  0
 15 23  1  0  0  0  0
 15 16  1  0  0  0  0
 16 19  1  0  0  0  0
 19 22  1  0  0  0  0
 22  2  1  6  0  0  0
 22 23  1  0  0  0  0
 23 24  1  1  0  0  0
 24 25  1  0  0  0  0
 25 26  1  0  0  0  0
M  CHG  1  18  -1
M  END
>  <CHROM.1>
-62.38267059,-53.79807824,63.14789425,65.80346590,-178.01808674,-64.55126899
24.37986209,40.47393368,67.16905022,3.14049755,0.21138895,2.91098313

>  <Name>
ligand

>  <RI>
0

>  <Rbt.Current_Directory>
/home/itssahil/PROJECTS/Mol_Feturizer/New_Systems/rnas/2HOL

>  <Rbt.Executable>
rbdock ($Id: //depot/dev/client3/rdock/2013.1/src/exe/rbdock.cxx#4 $)

>  <Rbt.Library>
libRbt.so (2013.1, Build901 2013/11/27)

>  <Rbt.Parameter_File>
/export/apps/rDock/src/rDock_2013.1_src/data/scripts/dock_solv.prm

>  <Rbt.Receptor>
prm/pocket_docking_4.prm

>  <SCORE>
-19.0846

>  <SCORE.INTER>
-14.9929

>  <SCORE.INTER.CONST>
1

>  <SCORE.INTER.POLAR>
0

>  <SCORE.INTER.ROT>
6

>  <SCORE.INTER.SOLV>
12.4703

>  <SCORE.INTER.VDW>
-21.752

>  <SCORE.INTER.norm>
-0.576649

>  <SCORE.INTRA>
-4.09172

>  <SCORE.INTRA.DIHEDRAL>
-4.00237

>  <SCORE.INTRA.DIHEDRAL.0>
9.33621

>  <SCORE.INTRA.POLAR>
0

>  <SCORE.INTRA.POLAR.0>
0

>  <SCORE.INTRA.REPUL>
0

>  <SCORE.INTRA.REPUL.0>
0

>  <SCORE.INTRA.SOLV>
-0.383993

>  <SCORE.INTRA.SOLV.lig_0>
-65.9238

>  <SCORE.INTRA.VDW>
-1.89854

>  <SCORE.INTRA.VDW.0>
-0.405582

>  <SCORE.INTRA.norm>
-0.157374

>  <SCORE.RESTR>
0

>  <SCORE.RESTR.CAVITY>
0

>  <SCORE.RESTR.norm>
0

>  <SCORE.SYSTEM>
0

>  <SCORE.SYSTEM.CONST>
0

>  <SCORE.SYSTEM.DIHEDRAL>
0

>  <SCORE.SYSTEM.SOLV>
0

>  <SCORE.SYSTEM.norm>
0

>  <SCORE.heavy>
26

>  <SCORE.norm>
-0.734023

>  <RMSD>
3.196

$$$$
ligand
 OpenBabel11021811443D
libRbt.so/2013.1/901 2013/11/27
 26 28  0  0  0  0  0  0  0  0999 V2000
   19.6524   44.7908   65.9900 C   0  0  0  0  0  0  0  0  0  0  0  0
   21.0071   38.6808   67.9097 C   0  0  0  0  0  0  0  0  0  0  0  0
   27.6322   38.3209   67.5604 P   0  0  1  0  0  0  0  0  0  0  0  0
   28.1729   40.8258   67.9066 P   0  0  1  0  0  0  0  0  0  0  0  0
   20.4205   39.2024   65.2165 C   0  0  0  0  0  0  0  0  0  0  0  0
   21.2863   41.5164   65.6718 C   0  0  0  0  0  0  0  0  0  0  0  0
   20.2157   40.6814   65.4211 C   0  0  0  0  0  0  0  0  0  0  0  0
   18.9386   41.2419   65.3617 C   0  0  0  0  0  0  0  0  0  0  0  0
   17.8304   40.4460   65.1132 N   0  0  0  0  0  0  0  0  0  0  0  0
   18.7995   42.5505   65.5527 N   0  0  0  0  0  0  0  0  0  0  0  0
   19.8494   43.3115   65.7845 C   0  0  0  0  0  0  0  0  0  0  0  0
   21.0686   42.8130   65.8472 N   0  0  0  0  0  0  0  0  0  0  0  0
   28.5419   37.4704   66.7599 O   0  0  0  0  0  0  0  0  0  0  0  0
   29.0556   40.0681   68.9240 O   0  0  0  0  0  0  0  0  0  0  0  0
   24.1219   38.3271   65.5613 S   0  0  0  0  0  0  0  0  0  0  0  0
   22.7109   38.7756   64.6527 C   0  0  0  0  0  0  0  0  0  0  0  0
   28.2135   38.4733   69.0526 O   0  0  0  0  0  0  0  0  0  0  0  0
   29.0740   41.8835   67.0944 O   0  5  0  0  0  0  0  0  0  0  0  0
   21.7910   38.8429   65.5871 N   0  0  0  0  0  0  0  0  0  0  0  0
   27.5181   39.7748   66.8773 O   0  0  0  0  0  0  0  0  0  0  0  0
   27.0514   41.5764   68.6592 O   0  0  0  0  0  0  0  0  0  0  0  0
   22.0746   38.5981   66.8478 C   0  0  2  0  0  0  0  0  0  0  0  0
   23.3493   38.2616   67.1709 C   0  0  2  0  0  0  0  0  0  0  0  0
   23.9470   37.9296   68.5130 C   0  0  0  0  0  0  0  0  0  0  0  0
   25.4034   38.3977   68.5553 C   0  0  0  0  0  0  0  0  0  0  0  0
   26.1734   37.6415   67.6187 O   0  0  0  0  0  0  0  0  0  0  0  0
  1 11  1  0  0  0  0
  3 13  1  6  0  0  0
  3 17  1  0  0  0  0
  3 20  1  0  0  0  0
  3 26  1  0  0  0  0
  4 14  1  0  0  0  0
  4 18  1  6  0  0  0
  4 21  2  0  0  0  0
  4 20  1  0  0  0  0
  5 19  1  0  0  0  0
  5  7  1  0  0  0  0
  6  7  2  0  0  0  0
  6 12  1  0  0  0  0
  7  8  1  0  0  0  0
  8  9  1  0  0  0  0
  8 10  2  0  0  0  0
 10 11  1  0  0  0  0
 11 12  2  0  0  0  0
 14 17  1  0  0  0  0
 15 23  1  0  0  0  0
 15 16  1  0  0  0  0
 16 19  1  0  0  0  0
 19 22  1  0  0  0  0
 22  2  1  6  0  0  0
 22 23  1  0  0  0  0
 23 24  1  1  0  0  0
 24 25  1  0  0  0  0
 25 26  1  0  0  0  0
M  CHG  1  18  -1
M  END
>  <CHROM.1>
-95.52336714,11.07155028,32.39584856,-65.75412103,172.02470352,171.75773244
24.19054641,39.88874014,66.83695529,-2.91521710,0.27153533,-3.12290563

>  <Name>
ligand

>  <RI>
0

>  <Rbt.Current_Directory>
/home/itssahil/PROJECTS/Mol_Feturizer/New_Systems/rnas/2HOL

>  <Rbt.Executable>
rbdock ($Id: //depot/dev/client3/rdock/2013.1/src/exe/rbdock.cxx#4 $)

>  <Rbt.Library>
libRbt.so (2013.1, Build901 2013/11/27)

>  <Rbt.Parameter_File>
/export/apps/rDock/src/rDock_2013.1_src/data/scripts/dock_solv.prm

>  <Rbt.Receptor>
prm/pocket_docking_3.prm

>  <SCORE>
-18.5791

>  <SCORE.INTER>
-15.0039

>  <SCORE.INTER.CONST>
1

>  <SCORE.INTER.POLAR>
0

>  <SCORE.INTER.ROT>
6

>  <SCORE.INTER.SOLV>
15.3818

>  <SCORE.INTER.VDW>
-22.7298

>  <SCORE.INTER.norm>
-0.577072

>  <SCORE.INTRA>
-3.67064

>  <SCORE.INTRA.DIHEDRAL>
-3.88782

>  <SCORE.INTRA.DIHEDRAL.0>
9.33621

>  <SCORE.INTRA.POLAR>
0

>  <SCORE.INTRA.POLAR.0>
0

>  <SCORE.INTRA.REPUL>
0

>  <SCORE.INTRA.REPUL.0>
0

>  <SCORE.INTRA.SOLV>
0.419338

>  <SCORE.INTRA.SOLV.lig_0>
-65.9238

>  <SCORE.INTRA.VDW>
-1.9364

>  <SCORE.INTRA.VDW.0>
-0.405582

>  <SCORE.INTRA.norm>
-0.141179

>  <SCORE.RESTR>
0.0954555

>  <SCORE.RESTR.CAVITY>
0.0954555

>  <SCORE.RESTR.norm>
0.00367137

>  <SCORE.SYSTEM>
0

>  <SCORE.SYSTEM.CONST>
0

>  <SCORE.SYSTEM.DIHEDRAL>
0

>  <SCORE.SYSTEM.SOLV>
0

>  <SCORE.SYSTEM.norm>
0

>  <SCORE.heavy>
26

>  <SCORE.norm>
-0.714579

>  <RMSD>
3.198

$$$$
ligand
 OpenBabel11021811443D
libRbt.so/2013.1/901 2013/11/27
 26 28  0  0  0  0  0  0  0  0999 V2000
   19.5079   43.4792   65.3878 C   0  0  0  0  0  0  0  0  0  0  0  0
   23.2310   37.7978   69.4056 C   0  0  0  0  0  0  0  0  0  0  0  0
   28.8841   38.0263   65.8172 P   0  0  1  0  0  0  0  0  0  0  0  0
   29.6462   40.4633   66.2250 P   0  0  1  0  0  0  0  0  0  0  0  0
   21.3590   38.5004   67.4380 C   0  0  0  0  0  0  0  0  0  0  0  0
   19.7106   39.8917   66.1500 C   0  0  0  0  0  0  0  0  0  0  0  0
   20.8702   39.8189   66.8959 C   0  0  0  0  0  0  0  0  0  0  0  0
   21.5783   40.9978   67.1355 C   0  0  0  0  0  0  0  0  0  0  0  0
   22.7492   40.9781   67.8786 N   0  0  0  0  0  0  0  0  0  0  0  0
   21.1165   42.1402   66.6355 N   0  0  0  0  0  0  0  0  0  0  0  0
   20.0026   42.1649   65.9329 C   0  0  0  0  0  0  0  0  0  0  0  0
   19.3107   41.0692   65.6886 N   0  0  0  0  0  0  0  0  0  0  0  0
   29.1948   37.3579   64.5333 O   0  0  0  0  0  0  0  0  0  0  0  0
   30.8942   39.5907   66.4883 O   0  0  0  0  0  0  0  0  0  0  0  0
   24.8028   38.1176   65.8322 S   0  0  0  0  0  0  0  0  0  0  0  0
   23.0993   38.4547   65.7902 C   0  0  0  0  0  0  0  0  0  0  0  0
   30.1696   37.9604   66.7821 O   0  0  0  0  0  0  0  0  0  0  0  0
   30.0356   41.6776   65.2429 O   0  5  0  0  0  0  0  0  0  0  0  0
   22.7562   38.2994   67.0480 N   0  0  0  0  0  0  0  0  0  0  0  0
   28.4983   39.5652   65.5408 O   0  0  0  0  0  0  0  0  0  0  0  0
   29.1256   41.0317   67.5642 O   0  0  0  0  0  0  0  0  0  0  0  0
   23.6404   37.9711   67.9647 C   0  0  2  0  0  0  0  0  0  0  0  0
   24.9295   37.7843   67.5828 C   0  0  2  0  0  0  0  0  0  0  0  0
   26.1325   37.4056   68.4063 C   0  0  0  0  0  0  0  0  0  0  0  0
   27.3976   37.9675   67.7538 C   0  0  0  0  0  0  0  0  0  0  0  0
   27.6430   37.2824   66.5240 O   0  0  0  0  0  0  0  0  0  0  0  0
  1 11  1  0  0  0  0
  3 13  1  6  0  0  0
  3 17  1  0  0  0  0
  3 20  1  0  0  0  0
  3 26  1  0  0  0  0
  4 14  1  0  0  0  0
  4 18  1  6  0  0  0
  4 21  2  0  0  0  0
  4 20  1  0  0  0  0
  5 19  1  0  0  0  0
  5  7  1  0  0  0  0
  6  7  2  0  0  0  0
  6 12  1  0  0  0  0
  7  8  1  0  0  0  0
  8  9  1  0  0  0  0
  8 10  2  0  0  0  0
 10 11  1  0  0  0  0
 11 12  2  0  0  0  0
 14 17  1  0  0  0  0
 15 23  1  0  0  0  0
 15 16  1  0  0  0  0
 16 19  1  0  0  0  0
 19 22  1  0  0  0  0
 22  2  1  6  0  0  0
 22 23  1  0  0  0  0
 23 24  1  1  0  0  0
 24 25  1  0  0  0  0
 25 26  1  0  0  0  0
M  CHG  1  18  -1
M  END
>  <CHROM.1>
-50.23605905,127.57744952,27.68277082,-68.60142917,173.94016317,179.76103954
25.44193025,39.37213131,66.56967864,-2.98690945,-0.09872830,2.82317564

>  <Name>
ligand

>  <RI>
0

>  <Rbt.Current_Directory>
/home/itssahil/PROJECTS/Mol_Feturizer/New_Systems/rnas/2HOL

>  <Rbt.Executable>
rbdock ($Id: //depot/dev/client3/rdock/2013.1/src/exe/rbdock.cxx#4 $)

>  <Rbt.Library>
libRbt.so (2013.1, Build901 2013/11/27)

>  <Rbt.Parameter_File>
/export/apps/rDock/src/rDock_2013.1_src/data/scripts/dock_solv.prm

>  <Rbt.Receptor>
prm/pocket_docking_4.prm

>  <SCORE>
-16.4161

>  <SCORE.INTER>
-14.0136

>  <SCORE.INTER.CONST>
1

>  <SCORE.INTER.POLAR>
0

>  <SCORE.INTER.ROT>
6

>  <SCORE.INTER.SOLV>
13.5612

>  <SCORE.INTER.VDW>
-21.4628

>  <SCORE.INTER.norm>
-0.538985

>  <SCORE.INTRA>
-2.40244

>  <SCORE.INTRA.DIHEDRAL>
-4.04297

>  <SCORE.INTRA.DIHEDRAL.0>
9.33621

>  <SCORE.INTRA.POLAR>
0

>  <SCORE.INTRA.POLAR.0>
0

>  <SCORE.INTRA.REPUL>
0

>  <SCORE.INTRA.REPUL.0>
0

>  <SCORE.INTRA.SOLV>
3.8358

>  <SCORE.INTRA.SOLV.lig_0>
-65.9238

>  <SCORE.INTRA.VDW>
-2.29885

>  <SCORE.INTRA.VDW.0>
-0.405582

>  <SCORE.INTRA.norm>
-0.0924017

>  <SCORE.RESTR>
0

>  <SCORE.RESTR.CAVITY>
0

>  <SCORE.RESTR.norm>
0

>  <SCORE.SYSTEM>
0

>  <SCORE.SYSTEM.CONST>
0

>  <SCORE.SYSTEM.DIHEDRAL>
0

>  <SCORE.SYSTEM.SOLV>
0

>  <SCORE.SYSTEM.norm>
0

>  <SCORE.heavy>
26

>  <SCORE.norm>
-0.631387

>  <RMSD>
3.203

$$$$
ligand
 OpenBabel11021811443D
libRbt.so/2013.1/901 2013/11/27
 26 28  0  0  0  0  0  0  0  0999 V2000
   19.8757   44.8107   65.9647 C   0  0  0  0  0  0  0  0  0  0  0  0
   20.8710   38.8801   67.7651 C   0  0  0  0  0  0  0  0  0  0  0  0
   27.0975   38.6069   66.5067 P   0  0  1  0  0  0  0  0  0  0  0  0
   29.4359   39.5442   67.0900 P   0  0  1  0  0  0  0  0  0  0  0  0
   19.9939   39.1816   65.1176 C   0  0  0  0  0  0  0  0  0  0  0  0
   21.1102   41.3640   65.6679 C   0  0  0  0  0  0  0  0  0  0  0  0
   19.9611   40.6716   65.3416 C   0  0  0  0  0  0  0  0  0  0  0  0
   18.7681   41.3868   65.2241 C   0  0  0  0  0  0  0  0  0  0  0  0
   17.5864   40.7378   64.8988 N   0  0  0  0  0  0  0  0  0  0  0  0
   18.7802   42.6997   65.4345 N   0  0  0  0  0  0  0  0  0  0  0  0
   19.9007   43.3214   65.7394 C   0  0  0  0  0  0  0  0  0  0  0  0
   21.0439   42.6750   65.8582 N   0  0  0  0  0  0  0  0  0  0  0  0
   26.8028   38.1566   65.1276 O   0  0  0  0  0  0  0  0  0  0  0  0
   29.5929   38.0069   67.0995 O   0  0  0  0  0  0  0  0  0  0  0  0
   23.5734   37.8501   65.1235 S   0  0  0  0  0  0  0  0  0  0  0  0
   22.1179   38.3864   64.3415 C   0  0  0  0  0  0  0  0  0  0  0  0
   27.8850   37.4461   67.2942 O   0  0  0  0  0  0  0  0  0  0  0  0
   30.6134   40.2004   66.2106 O   0  5  0  0  0  0  0  0  0  0  0  0
   21.3478   38.6801   65.3635 N   0  0  0  0  0  0  0  0  0  0  0  0
   28.0088   39.9338   66.4542 O   0  0  0  0  0  0  0  0  0  0  0  0
   29.5172   40.0773   68.5381 O   0  0  0  0  0  0  0  0  0  0  0  0
   21.7671   38.5371   66.6019 C   0  0  2  0  0  0  0  0  0  0  0  0
   23.0231   38.0663   66.8095 C   0  0  2  0  0  0  0  0  0  0  0  0
   23.7517   37.8032   68.1013 C   0  0  0  0  0  0  0  0  0  0  0  0
   25.2548   37.7049   67.8310 C   0  0  0  0  0  0  0  0  0  0  0  0
   25.7188   38.9350   67.2713 O   0  0  0  0  0  0  0  0  0  0  0  0
  1 11  1  0  0  0  0
  3 13  1  6  0  0  0
  3 17  1  0  0  0  0
  3 20  1  0  0  0  0
  3 26  1  0  0  0  0
  4 14  1  0  0  0  0
  4 18  1  6  0  0  0
  4 21  2  0  0  0  0
  4 20  1  0  0  0  0
  5 19  1  0  0  0  0
  5  7  1  0  0  0  0
  6  7  2  0  0  0  0
  6 12  1  0  0  0  0
  7  8  1  0  0  0  0
  8  9  1  0  0  0  0
  8 10  2  0  0  0  0
 10 11  1  0  0  0  0
 11 12  2  0  0  0  0
 14 17  1  0  0  0  0
 15 23  1  0  0  0  0
 15 16  1  0  0  0  0
 16 19  1  0  0  0  0
 19 22  1  0  0  0  0
 22  2  1  1  0  0  0
 22 23  1  0  0  0  0
 23 24  1  6  0  0  0
 24 25  1  0  0  0  0
 25 26  1  0  0  0  0
M  CHG  1  18  -1
M  END
>  <CHROM.1>
-103.11795869,2.62394097,17.54086639,60.26747090,-158.80994732,86.31885350
24.20027869,39.58604380,66.29768773,-2.89348159,0.15859182,-3.13385315

>  <Name>
ligand

>  <RI>
0

>  <Rbt.Current_Directory>
/home/itssahil/PROJECTS/Mol_Feturizer/New_Systems/rnas/2HOL

>  <Rbt.Executable>
rbdock ($Id: //depot/dev/client3/rdock/2013.1/src/exe/rbdock.cxx#4 $)

>  <Rbt.Library>
libRbt.so (2013.1, Build901 2013/11/27)

>  <Rbt.Parameter_File>
/export/apps/rDock/src/rDock_2013.1_src/data/scripts/dock_solv.prm

>  <Rbt.Receptor>
prm/pocket_docking_4.prm

>  <SCORE>
-18.6567

>  <SCORE.INTER>
-16.9068

>  <SCORE.INTER.CONST>
1

>  <SCORE.INTER.POLAR>
0

>  <SCORE.INTER.ROT>
6

>  <SCORE.INTER.SOLV>
18.5166

>  <SCORE.INTER.VDW>
-25.0434

>  <SCORE.INTER.norm>
-0.65026

>  <SCORE.INTRA>
-1.74989

>  <SCORE.INTRA.DIHEDRAL>
-1.68832

>  <SCORE.INTRA.DIHEDRAL.0>
9.33621

>  <SCORE.INTRA.POLAR>
0

>  <SCORE.INTRA.POLAR.0>
0

>  <SCORE.INTRA.REPUL>
0

>  <SCORE.INTRA.REPUL.0>
0

>  <SCORE.INTRA.SOLV>
-0.324624

>  <SCORE.INTRA.SOLV.lig_0>
-65.9238

>  <SCORE.INTRA.VDW>
-0.743418

>  <SCORE.INTRA.VDW.0>
-0.405582

>  <SCORE.INTRA.norm>
-0.0673034

>  <SCORE.RESTR>
0

>  <SCORE.RESTR.CAVITY>
0

>  <SCORE.RESTR.norm>
0

>  <SCORE.SYSTEM>
0

>  <SCORE.SYSTEM.CONST>
0

>  <SCORE.SYSTEM.DIHEDRAL>
0

>  <SCORE.SYSTEM.SOLV>
0

>  <SCORE.SYSTEM.norm>
0

>  <SCORE.heavy>
26

>  <SCORE.norm>
-0.717564

>  <RMSD>
3.212

$$$$
ligand
 OpenBabel11021811443D
libRbt.so/2013.1/901 2013/11/27
 26 28  0  0  0  0  0  0  0  0999 V2000
   16.8090   40.4420   63.9244 C   0  0  0  0  0  0  0  0  0  0  0  0
   23.4616   40.8098   65.5906 C   0  0  0  0  0  0  0  0  0  0  0  0
   27.6066   42.1514   66.7474 P   0  0  1  0  0  0  0  0  0  0  0  0
   27.7114   39.6035   67.1762 P   0  0  1  0  0  0  0  0  0  0  0  0
   21.3667   42.1709   66.8666 C   0  0  0  0  0  0  0  0  0  0  0  0
   19.2935   42.6251   65.5222 C   0  0  0  0  0  0  0  0  0  0  0  0
   20.1606   41.7119   66.0882 C   0  0  0  0  0  0  0  0  0  0  0  0
   19.8921   40.3523   65.9207 C   0  0  0  0  0  0  0  0  0  0  0  0
   20.7320   39.3950   66.4699 N   0  0  0  0  0  0  0  0  0  0  0  0
   18.8149   39.9881   65.2312 N   0  0  0  0  0  0  0  0  0  0  0  0
   18.0165   40.8933   64.7039 C   0  0  0  0  0  0  0  0  0  0  0  0
   18.2420   42.1850   64.8441 N   0  0  0  0  0  0  0  0  0  0  0  0
   28.0105   43.0988   67.8109 O   0  0  0  0  0  0  0  0  0  0  0  0
   29.1602   40.0265   66.8443 O   0  0  0  0  0  0  0  0  0  0  0  0
   23.3462   44.6251   64.7116 S   0  0  0  0  0  0  0  0  0  0  0  0
   22.0678   44.2052   65.8103 C   0  0  0  0  0  0  0  0  0  0  0  0
   28.9161   41.6020   65.9916 O   0  0  0  0  0  0  0  0  0  0  0  0
   27.7048   38.7075   68.5132 O   0  5  0  0  0  0  0  0  0  0  0  0
   22.2636   42.9184   65.9825 N   0  0  0  0  0  0  0  0  0  0  0  0
   26.8081   40.9167   67.4044 O   0  0  0  0  0  0  0  0  0  0  0  0
   27.1355   38.7800   66.0023 O   0  0  0  0  0  0  0  0  0  0  0  0
   23.2490   42.2879   65.3815 C   0  0  2  0  0  0  0  0  0  0  0  0
   24.0666   42.9970   64.5621 C   0  0  2  0  0  0  0  0  0  0  0  0
   25.2531   42.5395   63.7548 C   0  0  0  0  0  0  0  0  0  0  0  0
   26.3096   41.9449   64.6887 C   0  0  0  0  0  0  0  0  0  0  0  0
   26.6524   42.9040   65.6910 O   0  0  0  0  0  0  0  0  0  0  0  0
  1 11  1  0  0  0  0
  3 13  1  1  0  0  0
  3 17  1  0  0  0  0
  3 20  1  0  0  0  0
  3 26  1  0  0  0  0
  4 14  1  0  0  0  0
  4 18  1  1  0  0  0
  4 21  2  0  0  0  0
  4 20  1  0  0  0  0
  5 19  1  0  0  0  0
  5  7  1  0  0  0  0
  6  7  2  0  0  0  0
  6 12  1  0  0  0  0
  7  8  1  0  0  0  0
  8  9  1  0  0  0  0
  8 10  2  0  0  0  0
 10 11  1  0  0  0  0
 11 12  2  0  0  0  0
 14 17  1  0  0  0  0
 15 23  1  0  0  0  0
 15 16  1  0  0  0  0
 16 19  1  0  0  0  0
 19 22  1  0  0  0  0
 22  2  1  6  0  0  0
 22 23  1  0  0  0  0
 23 24  1  1  0  0  0
 24 25  1  0  0  0  0
 25 26  1  0  0  0  0
M  CHG  1  18  -1
M  END
>  <CHROM.1>
86.41713222,-62.66503734,120.46326793,-55.57752318,172.43533252,179.45103864
24.11015564,41.56660357,65.93904808,3.01258914,-0.15909729,-0.31840838

>  <Name>
ligand

>  <RI>
0

>  <Rbt.Current_Directory>
/home/itssahil/PROJECTS/Mol_Feturizer/New_Systems/rnas/2HOL

>  <Rbt.Executable>
rbdock ($Id: //depot/dev/client3/rdock/2013.1/src/exe/rbdock.cxx#4 $)

>  <Rbt.Library>
libRbt.so (2013.1, Build901 2013/11/27)

>  <Rbt.Parameter_File>
/export/apps/rDock/src/rDock_2013.1_src/data/scripts/dock_solv.prm

>  <Rbt.Receptor>
prm/pocket_docking_4.prm

>  <SCORE>
-19.5718

>  <SCORE.INTER>
-16.6061

>  <SCORE.INTER.CONST>
1

>  <SCORE.INTER.POLAR>
0

>  <SCORE.INTER.ROT>
6

>  <SCORE.INTER.SOLV>
8.3044

>  <SCORE.INTER.VDW>
-21.4389

>  <SCORE.INTER.norm>
-0.638698

>  <SCORE.INTRA>
-2.97021

>  <SCORE.INTRA.DIHEDRAL>
-4.41714

>  <SCORE.INTRA.DIHEDRAL.0>
9.33621

>  <SCORE.INTRA.POLAR>
0

>  <SCORE.INTRA.POLAR.0>
0

>  <SCORE.INTRA.REPUL>
0

>  <SCORE.INTRA.REPUL.0>
0

>  <SCORE.INTRA.SOLV>
2.70624

>  <SCORE.INTRA.SOLV.lig_0>
-65.9238

>  <SCORE.INTRA.VDW>
-2.11476

>  <SCORE.INTRA.VDW.0>
-0.405582

>  <SCORE.INTRA.norm>
-0.114239

>  <SCORE.RESTR>
0.0045444

>  <SCORE.RESTR.CAVITY>
0.0045444

>  <SCORE.RESTR.norm>
0.000174785

>  <SCORE.SYSTEM>
0

>  <SCORE.SYSTEM.CONST>
0

>  <SCORE.SYSTEM.DIHEDRAL>
0

>  <SCORE.SYSTEM.SOLV>
0

>  <SCORE.SYSTEM.norm>
0

>  <SCORE.heavy>
26

>  <SCORE.norm>
-0.752762

>  <RMSD>
3.239

$$$$
ligand
 OpenBabel11021811443D
libRbt.so/2013.1/901 2013/11/27
 26 28  0  0  0  0  0  0  0  0999 V2000
   19.7003   44.2466   65.8954 C   0  0  0  0  0  0  0  0  0  0  0  0
   24.3343   38.8936   65.3399 C   0  0  0  0  0  0  0  0  0  0  0  0
   26.6815   41.9281   68.8129 P   0  0  1  0  0  0  0  0  0  0  0  0
   27.7651   42.9572   66.7027 P   0  0  1  0  0  0  0  0  0  0  0  0
   21.5463   38.8661   65.6497 C   0  0  0  0  0  0  0  0  0  0  0  0
   21.9437   41.3385   65.8528 C   0  0  0  0  0  0  0  0  0  0  0  0
   21.0563   40.2898   65.7146 C   0  0  0  0  0  0  0  0  0  0  0  0
   19.6935   40.5818   65.6363 C   0  0  0  0  0  0  0  0  0  0  0  0
   18.7615   39.5641   65.4975 N   0  0  0  0  0  0  0  0  0  0  0  0
   19.3011   41.8506   65.7025 N   0  0  0  0  0  0  0  0  0  0  0  0
   20.1827   42.8210   65.8298 C   0  0  0  0  0  0  0  0  0  0  0  0
   21.4767   42.5787   65.9069 N   0  0  0  0  0  0  0  0  0  0  0  0
   26.7838   42.6269   70.1140 O   0  0  0  0  0  0  0  0  0  0  0  0
   26.4287   43.7102   66.8898 O   0  0  0  0  0  0  0  0  0  0  0  0
   23.2018   38.0731   68.9986 S   0  0  0  0  0  0  0  0  0  0  0  0
   21.8265   38.3283   67.9688 C   0  0  0  0  0  0  0  0  0  0  0  0
   25.4933   42.5790   67.9455 O   0  0  0  0  0  0  0  0  0  0  0  0
   28.9542   44.0183   66.4776 O   0  5  0  0  0  0  0  0  0  0  0  0
   22.3919   38.5867   66.8123 N   0  0  0  0  0  0  0  0  0  0  0  0
   28.0723   42.0755   68.0145 O   0  0  0  0  0  0  0  0  0  0  0  0
   27.6634   42.0297   65.4710 O   0  0  0  0  0  0  0  0  0  0  0  0
   23.6999   38.5964   66.6752 C   0  0  2  0  0  0  0  0  0  0  0  0
   24.4668   38.3399   67.7655 C   0  0  2  0  0  0  0  0  0  0  0  0
   25.9664   38.2902   67.8979 C   0  0  0  0  0  0  0  0  0  0  0  0
   26.5360   39.7077   67.8070 C   0  0  0  0  0  0  0  0  0  0  0  0
   26.3714   40.3679   69.0636 O   0  0  0  0  0  0  0  0  0  0  0  0
  1 11  1  0  0  0  0
  3 13  1  1  0  0  0
  3 17  1  0  0  0  0
  3 20  1  0  0  0  0
  3 26  1  0  0  0  0
  4 14  1  0  0  0  0
  4 18  1  6  0  0  0
  4 21  2  0  0  0  0
  4 20  1  0  0  0  0
  5 19  1  0  0  0  0
  5  7  1  0  0  0  0
  6  7  2  0  0  0  0
  6 12  1  0  0  0  0
  7  8  1  0  0  0  0
  8  9  1  0  0  0  0
  8 10  2  0  0  0  0
 10 11  1  0  0  0  0
 11 12  2  0  0  0  0
 14 17  1  0  0  0  0
 15 23  1  0  0  0  0
 15 16  1  0  0  0  0
 16 19  1  0  0  0  0
 19 22  1  0  0  0  0
 22  2  1  1  0  0  0
 22 23  1  0  0  0  0
 23 24  1  6  0  0  0
 24 25  1  0  0  0  0
 25 26  1  0  0  0  0
M  CHG  1  18  -1
M  END
>  <CHROM.1>
79.14144798,53.90059638,-108.41388434,79.36142664,-167.73533918,-169.22660232
24.26939635,40.98257748,67.12948982,2.96116062,0.29144869,2.80731647

>  <Name>
ligand

>  <RI>
0

>  <Rbt.Current_Directory>
/home/itssahil/PROJECTS/Mol_Feturizer/New_Systems/rnas/2HOL

>  <Rbt.Executable>
rbdock ($Id: //depot/dev/client3/rdock/2013.1/src/exe/rbdock.cxx#4 $)

>  <Rbt.Library>
libRbt.so (2013.1, Build901 2013/11/27)

>  <Rbt.Parameter_File>
/export/apps/rDock/src/rDock_2013.1_src/data/scripts/dock_solv.prm

>  <Rbt.Receptor>
prm/pocket_docking_6.prm

>  <SCORE>
-17.8792

>  <SCORE.INTER>
-14.4913

>  <SCORE.INTER.CONST>
1

>  <SCORE.INTER.POLAR>
0

>  <SCORE.INTER.ROT>
6

>  <SCORE.INTER.SOLV>
14.9343

>  <SCORE.INTER.VDW>
-22.239

>  <SCORE.INTER.norm>
-0.557358

>  <SCORE.INTRA>
-3.38792

>  <SCORE.INTRA.DIHEDRAL>
-2.50879

>  <SCORE.INTRA.DIHEDRAL.0>
9.33621

>  <SCORE.INTRA.POLAR>
0

>  <SCORE.INTRA.POLAR.0>
0

>  <SCORE.INTRA.REPUL>
0

>  <SCORE.INTRA.REPUL.0>
0

>  <SCORE.INTRA.SOLV>
0.326153

>  <SCORE.INTRA.SOLV.lig_0>
-65.9238

>  <SCORE.INTRA.VDW>
-2.2966

>  <SCORE.INTRA.VDW.0>
-0.405582

>  <SCORE.INTRA.norm>
-0.130304

>  <SCORE.RESTR>
0

>  <SCORE.RESTR.CAVITY>
0

>  <SCORE.RESTR.norm>
0

>  <SCORE.SYSTEM>
0

>  <SCORE.SYSTEM.CONST>
0

>  <SCORE.SYSTEM.DIHEDRAL>
0

>  <SCORE.SYSTEM.SOLV>
0

>  <SCORE.SYSTEM.norm>
0

>  <SCORE.heavy>
26

>  <SCORE.norm>
-0.687663

>  <RMSD>
3.241

$$$$
ligand
 OpenBabel11021811443D
libRbt.so/2013.1/901 2013/11/27
 26 28  0  0  0  0  0  0  0  0999 V2000
   20.4692   44.8478   66.0745 C   0  0  0  0  0  0  0  0  0  0  0  0
   21.1119   38.6679   67.8934 C   0  0  0  0  0  0  0  0  0  0  0  0
   27.0068   39.7813   68.0057 P   0  0  1  0  0  0  0  0  0  0  0  0
   27.8657   41.7703   66.5940 P   0  0  1  0  0  0  0  0  0  0  0  0
   20.3368   39.2151   65.2535 C   0  0  0  0  0  0  0  0  0  0  0  0
   21.5548   41.3526   65.7627 C   0  0  0  0  0  0  0  0  0  0  0  0
   20.3703   40.7061   65.4706 C   0  0  0  0  0  0  0  0  0  0  0  0
   19.2045   41.4686   65.3812 C   0  0  0  0  0  0  0  0  0  0  0  0
   17.9892   40.8668   65.0907 N   0  0  0  0  0  0  0  0  0  0  0  0
   19.2753   42.7809   65.5844 N   0  0  0  0  0  0  0  0  0  0  0  0
   20.4279   43.3578   65.8562 C   0  0  0  0  0  0  0  0  0  0  0  0
   21.5468   42.6659   65.9480 N   0  0  0  0  0  0  0  0  0  0  0  0
   27.8399   39.2360   69.1013 O   0  0  0  0  0  0  0  0  0  0  0  0
   27.3194   42.3945   67.8978 O   0  0  0  0  0  0  0  0  0  0  0  0
   23.8771   37.7829   65.2643 S   0  0  0  0  0  0  0  0  0  0  0  0
   22.4649   38.4253   64.4831 C   0  0  0  0  0  0  0  0  0  0  0  0
   26.2311   41.0925   68.5221 O   0  0  0  0  0  0  0  0  0  0  0  0
   29.3336   42.3564   66.2902 O   0  5  0  0  0  0  0  0  0  0  0  0
   21.6673   38.6552   65.5004 N   0  0  0  0  0  0  0  0  0  0  0  0
   27.9489   40.1707   66.7589 O   0  0  0  0  0  0  0  0  0  0  0  0
   26.9202   42.1188   65.4227 O   0  0  0  0  0  0  0  0  0  0  0  0
   22.0389   38.3970   66.7354 C   0  0  2  0  0  0  0  0  0  0  0  0
   23.2739   37.8737   66.9435 C   0  0  2  0  0  0  0  0  0  0  0  0
   23.9494   37.4824   68.2317 C   0  0  0  0  0  0  0  0  0  0  0  0
   24.9919   38.5386   68.6051 C   0  0  0  0  0  0  0  0  0  0  0  0
   25.9363   38.6717   67.5410 O   0  0  0  0  0  0  0  0  0  0  0  0
  1 11  1  0  0  0  0
  3 13  1  1  0  0  0
  3 17  1  0  0  0  0
  3 20  1  0  0  0  0
  3 26  1  0  0  0  0
  4 14  1  0  0  0  0
  4 18  1  6  0  0  0
  4 21  2  0  0  0  0
  4 20  1  0  0  0  0
  5 19  1  0  0  0  0
  5  7  1  0  0  0  0
  6  7  2  0  0  0  0
  6 12  1  0  0  0  0
  7  8  1  0  0  0  0
  8  9  1  0  0  0  0
  8 10  2  0  0  0  0
 10 11  1  0  0  0  0
 11 12  2  0  0  0  0
 14 17  1  0  0  0  0
 15 23  1  0  0  0  0
 15 16  1  0  0  0  0
 16 19  1  0  0  0  0
 19 22  1  0  0  0  0
 22  2  1  6  0  0  0
 22 23  1  0  0  0  0
 23 24  1  1  0  0  0
 24 25  1  0  0  0  0
 25 26  1  0  0  0  0
M  CHG  1  18  -1
M  END
>  <CHROM.1>
-97.57334812,4.10741825,75.64799469,-57.59833705,-179.40076220,69.91813978
24.02180416,40.35445099,66.60663007,-3.05949402,0.22163678,2.99795204

>  <Name>
ligand

>  <RI>
0

>  <Rbt.Current_Directory>
/home/itssahil/PROJECTS/Mol_Feturizer/New_Systems/rnas/2HOL

>  <Rbt.Executable>
rbdock ($Id: //depot/dev/client3/rdock/2013.1/src/exe/rbdock.cxx#4 $)

>  <Rbt.Library>
libRbt.so (2013.1, Build901 2013/11/27)

>  <Rbt.Parameter_File>
/export/apps/rDock/src/rDock_2013.1_src/data/scripts/dock_solv.prm

>  <Rbt.Receptor>
prm/pocket_docking_4.prm

>  <SCORE>
-17.9178

>  <SCORE.INTER>
-14.0856

>  <SCORE.INTER.CONST>
1

>  <SCORE.INTER.POLAR>
0

>  <SCORE.INTER.ROT>
6

>  <SCORE.INTER.SOLV>
13.9668

>  <SCORE.INTER.VDW>
-21.646

>  <SCORE.INTER.norm>
-0.541755

>  <SCORE.INTRA>
-3.83215

>  <SCORE.INTRA.DIHEDRAL>
-4.10555

>  <SCORE.INTRA.DIHEDRAL.0>
9.33621

>  <SCORE.INTRA.POLAR>
0

>  <SCORE.INTRA.POLAR.0>
0

>  <SCORE.INTRA.REPUL>
0

>  <SCORE.INTRA.REPUL.0>
0

>  <SCORE.INTRA.SOLV>
-0.604703

>  <SCORE.INTRA.SOLV.lig_0>
-65.9238

>  <SCORE.INTRA.VDW>
-1.47702

>  <SCORE.INTRA.VDW.0>
-0.405582

>  <SCORE.INTRA.norm>
-0.14739

>  <SCORE.RESTR>
0

>  <SCORE.RESTR.CAVITY>
0

>  <SCORE.RESTR.norm>
0

>  <SCORE.SYSTEM>
0

>  <SCORE.SYSTEM.CONST>
0

>  <SCORE.SYSTEM.DIHEDRAL>
0

>  <SCORE.SYSTEM.SOLV>
0

>  <SCORE.SYSTEM.norm>
0

>  <SCORE.heavy>
26

>  <SCORE.norm>
-0.689145

>  <RMSD>
3.255

$$$$
ligand
 OpenBabel11021811443D
libRbt.so/2013.1/901 2013/11/27
 26 28  0  0  0  0  0  0  0  0999 V2000
   15.7102   39.3930   63.5360 C   0  0  0  0  0  0  0  0  0  0  0  0
   22.4297   42.7385   65.7503 C   0  0  0  0  0  0  0  0  0  0  0  0
   27.0844   39.1397   66.7377 P   0  0  1  0  0  0  0  0  0  0  0  0
   26.1128   38.3683   69.0066 P   0  0  1  0  0  0  0  0  0  0  0  0
   20.2967   41.0633   66.4672 C   0  0  0  0  0  0  0  0  0  0  0  0
   18.6530   39.3111   65.7327 C   0  0  0  0  0  0  0  0  0  0  0  0
   19.0826   40.6226   65.6908 C   0  0  0  0  0  0  0  0  0  0  0  0
   18.3635   41.5301   64.9111 C   0  0  0  0  0  0  0  0  0  0  0  0
   18.7543   42.8587   64.8352 N   0  0  0  0  0  0  0  0  0  0  0  0
   17.3007   41.1006   64.2371 N   0  0  0  0  0  0  0  0  0  0  0  0
   16.9229   39.8408   64.3094 C   0  0  0  0  0  0  0  0  0  0  0  0
   17.5805   38.9587   65.0363 N   0  0  0  0  0  0  0  0  0  0  0  0
   28.4152   39.7858   66.6830 O   0  0  0  0  0  0  0  0  0  0  0  0
   27.1077   37.2631   68.5860 O   0  0  0  0  0  0  0  0  0  0  0  0
   23.1201   38.9588   64.9891 S   0  0  0  0  0  0  0  0  0  0  0  0
   21.5461   39.1697   65.6930 C   0  0  0  0  0  0  0  0  0  0  0  0
   27.2649   37.5427   66.8066 O   0  0  0  0  0  0  0  0  0  0  0  0
   26.3964   38.7961   70.5320 O   0  5  0  0  0  0  0  0  0  0  0  0
   21.4974   40.4690   65.8756 N   0  0  0  0  0  0  0  0  0  0  0  0
   26.2952   39.6479   68.0464 O   0  0  0  0  0  0  0  0  0  0  0  0
   24.6686   37.8330   68.8825 O   0  0  0  0  0  0  0  0  0  0  0  0
   22.5014   41.2477   65.5354 C   0  0  2  0  0  0  0  0  0  0  0  0
   23.6075   40.6776   64.9932 C   0  0  2  0  0  0  0  0  0  0  0  0
   24.8876   41.3166   64.5223 C   0  0  0  0  0  0  0  0  0  0  0  0
   26.0274   40.9408   65.4720 C   0  0  0  0  0  0  0  0  0  0  0  0
   26.2431   39.5291   65.4210 O   0  0  0  0  0  0  0  0  0  0  0  0
  1 11  1  0  0  0  0
  3 13  1  6  0  0  0
  3 17  1  0  0  0  0
  3 20  1  0  0  0  0
  3 26  1  0  0  0  0
  4 14  1  0  0  0  0
  4 18  1  1  0  0  0
  4 21  2  0  0  0  0
  4 20  1  0  0  0  0
  5 19  1  0  0  0  0
  5  7  1  0  0  0  0
  6  7  2  0  0  0  0
  6 12  1  0  0  0  0
  7  8  1  0  0  0  0
  8  9  1  0  0  0  0
  8 10  2  0  0  0  0
 10 11  1  0  0  0  0
 11 12  2  0  0  0  0
 14 17  1  0  0  0  0
 15 23  1  0  0  0  0
 15 16  1  0  0  0  0
 16 19  1  0  0  0  0
 19 22  1  0  0  0  0
 22  2  1  1  0  0  0
 22 23  1  0  0  0  0
 23 24  1  6  0  0  0
 24 25  1  0  0  0  0
 25 26  1  0  0  0  0
M  CHG  1  18  -1
M  END
>  <CHROM.1>
-53.09281210,69.06131165,-70.18586612,63.89070638,-162.23485260,-64.36105557
23.15664705,39.73864420,66.26439163,2.77461545,-0.09888735,-0.79787974

>  <Name>
ligand

>  <RI>
0

>  <Rbt.Current_Directory>
/home/itssahil/PROJECTS/Mol_Feturizer/New_Systems/rnas/2HOL

>  <Rbt.Executable>
rbdock ($Id: //depot/dev/client3/rdock/2013.1/src/exe/rbdock.cxx#4 $)

>  <Rbt.Library>
libRbt.so (2013.1, Build901 2013/11/27)

>  <Rbt.Parameter_File>
/export/apps/rDock/src/rDock_2013.1_src/data/scripts/dock_solv.prm

>  <Rbt.Receptor>
prm/pocket_docking_3.prm

>  <SCORE>
-20.3212

>  <SCORE.INTER>
-17.538

>  <SCORE.INTER.CONST>
1

>  <SCORE.INTER.POLAR>
0

>  <SCORE.INTER.ROT>
6

>  <SCORE.INTER.SOLV>
22.4036

>  <SCORE.INTER.VDW>
-26.7599

>  <SCORE.INTER.norm>
-0.674538

>  <SCORE.INTRA>
-2.78319

>  <SCORE.INTRA.DIHEDRAL>
-2.67217

>  <SCORE.INTRA.DIHEDRAL.0>
9.33621

>  <SCORE.INTRA.POLAR>
0

>  <SCORE.INTRA.POLAR.0>
0

>  <SCORE.INTRA.REPUL>
0

>  <SCORE.INTRA.REPUL.0>
0

>  <SCORE.INTRA.SOLV>
0.855225

>  <SCORE.INTRA.SOLV.lig_0>
-65.9238

>  <SCORE.INTRA.VDW>
-1.87472

>  <SCORE.INTRA.VDW.0>
-0.405582

>  <SCORE.INTRA.norm>
-0.107046

>  <SCORE.RESTR>
0

>  <SCORE.RESTR.CAVITY>
0

>  <SCORE.RESTR.norm>
0

>  <SCORE.SYSTEM>
0

>  <SCORE.SYSTEM.CONST>
0

>  <SCORE.SYSTEM.DIHEDRAL>
0

>  <SCORE.SYSTEM.SOLV>
0

>  <SCORE.SYSTEM.norm>
0

>  <SCORE.heavy>
26

>  <SCORE.norm>
-0.781584

>  <RMSD>
3.258

$$$$
ligand
 OpenBabel11021811443D
libRbt.so/2013.1/901 2013/11/27
 26 28  0  0  0  0  0  0  0  0999 V2000
   19.5638   44.6099   65.9752 C   0  0  0  0  0  0  0  0  0  0  0  0
   23.7478   38.5189   65.6557 C   0  0  0  0  0  0  0  0  0  0  0  0
   27.7101   39.8836   69.3676 P   0  0  1  0  0  0  0  0  0  0  0  0
   27.1058   42.2079   68.4091 P   0  0  1  0  0  0  0  0  0  0  0  0
   21.0096   39.1194   65.5487 C   0  0  0  0  0  0  0  0  0  0  0  0
   21.5535   41.5229   66.0374 C   0  0  0  0  0  0  0  0  0  0  0  0
   20.6255   40.5723   65.6613 C   0  0  0  0  0  0  0  0  0  0  0  0
   19.3223   40.9912   65.3875 C   0  0  0  0  0  0  0  0  0  0  0  0
   18.3530   40.0755   65.0064 N   0  0  0  0  0  0  0  0  0  0  0  0
   19.0222   42.2815   65.5032 N   0  0  0  0  0  0  0  0  0  0  0  0
   19.9404   43.1558   65.8606 C   0  0  0  0  0  0  0  0  0  0  0  0
   21.1799   42.7925   66.1263 N   0  0  0  0  0  0  0  0  0  0  0  0
   29.0999   39.5937   69.7870 O   0  0  0  0  0  0  0  0  0  0  0  0
   27.1359   42.3889   69.9435 O   0  0  0  0  0  0  0  0  0  0  0  0
   21.9255   38.0027   69.0842 S   0  0  0  0  0  0  0  0  0  0  0  0
   20.8119   38.5513   67.8691 C   0  0  0  0  0  0  0  0  0  0  0  0
   26.9535   40.6903   70.5357 O   0  0  0  0  0  0  0  0  0  0  0  0
   27.9695   43.3737   67.7124 O   0  5  0  0  0  0  0  0  0  0  0  0
   21.5876   38.6670   66.8161 N   0  0  0  0  0  0  0  0  0  0  0  0
   27.7297   40.7739   68.0258 O   0  0  0  0  0  0  0  0  0  0  0  0
   25.6447   42.2833   67.9120 O   0  0  0  0  0  0  0  0  0  0  0  0
   22.8702   38.3822   66.8743 C   0  0  2  0  0  0  0  0  0  0  0  0
   23.3883   37.9693   68.0590 C   0  0  2  0  0  0  0  0  0  0  0  0
   24.8019   37.5858   68.4106 C   0  0  0  0  0  0  0  0  0  0  0  0
   25.6564   38.8481   68.5468 C   0  0  0  0  0  0  0  0  0  0  0  0
   26.9357   38.5011   69.0807 O   0  0  0  0  0  0  0  0  0  0  0  0
  1 11  1  0  0  0  0
  3 13  1  1  0  0  0
  3 17  1  0  0  0  0
  3 20  1  0  0  0  0
  3 26  1  0  0  0  0
  4 14  1  0  0  0  0
  4 18  1  6  0  0  0
  4 21  2  0  0  0  0
  4 20  1  0  0  0  0
  5 19  1  0  0  0  0
  5  7  1  0  0  0  0
  6  7  2  0  0  0  0
  6 12  1  0  0  0  0
  7  8  1  0  0  0  0
  8  9  1  0  0  0  0
  8 10  2  0  0  0  0
 10 11  1  0  0  0  0
 11 12  2  0  0  0  0
 14 17  1  0  0  0  0
 15 23  1  0  0  0  0
 15 16  1  0  0  0  0
 16 19  1  0  0  0  0
 19 22  1  0  0  0  0
 22  2  1  1  0  0  0
 22 23  1  0  0  0  0
 23 24  1  6  0  0  0
 24 25  1  0  0  0  0
 25 26  1  0  0  0  0
M  CHG  1  18  -1
M  END
>  <CHROM.1>
69.48085073,55.40770849,-104.11246254,171.04358625,-173.14109946,-173.96660378
23.96644843,40.41673195,67.69455659,-3.01625311,0.37983819,2.91398071

>  <Name>
ligand

>  <RI>
0

>  <Rbt.Current_Directory>
/home/itssahil/PROJECTS/Mol_Feturizer/New_Systems/rnas/2HOL

>  <Rbt.Executable>
rbdock ($Id: //depot/dev/client3/rdock/2013.1/src/exe/rbdock.cxx#4 $)

>  <Rbt.Library>
libRbt.so (2013.1, Build901 2013/11/27)

>  <Rbt.Parameter_File>
/export/apps/rDock/src/rDock_2013.1_src/data/scripts/dock_solv.prm

>  <Rbt.Receptor>
prm/pocket_docking_7.prm

>  <SCORE>
-21.3767

>  <SCORE.INTER>
-17.4683

>  <SCORE.INTER.CONST>
1

>  <SCORE.INTER.POLAR>
0

>  <SCORE.INTER.ROT>
6

>  <SCORE.INTER.SOLV>
16.1572

>  <SCORE.INTER.VDW>
-24.6312

>  <SCORE.INTER.norm>
-0.671857

>  <SCORE.INTRA>
-3.9084

>  <SCORE.INTRA.DIHEDRAL>
-4.08066

>  <SCORE.INTRA.DIHEDRAL.0>
9.33621

>  <SCORE.INTRA.POLAR>
0

>  <SCORE.INTRA.POLAR.0>
0

>  <SCORE.INTRA.REPUL>
0

>  <SCORE.INTRA.REPUL.0>
0

>  <SCORE.INTRA.SOLV>
0.184004

>  <SCORE.INTRA.SOLV.lig_0>
-65.9238

>  <SCORE.INTRA.VDW>
-1.96008

>  <SCORE.INTRA.VDW.0>
-0.405582

>  <SCORE.INTRA.norm>
-0.150323

>  <SCORE.RESTR>
0

>  <SCORE.RESTR.CAVITY>
0

>  <SCORE.RESTR.norm>
0

>  <SCORE.SYSTEM>
0

>  <SCORE.SYSTEM.CONST>
0

>  <SCORE.SYSTEM.DIHEDRAL>
0

>  <SCORE.SYSTEM.SOLV>
0

>  <SCORE.SYSTEM.norm>
0

>  <SCORE.heavy>
26

>  <SCORE.norm>
-0.82218

>  <RMSD>
3.269

$$$$
ligand
 OpenBabel11021811443D
libRbt.so/2013.1/901 2013/11/27
 26 28  0  0  0  0  0  0  0  0999 V2000
   19.5088   44.5791   66.0212 C   0  0  0  0  0  0  0  0  0  0  0  0
   23.7778   38.5417   65.6873 C   0  0  0  0  0  0  0  0  0  0  0  0
   27.7286   39.9127   69.3434 P   0  0  1  0  0  0  0  0  0  0  0  0
   27.0805   42.2193   68.3705 P   0  0  1  0  0  0  0  0  0  0  0  0
   21.0344   39.1134   65.5567 C   0  0  0  0  0  0  0  0  0  0  0  0
   21.5395   41.5189   66.0762 C   0  0  0  0  0  0  0  0  0  0  0  0
   20.6292   40.5597   65.6793 C   0  0  0  0  0  0  0  0  0  0  0  0
   19.3238   40.9638   65.3940 C   0  0  0  0  0  0  0  0  0  0  0  0
   18.3717   40.0389   64.9919 N   0  0  0  0  0  0  0  0  0  0  0  0
   19.0048   42.2486   65.5192 N   0  0  0  0  0  0  0  0  0  0  0  0
   19.9065   43.1315   65.8965 C   0  0  0  0  0  0  0  0  0  0  0  0
   21.1476   42.7823   66.1735 N   0  0  0  0  0  0  0  0  0  0  0  0
   29.1383   39.6256   69.6925 O   0  0  0  0  0  0  0  0  0  0  0  0
   27.1949   42.4321   69.8969 O   0  0  0  0  0  0  0  0  0  0  0  0
   21.9254   37.9753   69.0917 S   0  0  0  0  0  0  0  0  0  0  0  0
   20.8187   38.5226   67.8698 C   0  0  0  0  0  0  0  0  0  0  0  0
   27.0395   40.7470   70.5338 O   0  0  0  0  0  0  0  0  0  0  0  0
   27.9087   43.3664   67.6033 O   0  5  0  0  0  0  0  0  0  0  0  0
   21.6040   38.6561   66.8261 N   0  0  0  0  0  0  0  0  0  0  0  0
   27.6779   40.7748   67.9840 O   0  0  0  0  0  0  0  0  0  0  0  0
   25.5947   42.2907   67.9523 O   0  0  0  0  0  0  0  0  0  0  0  0
   22.8891   38.3847   66.8953 C   0  0  2  0  0  0  0  0  0  0  0  0
   23.3992   37.9669   68.0818 C   0  0  2  0  0  0  0  0  0  0  0  0
   24.8131   37.5957   68.4449 C   0  0  0  0  0  0  0  0  0  0  0  0
   25.6546   38.8655   68.5915 C   0  0  0  0  0  0  0  0  0  0  0  0
   26.9353   38.5280   69.1283 O   0  0  0  0  0  0  0  0  0  0  0  0
  1 11  1  0  0  0  0
  3 13  1  1  0  0  0
  3 17  1  0  0  0  0
  3 20  1  0  0  0  0
  3 26  1  0  0  0  0
  4 14  1  0  0  0  0
  4 18  1  6  0  0  0
  4 21  2  0  0  0  0
  4 20  1  0  0  0  0
  5 19  1  0  0  0  0
  5  7  1  0  0  0  0
  6  7  2  0  0  0  0
  6 12  1  0  0  0  0
  7  8  1  0  0  0  0
  8  9  1  0  0  0  0
  8 10  2  0  0  0  0
 10 11  1  0  0  0  0
 11 12  2  0  0  0  0
 14 17  1  0  0  0  0
 15 23  1  0  0  0  0
 15 16  1  0  0  0  0
 16 19  1  0  0  0  0
 19 22  1  0  0  0  0
 22  2  1  1  0  0  0
 22 23  1  0  0  0  0
 23 24  1  6  0  0  0
 24 25  1  0  0  0  0
 25 26  1  0  0  0  0
M  CHG  1  18  -1
M  END
>  <CHROM.1>
69.29951404,55.37441710,-104.50567703,171.38874547,-176.46191367,-171.00071122
23.96632691,40.41835130,67.69440296,-3.02134886,0.37462642,2.91259546

>  <Name>
ligand

>  <RI>
0

>  <Rbt.Current_Directory>
/home/itssahil/PROJECTS/Mol_Feturizer/New_Systems/rnas/2HOL

>  <Rbt.Executable>
rbdock ($Id: //depot/dev/client3/rdock/2013.1/src/exe/rbdock.cxx#4 $)

>  <Rbt.Library>
libRbt.so (2013.1, Build901 2013/11/27)

>  <Rbt.Parameter_File>
/export/apps/rDock/src/rDock_2013.1_src/data/scripts/dock_solv.prm

>  <Rbt.Receptor>
prm/pocket_docking_6.prm

>  <SCORE>
-21.2905

>  <SCORE.INTER>
-17.3614

>  <SCORE.INTER.CONST>
1

>  <SCORE.INTER.POLAR>
0

>  <SCORE.INTER.ROT>
6

>  <SCORE.INTER.SOLV>
16.1328

>  <SCORE.INTER.VDW>
-24.5519

>  <SCORE.INTER.norm>
-0.667748

>  <SCORE.INTRA>
-3.92903

>  <SCORE.INTRA.DIHEDRAL>
-4.20466

>  <SCORE.INTRA.DIHEDRAL.0>
9.33621

>  <SCORE.INTRA.POLAR>
0

>  <SCORE.INTRA.POLAR.0>
0

>  <SCORE.INTRA.REPUL>
0

>  <SCORE.INTRA.REPUL.0>
0

>  <SCORE.INTRA.SOLV>
0.216327

>  <SCORE.INTRA.SOLV.lig_0>
-65.9238

>  <SCORE.INTRA.VDW>
-1.93486

>  <SCORE.INTRA.VDW.0>
-0.405582

>  <SCORE.INTRA.norm>
-0.151117

>  <SCORE.RESTR>
0

>  <SCORE.RESTR.CAVITY>
0

>  <SCORE.RESTR.norm>
0

>  <SCORE.SYSTEM>
0

>  <SCORE.SYSTEM.CONST>
0

>  <SCORE.SYSTEM.DIHEDRAL>
0

>  <SCORE.SYSTEM.SOLV>
0

>  <SCORE.SYSTEM.norm>
0

>  <SCORE.heavy>
26

>  <SCORE.norm>
-0.818864

>  <RMSD>
3.271

$$$$
ligand
 OpenBabel11021811443D
libRbt.so/2013.1/901 2013/11/27
 26 28  0  0  0  0  0  0  0  0999 V2000
   19.8351   44.8046   65.9859 C   0  0  0  0  0  0  0  0  0  0  0  0
   21.0448   38.9549   67.7746 C   0  0  0  0  0  0  0  0  0  0  0  0
   27.4987   38.4163   66.6843 P   0  0  1  0  0  0  0  0  0  0  0  0
   28.3086   40.6836   67.6277 P   0  0  1  0  0  0  0  0  0  0  0  0
   20.1136   39.1812   65.1381 C   0  0  0  0  0  0  0  0  0  0  0  0
   21.1685   41.3955   65.6820 C   0  0  0  0  0  0  0  0  0  0  0  0
   20.0384   40.6696   65.3623 C   0  0  0  0  0  0  0  0  0  0  0  0
   18.8242   41.3495   65.2517 C   0  0  0  0  0  0  0  0  0  0  0  0
   17.6602   40.6661   64.9332 N   0  0  0  0  0  0  0  0  0  0  0  0
   18.7989   42.6623   65.4620 N   0  0  0  0  0  0  0  0  0  0  0  0
   19.9025   43.3166   65.7604 C   0  0  0  0  0  0  0  0  0  0  0  0
   21.0649   42.7040   65.8727 N   0  0  0  0  0  0  0  0  0  0  0  0
   28.1731   37.8194   65.5093 O   0  0  0  0  0  0  0  0  0  0  0  0
   29.2896   39.6290   68.1877 O   0  0  0  0  0  0  0  0  0  0  0  0
   23.7272   37.9459   65.1046 S   0  0  0  0  0  0  0  0  0  0  0  0
   22.2443   38.4279   64.3390 C   0  0  0  0  0  0  0  0  0  0  0  0
   28.3484   38.0952   68.0120 O   0  0  0  0  0  0  0  0  0  0  0  0
   29.1386   41.9093   66.9960 O   0  5  0  0  0  0  0  0  0  0  0  0
   21.4846   38.7208   65.3690 N   0  0  0  0  0  0  0  0  0  0  0  0
   27.3914   40.0111   66.4879 O   0  0  0  0  0  0  0  0  0  0  0  0
   27.4094   41.2060   68.7706 O   0  0  0  0  0  0  0  0  0  0  0  0
   21.9293   38.6133   66.6020 C   0  0  2  0  0  0  0  0  0  0  0  0
   23.2010   38.1802   66.7958 C   0  0  2  0  0  0  0  0  0  0  0  0
   23.9590   37.9618   68.0790 C   0  0  0  0  0  0  0  0  0  0  0  0
   25.3932   38.4715   67.9200 C   0  0  0  0  0  0  0  0  0  0  0  0
   26.0203   37.7946   66.8290 O   0  0  0  0  0  0  0  0  0  0  0  0
  1 11  1  0  0  0  0
  3 13  1  6  0  0  0
  3 17  1  0  0  0  0
  3 20  1  0  0  0  0
  3 26  1  0  0  0  0
  4 14  1  0  0  0  0
  4 18  1  6  0  0  0
  4 21  2  0  0  0  0
  4 20  1  0  0  0  0
  5 19  1  0  0  0  0
  5  7  1  0  0  0  0
  6  7  2  0  0  0  0
  6 12  1  0  0  0  0
  7  8  1  0  0  0  0
  8  9  1  0  0  0  0
  8 10  2  0  0  0  0
 10 11  1  0  0  0  0
 11 12  2  0  0  0  0
 14 17  1  0  0  0  0
 15 23  1  0  0  0  0
 15 16  1  0  0  0  0
 16 19  1  0  0  0  0
 19 22  1  0  0  0  0
 22  2  1  1  0  0  0
 22 23  1  0  0  0  0
 23 24  1  6  0  0  0
 24 25  1  0  0  0  0
 25 26  1  0  0  0  0
M  CHG  1  18  -1
M  END
>  <CHROM.1>
-104.28641018,2.31301334,41.26747632,-57.88669126,177.90308455,-176.23188033
24.11543522,39.84396861,66.46489675,-2.95341743,0.23827252,-3.00124303

>  <Name>
ligand

>  <RI>
0

>  <Rbt.Current_Directory>
/home/itssahil/PROJECTS/Mol_Feturizer/New_Systems/rnas/2HOL

>  <Rbt.Executable>
rbdock ($Id: //depot/dev/client3/rdock/2013.1/src/exe/rbdock.cxx#4 $)

>  <Rbt.Library>
libRbt.so (2013.1, Build901 2013/11/27)

>  <Rbt.Parameter_File>
/export/apps/rDock/src/rDock_2013.1_src/data/scripts/dock_solv.prm

>  <Rbt.Receptor>
prm/pocket_docking_4.prm

>  <SCORE>
-19.7737

>  <SCORE.INTER>
-16.633

>  <SCORE.INTER.CONST>
1

>  <SCORE.INTER.POLAR>
0

>  <SCORE.INTER.ROT>
6

>  <SCORE.INTER.SOLV>
15.5221

>  <SCORE.INTER.VDW>
-23.8627

>  <SCORE.INTER.norm>
-0.639733

>  <SCORE.INTRA>
-3.15662

>  <SCORE.INTRA.DIHEDRAL>
-4.24248

>  <SCORE.INTRA.DIHEDRAL.0>
9.33621

>  <SCORE.INTRA.POLAR>
0

>  <SCORE.INTRA.POLAR.0>
0

>  <SCORE.INTRA.REPUL>
0

>  <SCORE.INTRA.REPUL.0>
0

>  <SCORE.INTRA.SOLV>
0.304269

>  <SCORE.INTRA.SOLV.lig_0>
-65.9238

>  <SCORE.INTRA.VDW>
-1.18751

>  <SCORE.INTRA.VDW.0>
-0.405582

>  <SCORE.INTRA.norm>
-0.121409

>  <SCORE.RESTR>
0.0160047

>  <SCORE.RESTR.CAVITY>
0.0160047

>  <SCORE.RESTR.norm>
0.000615565

>  <SCORE.SYSTEM>
0

>  <SCORE.SYSTEM.CONST>
0

>  <SCORE.SYSTEM.DIHEDRAL>
0

>  <SCORE.SYSTEM.SOLV>
0

>  <SCORE.SYSTEM.norm>
0

>  <SCORE.heavy>
26

>  <SCORE.norm>
-0.760525

>  <RMSD>
3.278

$$$$
ligand
 OpenBabel11021811443D
libRbt.so/2013.1/901 2013/11/27
 26 28  0  0  0  0  0  0  0  0999 V2000
   16.8165   40.3934   63.8330 C   0  0  0  0  0  0  0  0  0  0  0  0
   23.7315   40.7089   67.1548 C   0  0  0  0  0  0  0  0  0  0  0  0
   26.8538   39.2542   65.5728 P   0  0  1  0  0  0  0  0  0  0  0  0
   26.8167   38.6093   68.0767 P   0  0  1  0  0  0  0  0  0  0  0  0
   21.1919   41.9005   67.1500 C   0  0  0  0  0  0  0  0  0  0  0  0
   19.7920   40.1762   65.9756 C   0  0  0  0  0  0  0  0  0  0  0  0
   20.0334   41.5030   66.2718 C   0  0  0  0  0  0  0  0  0  0  0  0
   19.1768   42.4670   65.7375 C   0  0  0  0  0  0  0  0  0  0  0  0
   19.3766   43.8132   66.0046 N   0  0  0  0  0  0  0  0  0  0  0  0
   18.1691   42.0759   64.9631 N   0  0  0  0  0  0  0  0  0  0  0  0
   17.9725   40.7982   64.7100 C   0  0  0  0  0  0  0  0  0  0  0  0
   18.7634   39.8632   65.1990 N   0  0  0  0  0  0  0  0  0  0  0  0
   28.1121   39.7183   64.9459 O   0  0  0  0  0  0  0  0  0  0  0  0
   27.4064   37.3836   67.3430 O   0  0  0  0  0  0  0  0  0  0  0  0
   23.5138   43.8552   64.8321 S   0  0  0  0  0  0  0  0  0  0  0  0
   21.9892   43.5534   65.6078 C   0  0  0  0  0  0  0  0  0  0  0  0
   26.8495   37.6471   65.6431 O   0  0  0  0  0  0  0  0  0  0  0  0
   27.7537   38.9895   69.3289 O   0  5  0  0  0  0  0  0  0  0  0  0
   22.2516   42.4859   66.3259 N   0  0  0  0  0  0  0  0  0  0  0  0
   26.7426   39.8573   67.0619 O   0  0  0  0  0  0  0  0  0  0  0  0
   25.3960   38.2708   68.5813 O   0  0  0  0  0  0  0  0  0  0  0  0
   23.4454   41.9340   66.3236 C   0  0  2  0  0  0  0  0  0  0  0  0
   24.4130   42.4882   65.5496 C   0  0  2  0  0  0  0  0  0  0  0  0
   25.8466   42.0698   65.3533 C   0  0  0  0  0  0  0  0  0  0  0  0
   25.9328   41.0580   64.2084 C   0  0  0  0  0  0  0  0  0  0  0  0
   25.5995   39.7572   64.6971 O   0  0  0  0  0  0  0  0  0  0  0  0
  1 11  1  0  0  0  0
  3 13  1  6  0  0  0
  3 17  1  0  0  0  0
  3 20  1  0  0  0  0
  3 26  1  0  0  0  0
  4 14  1  0  0  0  0
  4 18  1  1  0  0  0
  4 21  2  0  0  0  0
  4 20  1  0  0  0  0
  5 19  1  0  0  0  0
  5  7  1  0  0  0  0
  6  7  2  0  0  0  0
  6 12  1  0  0  0  0
  7  8  1  0  0  0  0
  8  9  1  0  0  0  0
  8 10  2  0  0  0  0
 10 11  1  0  0  0  0
 11 12  2  0  0  0  0
 14 17  1  0  0  0  0
 15 23  1  0  0  0  0
 15 16  1  0  0  0  0
 16 19  1  0  0  0  0
 19 22  1  0  0  0  0
 22  2  1  6  0  0  0
 22 23  1  0  0  0  0
 23 24  1  1  0  0  0
 24 25  1  0  0  0  0
 25 26  1  0  0  0  0
M  CHG  1  18  -1
M  END
>  <CHROM.1>
59.24213196,105.68149346,-91.56287148,-81.90586838,-73.75987634,-36.57301642
23.71490061,40.67201102,66.06444094,2.73976515,-0.03501993,-0.41113579

>  <Name>
ligand

>  <RI>
0

>  <Rbt.Current_Directory>
/home/itssahil/PROJECTS/Mol_Feturizer/New_Systems/rnas/2HOL

>  <Rbt.Executable>
rbdock ($Id: //depot/dev/client3/rdock/2013.1/src/exe/rbdock.cxx#4 $)

>  <Rbt.Library>
libRbt.so (2013.1, Build901 2013/11/27)

>  <Rbt.Parameter_File>
/export/apps/rDock/src/rDock_2013.1_src/data/scripts/dock_solv.prm

>  <Rbt.Receptor>
prm/pocket_docking_3.prm

>  <SCORE>
-11.4162

>  <SCORE.INTER>
-13.4457

>  <SCORE.INTER.CONST>
1

>  <SCORE.INTER.POLAR>
0

>  <SCORE.INTER.ROT>
6

>  <SCORE.INTER.SOLV>
19.1221

>  <SCORE.INTER.VDW>
-22.9379

>  <SCORE.INTER.norm>
-0.517144

>  <SCORE.INTRA>
1.28372

>  <SCORE.INTRA.DIHEDRAL>
-1.17663

>  <SCORE.INTRA.DIHEDRAL.0>
9.33621

>  <SCORE.INTRA.POLAR>
0

>  <SCORE.INTRA.POLAR.0>
0

>  <SCORE.INTRA.REPUL>
0

>  <SCORE.INTRA.REPUL.0>
0

>  <SCORE.INTRA.SOLV>
3.78354

>  <SCORE.INTRA.SOLV.lig_0>
-65.9238

>  <SCORE.INTRA.VDW>
-0.0197372

>  <SCORE.INTRA.VDW.0>
-0.405582

>  <SCORE.INTRA.norm>
0.0493737

>  <SCORE.RESTR>
0.74582

>  <SCORE.RESTR.CAVITY>
0.74582

>  <SCORE.RESTR.norm>
0.0286854

>  <SCORE.SYSTEM>
0

>  <SCORE.SYSTEM.CONST>
0

>  <SCORE.SYSTEM.DIHEDRAL>
0

>  <SCORE.SYSTEM.SOLV>
0

>  <SCORE.SYSTEM.norm>
0

>  <SCORE.heavy>
26

>  <SCORE.norm>
-0.439085

>  <RMSD>
3.286

$$$$
ligand
 OpenBabel11021811443D
libRbt.so/2013.1/901 2013/11/27
 26 28  0  0  0  0  0  0  0  0999 V2000
   19.6765   44.4205   65.9410 C   0  0  0  0  0  0  0  0  0  0  0  0
   24.1185   38.1170   65.8903 C   0  0  0  0  0  0  0  0  0  0  0  0
   27.1899   40.1922   68.4985 P   0  0  1  0  0  0  0  0  0  0  0  0
   27.3703   42.6762   67.8030 P   0  0  1  0  0  0  0  0  0  0  0  0
   21.4891   39.0366   65.5582 C   0  0  0  0  0  0  0  0  0  0  0  0
   21.9021   41.5009   65.8201 C   0  0  0  0  0  0  0  0  0  0  0  0
   21.0079   40.4612   65.6595 C   0  0  0  0  0  0  0  0  0  0  0  0
   19.6466   40.7631   65.5929 C   0  0  0  0  0  0  0  0  0  0  0  0
   18.7080   39.7547   65.4327 N   0  0  0  0  0  0  0  0  0  0  0  0
   19.2622   42.0323   65.6913 N   0  0  0  0  0  0  0  0  0  0  0  0
   20.1500   42.9940   65.8391 C   0  0  0  0  0  0  0  0  0  0  0  0
   21.4428   42.7422   65.9058 N   0  0  0  0  0  0  0  0  0  0  0  0
   28.4017   39.4484   68.9109 O   0  0  0  0  0  0  0  0  0  0  0  0
   27.3684   42.6789   69.3484 O   0  0  0  0  0  0  0  0  0  0  0  0
   22.0076   37.9618   69.1861 S   0  0  0  0  0  0  0  0  0  0  0  0
   21.0589   38.5905   67.8738 C   0  0  0  0  0  0  0  0  0  0  0  0
   26.6488   41.0661   69.7359 O   0  0  0  0  0  0  0  0  0  0  0  0
   28.5832   43.5868   67.2644 O   0  5  0  0  0  0  0  0  0  0  0  0
   21.9157   38.5698   66.8792 N   0  0  0  0  0  0  0  0  0  0  0  0
   27.5522   41.1679   67.2695 O   0  0  0  0  0  0  0  0  0  0  0  0
   26.0303   43.2468   67.2872 O   0  0  0  0  0  0  0  0  0  0  0  0
   23.1464   38.1358   67.0429 C   0  0  2  0  0  0  0  0  0  0  0  0
   23.5245   37.7119   68.2758 C   0  0  2  0  0  0  0  0  0  0  0  0
   24.8518   37.1762   68.7448 C   0  0  0  0  0  0  0  0  0  0  0  0
   25.7507   38.3383   69.1733 C   0  0  0  0  0  0  0  0  0  0  0  0
   26.0512   39.1512   68.0371 O   0  0  0  0  0  0  0  0  0  0  0  0
  1 11  1  0  0  0  0
  3 13  1  1  0  0  0
  3 17  1  0  0  0  0
  3 20  1  0  0  0  0
  3 26  1  0  0  0  0
  4 14  1  0  0  0  0
  4 18  1  6  0  0  0
  4 21  2  0  0  0  0
  4 20  1  0  0  0  0
  5 19  1  0  0  0  0
  5  7  1  0  0  0  0
  6  7  2  0  0  0  0
  6 12  1  0  0  0  0
  7  8  1  0  0  0  0
  8  9  1  0  0  0  0
  8 10  2  0  0  0  0
 10 11  1  0  0  0  0
 11 12  2  0  0  0  0
 14 17  1  0  0  0  0
 15 23  1  0  0  0  0
 15 16  1  0  0  0  0
 16 19  1  0  0  0  0
 19 22  1  0  0  0  0
 22  2  1  1  0  0  0
 22 23  1  0  0  0  0
 23 24  1  6  0  0  0
 24 25  1  0  0  0  0
 25 26  1  0  0  0  0
M  CHG  1  18  -1
M  END
>  <CHROM.1>
57.91067259,73.88177927,-92.83377831,-64.96428366,-170.46339292,61.43694511
24.05522571,40.46872502,67.46160420,-3.12834117,0.30801214,2.84120979

>  <Name>
ligand

>  <RI>
0

>  <Rbt.Current_Directory>
/home/itssahil/PROJECTS/Mol_Feturizer/New_Systems/rnas/2HOL

>  <Rbt.Executable>
rbdock ($Id: //depot/dev/client3/rdock/2013.1/src/exe/rbdock.cxx#4 $)

>  <Rbt.Library>
libRbt.so (2013.1, Build901 2013/11/27)

>  <Rbt.Parameter_File>
/export/apps/rDock/src/rDock_2013.1_src/data/scripts/dock_solv.prm

>  <Rbt.Receptor>
prm/pocket_docking_5.prm

>  <SCORE>
-19.5515

>  <SCORE.INTER>
-15.9997

>  <SCORE.INTER.CONST>
1

>  <SCORE.INTER.POLAR>
0

>  <SCORE.INTER.ROT>
6

>  <SCORE.INTER.SOLV>
14.8374

>  <SCORE.INTER.VDW>
-23.2122

>  <SCORE.INTER.norm>
-0.615372

>  <SCORE.INTRA>
-3.55186

>  <SCORE.INTRA.DIHEDRAL>
-3.97336

>  <SCORE.INTRA.DIHEDRAL.0>
9.33621

>  <SCORE.INTRA.POLAR>
0

>  <SCORE.INTRA.POLAR.0>
0

>  <SCORE.INTRA.REPUL>
0

>  <SCORE.INTRA.REPUL.0>
0

>  <SCORE.INTRA.SOLV>
0.310954

>  <SCORE.INTRA.SOLV.lig_0>
-65.9238

>  <SCORE.INTRA.VDW>
-1.72066

>  <SCORE.INTRA.VDW.0>
-0.405582

>  <SCORE.INTRA.norm>
-0.13661

>  <SCORE.RESTR>
0

>  <SCORE.RESTR.CAVITY>
0

>  <SCORE.RESTR.norm>
0

>  <SCORE.SYSTEM>
0

>  <SCORE.SYSTEM.CONST>
0

>  <SCORE.SYSTEM.DIHEDRAL>
0

>  <SCORE.SYSTEM.SOLV>
0

>  <SCORE.SYSTEM.norm>
0

>  <SCORE.heavy>
26

>  <SCORE.norm>
-0.751982

>  <RMSD>
3.289

$$$$
ligand
 OpenBabel11021811443D
libRbt.so/2013.1/901 2013/11/27
 26 28  0  0  0  0  0  0  0  0999 V2000
   19.6262   44.4184   65.9065 C   0  0  0  0  0  0  0  0  0  0  0  0
   24.0138   37.9690   65.6776 C   0  0  0  0  0  0  0  0  0  0  0  0
   27.1233   40.4507   68.4568 P   0  0  1  0  0  0  0  0  0  0  0  0
   26.7440   42.3637   66.7587 P   0  0  1  0  0  0  0  0  0  0  0  0
   21.4133   39.0198   65.6247 C   0  0  0  0  0  0  0  0  0  0  0  0
   21.8350   41.4837   65.8758 C   0  0  0  0  0  0  0  0  0  0  0  0
   20.9389   40.4483   65.6991 C   0  0  0  0  0  0  0  0  0  0  0  0
   19.5821   40.7582   65.5909 C   0  0  0  0  0  0  0  0  0  0  0  0
   18.6418   39.7544   65.4131 N   0  0  0  0  0  0  0  0  0  0  0  0
   19.2034   42.0307   65.6667 N   0  0  0  0  0  0  0  0  0  0  0  0
   20.0930   42.9881   65.8311 C   0  0  0  0  0  0  0  0  0  0  0  0
   21.3816   42.7287   65.9371 N   0  0  0  0  0  0  0  0  0  0  0  0
   28.4804   39.8927   68.6532 O   0  0  0  0  0  0  0  0  0  0  0  0
   27.3061   43.0431   68.0277 O   0  0  0  0  0  0  0  0  0  0  0  0
   22.3747   38.1961   69.2278 S   0  0  0  0  0  0  0  0  0  0  0  0
   21.2861   38.7794   68.0063 C   0  0  0  0  0  0  0  0  0  0  0  0
   26.9726   41.8086   69.3060 O   0  0  0  0  0  0  0  0  0  0  0  0
   27.5604   42.8730   65.4686 O   0  5  0  0  0  0  0  0  0  0  0  0
   21.9948   38.6302   66.9111 N   0  0  0  0  0  0  0  0  0  0  0  0
   26.8944   40.7663   66.8942 O   0  0  0  0  0  0  0  0  0  0  0  0
   25.2509   42.7286   66.5997 O   0  0  0  0  0  0  0  0  0  0  0  0
   23.2130   38.1355   66.9444 C   0  0  2  0  0  0  0  0  0  0  0  0
   23.7364   37.7849   68.1467 C   0  0  2  0  0  0  0  0  0  0  0  0
   25.0873   37.2064   68.4771 C   0  0  0  0  0  0  0  0  0  0  0  0
   26.1782   38.2226   68.1315 C   0  0  0  0  0  0  0  0  0  0  0  0
   26.0256   39.3820   68.9528 O   0  0  0  0  0  0  0  0  0  0  0  0
  1 11  1  0  0  0  0
  3 13  1  1  0  0  0
  3 17  1  0  0  0  0
  3 20  1  0  0  0  0
  3 26  1  0  0  0  0
  4 14  1  0  0  0  0
  4 18  1  6  0  0  0
  4 21  2  0  0  0  0
  4 20  1  0  0  0  0
  5 19  1  0  0  0  0
  5  7  1  0  0  0  0
  6  7  2  0  0  0  0
  6 12  1  0  0  0  0
  7  8  1  0  0  0  0
  8  9  1  0  0  0  0
  8 10  2  0  0  0  0
 10 11  1  0  0  0  0
 11 12  2  0  0  0  0
 14 17  1  0  0  0  0
 15 23  1  0  0  0  0
 15 16  1  0  0  0  0
 16 19  1  0  0  0  0
 19 22  1  0  0  0  0
 22  2  1  1  0  0  0
 22 23  1  0  0  0  0
 23 24  1  6  0  0  0
 24 25  1  0  0  0  0
 25 26  1  0  0  0  0
M  CHG  1  18  -1
M  END
>  <CHROM.1>
54.15686349,65.02043921,-115.59658116,63.77344741,-175.49698362,-61.99607614
23.96763980,40.48738931,67.18300940,-3.04603330,0.24465516,2.77601321

>  <Name>
ligand

>  <RI>
0

>  <Rbt.Current_Directory>
/home/itssahil/PROJECTS/Mol_Feturizer/New_Systems/rnas/2HOL

>  <Rbt.Executable>
rbdock ($Id: //depot/dev/client3/rdock/2013.1/src/exe/rbdock.cxx#4 $)

>  <Rbt.Library>
libRbt.so (2013.1, Build901 2013/11/27)

>  <Rbt.Parameter_File>
/export/apps/rDock/src/rDock_2013.1_src/data/scripts/dock_solv.prm

>  <Rbt.Receptor>
prm/pocket_docking_4.prm

>  <SCORE>
-18.5966

>  <SCORE.INTER>
-14.6865

>  <SCORE.INTER.CONST>
1

>  <SCORE.INTER.POLAR>
0

>  <SCORE.INTER.ROT>
6

>  <SCORE.INTER.SOLV>
12.6456

>  <SCORE.INTER.VDW>
-21.6062

>  <SCORE.INTER.norm>
-0.564867

>  <SCORE.INTRA>
-3.9101

>  <SCORE.INTRA.DIHEDRAL>
-4.60689

>  <SCORE.INTRA.DIHEDRAL.0>
9.33621

>  <SCORE.INTRA.POLAR>
0

>  <SCORE.INTRA.POLAR.0>
0

>  <SCORE.INTRA.REPUL>
0

>  <SCORE.INTRA.REPUL.0>
0

>  <SCORE.INTRA.SOLV>
0.108405

>  <SCORE.INTRA.SOLV.lig_0>
-65.9238

>  <SCORE.INTRA.VDW>
-1.66086

>  <SCORE.INTRA.VDW.0>
-0.405582

>  <SCORE.INTRA.norm>
-0.150388

>  <SCORE.RESTR>
0

>  <SCORE.RESTR.CAVITY>
0

>  <SCORE.RESTR.norm>
0

>  <SCORE.SYSTEM>
0

>  <SCORE.SYSTEM.CONST>
0

>  <SCORE.SYSTEM.DIHEDRAL>
0

>  <SCORE.SYSTEM.SOLV>
0

>  <SCORE.SYSTEM.norm>
0

>  <SCORE.heavy>
26

>  <SCORE.norm>
-0.715255

>  <RMSD>
3.294

$$$$
ligand
 OpenBabel11021811443D
libRbt.so/2013.1/901 2013/11/27
 26 28  0  0  0  0  0  0  0  0999 V2000
   21.1071   44.9623   66.1389 C   0  0  0  0  0  0  0  0  0  0  0  0
   21.9981   38.6597   68.9516 C   0  0  0  0  0  0  0  0  0  0  0  0
   27.2719   40.1819   68.2725 P   0  0  1  0  0  0  0  0  0  0  0  0
   27.9625   42.2273   66.8493 P   0  0  1  0  0  0  0  0  0  0  0  0
   20.5379   39.3201   66.6491 C   0  0  0  0  0  0  0  0  0  0  0  0
   21.6636   41.4941   67.2133 C   0  0  0  0  0  0  0  0  0  0  0  0
   20.6874   40.8135   66.5131 C   0  0  0  0  0  0  0  0  0  0  0  0
   19.8425   41.5439   65.6757 C   0  0  0  0  0  0  0  0  0  0  0  0
   18.8457   40.9074   64.9513 N   0  0  0  0  0  0  0  0  0  0  0  0
   20.0036   42.8609   65.5872 N   0  0  0  0  0  0  0  0  0  0  0  0
   20.9516   43.4696   66.2698 C   0  0  0  0  0  0  0  0  0  0  0  0
   21.7657   42.8087   67.0694 N   0  0  0  0  0  0  0  0  0  0  0  0
   28.0731   39.7991   69.4571 O   0  0  0  0  0  0  0  0  0  0  0  0
   27.2196   42.8079   68.0737 O   0  0  0  0  0  0  0  0  0  0  0  0
   23.8427   37.6981   65.6328 S   0  0  0  0  0  0  0  0  0  0  0  0
   22.3076   38.4372   65.2945 C   0  0  0  0  0  0  0  0  0  0  0  0
   26.2755   41.3829   68.6630 O   0  0  0  0  0  0  0  0  0  0  0  0
   29.3537   43.0099   66.6427 O   0  5  0  0  0  0  0  0  0  0  0  0
   21.8478   38.6822   66.4996 N   0  0  0  0  0  0  0  0  0  0  0  0
   28.2564   40.6630   67.0923 O   0  0  0  0  0  0  0  0  0  0  0  0
   27.0850   42.3967   65.5887 O   0  0  0  0  0  0  0  0  0  0  0  0
   22.5393   38.3706   67.5741 C   0  0  2  0  0  0  0  0  0  0  0  0
   23.7489   37.7756   67.4152 C   0  0  2  0  0  0  0  0  0  0  0  0
   24.7383   37.3131   68.4525 C   0  0  0  0  0  0  0  0  0  0  0  0
   25.6202   38.4887   68.8794 C   0  0  0  0  0  0  0  0  0  0  0  0
   26.4149   38.9143   67.7707 O   0  0  0  0  0  0  0  0  0  0  0  0
  1 11  1  0  0  0  0
  3 13  1  1  0  0  0
  3 17  1  0  0  0  0
  3 20  1  0  0  0  0
  3 26  1  0  0  0  0
  4 14  1  0  0  0  0
  4 18  1  6  0  0  0
  4 21  2  0  0  0  0
  4 20  1  0  0  0  0
  5 19  1  0  0  0  0
  5  7  1  0  0  0  0
  6  7  2  0  0  0  0
  6 12  1  0  0  0  0
  7  8  1  0  0  0  0
  8  9  1  0  0  0  0
  8 10  2  0  0  0  0
 10 11  1  0  0  0  0
 11 12  2  0  0  0  0
 14 17  1  0  0  0  0
 15 23  1  0  0  0  0
 15 16  1  0  0  0  0
 16 19  1  0  0  0  0
 19 22  1  0  0  0  0
 22  2  1  1  0  0  0
 22 23  1  0  0  0  0
 23 24  1  6  0  0  0
 24 25  1  0  0  0  0
 25 26  1  0  0  0  0
M  CHG  1  18  -1
M  END
>  <CHROM.1>
-83.33103237,-48.42291090,95.33404321,-65.25704393,177.90134140,56.87047834
24.33451158,40.54266268,67.06370666,-3.12261540,0.20681243,2.95110684

>  <Name>
ligand

>  <RI>
0

>  <Rbt.Current_Directory>
/home/itssahil/PROJECTS/Mol_Feturizer/New_Systems/rnas/2HOL

>  <Rbt.Executable>
rbdock ($Id: //depot/dev/client3/rdock/2013.1/src/exe/rbdock.cxx#4 $)

>  <Rbt.Library>
libRbt.so (2013.1, Build901 2013/11/27)

>  <Rbt.Parameter_File>
/export/apps/rDock/src/rDock_2013.1_src/data/scripts/dock_solv.prm

>  <Rbt.Receptor>
prm/pocket_docking_6.prm

>  <SCORE>
-18.5625

>  <SCORE.INTER>
-14.197

>  <SCORE.INTER.CONST>
1

>  <SCORE.INTER.POLAR>
0

>  <SCORE.INTER.ROT>
6

>  <SCORE.INTER.SOLV>
12.6515

>  <SCORE.INTER.VDW>
-21.2818

>  <SCORE.INTER.norm>
-0.54604

>  <SCORE.INTRA>
-4.36543

>  <SCORE.INTRA.DIHEDRAL>
-4.43336

>  <SCORE.INTRA.DIHEDRAL.0>
9.33621

>  <SCORE.INTRA.POLAR>
0

>  <SCORE.INTRA.POLAR.0>
0

>  <SCORE.INTRA.REPUL>
0

>  <SCORE.INTRA.REPUL.0>
0

>  <SCORE.INTRA.SOLV>
-0.677473

>  <SCORE.INTRA.SOLV.lig_0>
-65.9238

>  <SCORE.INTRA.VDW>
-1.81001

>  <SCORE.INTRA.VDW.0>
-0.405582

>  <SCORE.INTRA.norm>
-0.167901

>  <SCORE.RESTR>
0

>  <SCORE.RESTR.CAVITY>
0

>  <SCORE.RESTR.norm>
0

>  <SCORE.SYSTEM>
0

>  <SCORE.SYSTEM.CONST>
0

>  <SCORE.SYSTEM.DIHEDRAL>
0

>  <SCORE.SYSTEM.SOLV>
0

>  <SCORE.SYSTEM.norm>
0

>  <SCORE.heavy>
26

>  <SCORE.norm>
-0.713941

>  <RMSD>
3.301

$$$$
ligand
 OpenBabel11021811443D
libRbt.so/2013.1/901 2013/11/27
 26 28  0  0  0  0  0  0  0  0999 V2000
   19.9059   44.9932   65.9794 C   0  0  0  0  0  0  0  0  0  0  0  0
   22.7039   39.1792   65.1755 C   0  0  0  0  0  0  0  0  0  0  0  0
   25.9942   41.9632   67.5708 P   0  0  1  0  0  0  0  0  0  0  0  0
   27.9076   43.0717   66.2304 P   0  0  1  0  0  0  0  0  0  0  0  0
   20.1147   39.3096   66.2471 C   0  0  0  0  0  0  0  0  0  0  0  0
   21.0938   41.5854   66.6637 C   0  0  0  0  0  0  0  0  0  0  0  0
   20.0580   40.8139   66.1757 C   0  0  0  0  0  0  0  0  0  0  0  0
   18.9570   41.4626   65.6139 C   0  0  0  0  0  0  0  0  0  0  0  0
   17.8906   40.7331   65.1101 N   0  0  0  0  0  0  0  0  0  0  0  0
   18.9431   42.7917   65.5742 N   0  0  0  0  0  0  0  0  0  0  0  0
   19.9554   43.4891   66.0474 C   0  0  0  0  0  0  0  0  0  0  0  0
   21.0097   42.9067   66.5844 N   0  0  0  0  0  0  0  0  0  0  0  0
   25.9809   42.0453   69.0489 O   0  0  0  0  0  0  0  0  0  0  0  0
   26.9343   44.2182   66.5862 O   0  0  0  0  0  0  0  0  0  0  0  0
   22.5571   38.1994   68.9651 S   0  0  0  0  0  0  0  0  0  0  0  0
   20.9767   38.6073   68.3708 C   0  0  0  0  0  0  0  0  0  0  0  0
   25.4048   43.3260   66.9517 O   0  0  0  0  0  0  0  0  0  0  0  0
   29.4113   43.5059   66.6056 O   0  5  0  0  0  0  0  0  0  0  0  0
   21.2219   38.9029   67.1152 N   0  0  0  0  0  0  0  0  0  0  0  0
   27.5064   41.7509   67.0593 O   0  0  0  0  0  0  0  0  0  0  0  0
   27.8203   42.7758   64.7163 O   0  0  0  0  0  0  0  0  0  0  0  0
   22.4386   38.8379   66.6202 C   0  0  2  0  0  0  0  0  0  0  0  0
   23.4523   38.4637   67.4417 C   0  0  2  0  0  0  0  0  0  0  0  0
   24.9220   38.3101   67.1495 C   0  0  0  0  0  0  0  0  0  0  0  0
   25.6759   39.5434   67.6520 C   0  0  0  0  0  0  0  0  0  0  0  0
   25.0886   40.7202   67.0933 O   0  0  0  0  0  0  0  0  0  0  0  0
  1 11  1  0  0  0  0
  3 13  1  1  0  0  0
  3 17  1  0  0  0  0
  3 20  1  0  0  0  0
  3 26  1  0  0  0  0
  4 14  1  0  0  0  0
  4 18  1  1  0  0  0
  4 21  2  0  0  0  0
  4 20  1  0  0  0  0
  5 19  1  0  0  0  0
  5  7  1  0  0  0  0
  6  7  2  0  0  0  0
  6 12  1  0  0  0  0
  7  8  1  0  0  0  0
  8  9  1  0  0  0  0
  8 10  2  0  0  0  0
 10 11  1  0  0  0  0
 11 12  2  0  0  0  0
 14 17  1  0  0  0  0
 15 23  1  0  0  0  0
 15 16  1  0  0  0  0
 16 19  1  0  0  0  0
 19 22  1  0  0  0  0
 22  2  1  1  0  0  0
 22 23  1  0  0  0  0
 23 24  1  6  0  0  0
 24 25  1  0  0  0  0
 25 26  1  0  0  0  0
M  CHG  1  18  -1
M  END
>  <CHROM.1>
96.98745392,11.64219542,-79.83077345,-54.13890829,-175.79406229,-61.01311861
23.68807451,41.26358823,66.81891098,2.91428041,0.12804021,2.79316700

>  <Name>
ligand

>  <RI>
0

>  <Rbt.Current_Directory>
/home/itssahil/PROJECTS/Mol_Feturizer/New_Systems/rnas/2HOL

>  <Rbt.Executable>
rbdock ($Id: //depot/dev/client3/rdock/2013.1/src/exe/rbdock.cxx#4 $)

>  <Rbt.Library>
libRbt.so (2013.1, Build901 2013/11/27)

>  <Rbt.Parameter_File>
/export/apps/rDock/src/rDock_2013.1_src/data/scripts/dock_solv.prm

>  <Rbt.Receptor>
prm/pocket_docking_5.prm

>  <SCORE>
-16.0178

>  <SCORE.INTER>
-12.1786

>  <SCORE.INTER.CONST>
1

>  <SCORE.INTER.POLAR>
0

>  <SCORE.INTER.ROT>
6

>  <SCORE.INTER.SOLV>
14.8815

>  <SCORE.INTER.VDW>
-20.6795

>  <SCORE.INTER.norm>
-0.468406

>  <SCORE.INTRA>
-3.84899

>  <SCORE.INTRA.DIHEDRAL>
-4.09078

>  <SCORE.INTRA.DIHEDRAL.0>
9.33621

>  <SCORE.INTRA.POLAR>
0

>  <SCORE.INTRA.POLAR.0>
0

>  <SCORE.INTRA.REPUL>
0

>  <SCORE.INTRA.REPUL.0>
0

>  <SCORE.INTRA.SOLV>
-0.326937

>  <SCORE.INTRA.SOLV.lig_0>
-65.9238

>  <SCORE.INTRA.VDW>
-1.64013

>  <SCORE.INTRA.VDW.0>
-0.405582

>  <SCORE.INTRA.norm>
-0.148038

>  <SCORE.RESTR>
0.00973019

>  <SCORE.RESTR.CAVITY>
0.00973019

>  <SCORE.RESTR.norm>
0.000374238

>  <SCORE.SYSTEM>
0

>  <SCORE.SYSTEM.CONST>
0

>  <SCORE.SYSTEM.DIHEDRAL>
0

>  <SCORE.SYSTEM.SOLV>
0

>  <SCORE.SYSTEM.norm>
0

>  <SCORE.heavy>
26

>  <SCORE.norm>
-0.61607

>  <RMSD>
3.311

$$$$
ligand
 OpenBabel11021811443D
libRbt.so/2013.1/901 2013/11/27
 26 28  0  0  0  0  0  0  0  0999 V2000
   18.6378   40.4750   65.2994 C   0  0  0  0  0  0  0  0  0  0  0  0
   24.5972   43.5546   63.9690 C   0  0  0  0  0  0  0  0  0  0  0  0
   26.3035   38.4259   65.3046 P   0  0  1  0  0  0  0  0  0  0  0  0
   28.5330   37.1164   65.2750 P   0  0  1  0  0  0  0  0  0  0  0  0
   22.7779   44.3276   65.9596 C   0  0  0  0  0  0  0  0  0  0  0  0
   21.9772   41.9698   65.6259 C   0  0  0  0  0  0  0  0  0  0  0  0
   21.6811   43.3089   65.7848 C   0  0  0  0  0  0  0  0  0  0  0  0
   20.3397   43.6954   65.7800 C   0  0  0  0  0  0  0  0  0  0  0  0
   19.9897   45.0284   65.9354 N   0  0  0  0  0  0  0  0  0  0  0  0
   19.4018   42.7668   65.6181 N   0  0  0  0  0  0  0  0  0  0  0  0
   19.7289   41.4989   65.4745 C   0  0  0  0  0  0  0  0  0  0  0  0
   20.9862   41.1013   65.4743 N   0  0  0  0  0  0  0  0  0  0  0  0
   25.0189   37.7051   65.1572 O   0  0  0  0  0  0  0  0  0  0  0  0
   27.9723   36.9452   66.7048 O   0  0  0  0  0  0  0  0  0  0  0  0
   25.7856   42.6241   67.5834 S   0  0  0  0  0  0  0  0  0  0  0  0
   24.2422   43.4200   67.6263 C   0  0  0  0  0  0  0  0  0  0  0  0
   26.8063   38.3215   66.8291 O   0  0  0  0  0  0  0  0  0  0  0  0
   28.9623   35.6801   64.6894 O   0  5  0  0  0  0  0  0  0  0  0  0
   24.0153   43.6506   66.3538 N   0  0  0  0  0  0  0  0  0  0  0  0
   27.4031   37.7667   64.3300 O   0  0  0  0  0  0  0  0  0  0  0  0
   29.7673   38.0451   65.3156 O   0  0  0  0  0  0  0  0  0  0  0  0
   24.8729   43.2838   65.4266 C   0  0  2  0  0  0  0  0  0  0  0  0
   26.0162   42.6621   65.8122 C   0  0  2  0  0  0  0  0  0  0  0  0
   27.1592   42.1447   64.9787 C   0  0  0  0  0  0  0  0  0  0  0  0
   27.3259   40.6418   65.2142 C   0  0  0  0  0  0  0  0  0  0  0  0
   26.0995   39.9740   64.9108 O   0  0  0  0  0  0  0  0  0  0  0  0
  1 11  1  0  0  0  0
  3 13  1  6  0  0  0
  3 17  1  0  0  0  0
  3 20  1  0  0  0  0
  3 26  1  0  0  0  0
  4 14  1  0  0  0  0
  4 18  1  6  0  0  0
  4 21  2  0  0  0  0
  4 20  1  0  0  0  0
  5 19  1  0  0  0  0
  5  7  1  0  0  0  0
  6  7  2  0  0  0  0
  6 12  1  0  0  0  0
  7  8  1  0  0  0  0
  8  9  1  0  0  0  0
  8 10  2  0  0  0  0
 10 11  1  0  0  0  0
 11 12  2  0  0  0  0
 14 17  1  0  0  0  0
 15 23  1  0  0  0  0
 15 16  1  0  0  0  0
 16 19  1  0  0  0  0
 19 22  1  0  0  0  0
 22  2  1  1  0  0  0
 22 23  1  0  0  0  0
 23 24  1  6  0  0  0
 24 25  1  0  0  0  0
 25 26  1  0  0  0  0
M  CHG  1  18  -1
M  END
>  <CHROM.1>
-86.97151887,-17.99548681,58.98208063,56.94044538,-175.02643101,173.69793621
24.91635489,40.64903383,65.66640068,2.47138413,-0.08146137,0.18091319

>  <Name>
ligand

>  <RI>
0

>  <Rbt.Current_Directory>
/home/itssahil/PROJECTS/Mol_Feturizer/New_Systems/rnas/2HOL

>  <Rbt.Executable>
rbdock ($Id: //depot/dev/client3/rdock/2013.1/src/exe/rbdock.cxx#4 $)

>  <Rbt.Library>
libRbt.so (2013.1, Build901 2013/11/27)

>  <Rbt.Parameter_File>
/export/apps/rDock/src/rDock_2013.1_src/data/scripts/dock_solv.prm

>  <Rbt.Receptor>
prm/pocket_docking_5.prm

>  <SCORE>
-17.714

>  <SCORE.INTER>
-13.6489

>  <SCORE.INTER.CONST>
1

>  <SCORE.INTER.POLAR>
0

>  <SCORE.INTER.ROT>
6

>  <SCORE.INTER.SOLV>
25.7528

>  <SCORE.INTER.VDW>
-25.2835

>  <SCORE.INTER.norm>
-0.524957

>  <SCORE.INTRA>
-4.06509

>  <SCORE.INTRA.DIHEDRAL>
-3.95878

>  <SCORE.INTRA.DIHEDRAL.0>
9.33621

>  <SCORE.INTRA.POLAR>
0

>  <SCORE.INTRA.POLAR.0>
0

>  <SCORE.INTRA.REPUL>
0

>  <SCORE.INTRA.REPUL.0>
0

>  <SCORE.INTRA.SOLV>
0.162676

>  <SCORE.INTRA.SOLV.lig_0>
-65.9238

>  <SCORE.INTRA.VDW>
-2.16704

>  <SCORE.INTRA.VDW.0>
-0.405582

>  <SCORE.INTRA.norm>
-0.156349

>  <SCORE.RESTR>
0

>  <SCORE.RESTR.CAVITY>
0

>  <SCORE.RESTR.norm>
0

>  <SCORE.SYSTEM>
0

>  <SCORE.SYSTEM.CONST>
0

>  <SCORE.SYSTEM.DIHEDRAL>
0

>  <SCORE.SYSTEM.SOLV>
0

>  <SCORE.SYSTEM.norm>
0

>  <SCORE.heavy>
26

>  <SCORE.norm>
-0.681306

>  <RMSD>
3.312

$$$$
ligand
 OpenBabel11021811443D
libRbt.so/2013.1/901 2013/11/27
 26 28  0  0  0  0  0  0  0  0999 V2000
   21.5139   45.3092   66.2858 C   0  0  0  0  0  0  0  0  0  0  0  0
   22.1338   39.3710   64.8691 C   0  0  0  0  0  0  0  0  0  0  0  0
   27.2877   39.6667   65.7207 P   0  0  1  0  0  0  0  0  0  0  0  0
   28.3749   41.0662   67.6037 P   0  0  1  0  0  0  0  0  0  0  0  0
   19.7390   39.8995   66.2312 C   0  0  0  0  0  0  0  0  0  0  0  0
   21.2703   41.7216   67.0353 C   0  0  0  0  0  0  0  0  0  0  0  0
   20.2077   41.3317   66.2447 C   0  0  0  0  0  0  0  0  0  0  0  0
   19.5785   42.2980   65.4578 C   0  0  0  0  0  0  0  0  0  0  0  0
   18.5063   41.9575   64.6467 N   0  0  0  0  0  0  0  0  0  0  0  0
   20.0190   43.5519   65.5017 N   0  0  0  0  0  0  0  0  0  0  0  0
   21.0398   43.8794   66.2671 C   0  0  0  0  0  0  0  0  0  0  0  0
   21.6554   42.9907   67.0223 N   0  0  0  0  0  0  0  0  0  0  0  0
   26.9688   40.2964   64.4194 O   0  0  0  0  0  0  0  0  0  0  0  0
   29.5309   40.6873   66.6506 O   0  0  0  0  0  0  0  0  0  0  0  0
   21.9498   37.6467   68.3812 S   0  0  0  0  0  0  0  0  0  0  0  0
   20.5037   38.5545   68.0622 C   0  0  0  0  0  0  0  0  0  0  0  0
   28.8466   39.2712   65.7585 O   0  0  0  0  0  0  0  0  0  0  0  0
   28.4295   42.6442   67.9157 O   0  5  0  0  0  0  0  0  0  0  0  0
   20.7460   39.0496   66.8705 N   0  0  0  0  0  0  0  0  0  0  0  0
   26.9675   40.7034   66.9107 O   0  0  0  0  0  0  0  0  0  0  0  0
   28.5180   40.2757   68.9236 O   0  0  0  0  0  0  0  0  0  0  0  0
   21.8709   38.7960   66.2380 C   0  0  2  0  0  0  0  0  0  0  0  0
   22.7938   38.0103   66.8490 C   0  0  2  0  0  0  0  0  0  0  0  0
   24.1501   37.5656   66.3678 C   0  0  0  0  0  0  0  0  0  0  0  0
   25.0749   38.7791   66.2491 C   0  0  0  0  0  0  0  0  0  0  0  0
   26.3925   38.3416   65.9104 O   0  0  0  0  0  0  0  0  0  0  0  0
  1 11  1  0  0  0  0
  3 13  1  6  0  0  0
  3 17  1  0  0  0  0
  3 20  1  0  0  0  0
  3 26  1  0  0  0  0
  4 14  1  0  0  0  0
  4 18  1  1  0  0  0
  4 21  2  0  0  0  0
  4 20  1  0  0  0  0
  5 19  1  0  0  0  0
  5  7  1  0  0  0  0
  6  7  2  0  0  0  0
  6 12  1  0  0  0  0
  7  8  1  0  0  0  0
  8  9  1  0  0  0  0
  8 10  2  0  0  0  0
 10 11  1  0  0  0  0
 11 12  2  0  0  0  0
 14 17  1  0  0  0  0
 15 23  1  0  0  0  0
 15 16  1  0  0  0  0
 16 19  1  0  0  0  0
 19 22  1  0  0  0  0
 22  2  1  1  0  0  0
 22 23  1  0  0  0  0
 23 24  1  6  0  0  0
 24 25  1  0  0  0  0
 25 26  1  0  0  0  0
M  CHG  1  18  -1
M  END
>  <CHROM.1>
107.30693179,-13.63481058,-114.40250043,174.77731759,176.87081903,-76.09702531
24.10966019,40.38576044,66.57104089,-3.01278580,0.05386368,3.02174294

>  <Name>
ligand

>  <RI>
0

>  <Rbt.Current_Directory>
/home/itssahil/PROJECTS/Mol_Feturizer/New_Systems/rnas/2HOL

>  <Rbt.Executable>
rbdock ($Id: //depot/dev/client3/rdock/2013.1/src/exe/rbdock.cxx#4 $)

>  <Rbt.Library>
libRbt.so (2013.1, Build901 2013/11/27)

>  <Rbt.Parameter_File>
/export/apps/rDock/src/rDock_2013.1_src/data/scripts/dock_solv.prm

>  <Rbt.Receptor>
prm/pocket_docking_4.prm

>  <SCORE>
-15.8312

>  <SCORE.INTER>
-13.2759

>  <SCORE.INTER.CONST>
1

>  <SCORE.INTER.POLAR>
0

>  <SCORE.INTER.ROT>
6

>  <SCORE.INTER.SOLV>
19.1424

>  <SCORE.INTER.VDW>
-22.8314

>  <SCORE.INTER.norm>
-0.510612

>  <SCORE.INTRA>
-2.55827

>  <SCORE.INTRA.DIHEDRAL>
-4.20109

>  <SCORE.INTRA.DIHEDRAL.0>
9.33621

>  <SCORE.INTRA.POLAR>
0

>  <SCORE.INTRA.POLAR.0>
0

>  <SCORE.INTRA.REPUL>
0

>  <SCORE.INTRA.REPUL.0>
0

>  <SCORE.INTRA.SOLV>
-0.0515581

>  <SCORE.INTRA.SOLV.lig_0>
-65.9238

>  <SCORE.INTRA.VDW>
-0.431952

>  <SCORE.INTRA.VDW.0>
-0.405582

>  <SCORE.INTRA.norm>
-0.0983952

>  <SCORE.RESTR>
0.00299556

>  <SCORE.RESTR.CAVITY>
0.00299556

>  <SCORE.RESTR.norm>
0.000115214

>  <SCORE.SYSTEM>
0

>  <SCORE.SYSTEM.CONST>
0

>  <SCORE.SYSTEM.DIHEDRAL>
0

>  <SCORE.SYSTEM.SOLV>
0

>  <SCORE.SYSTEM.norm>
0

>  <SCORE.heavy>
26

>  <SCORE.norm>
-0.608892

>  <RMSD>
3.313

$$$$
ligand
 OpenBabel11021811443D
libRbt.so/2013.1/901 2013/11/27
 26 28  0  0  0  0  0  0  0  0999 V2000
   21.1556   45.0457   66.1462 C   0  0  0  0  0  0  0  0  0  0  0  0
   21.3500   38.7521   68.9981 C   0  0  0  0  0  0  0  0  0  0  0  0
   27.1585   39.3535   68.1038 P   0  0  1  0  0  0  0  0  0  0  0  0
   27.7302   41.4807   66.7491 P   0  0  1  0  0  0  0  0  0  0  0  0
   20.1959   39.4471   66.5375 C   0  0  0  0  0  0  0  0  0  0  0  0
   21.5183   41.5125   67.0827 C   0  0  0  0  0  0  0  0  0  0  0  0
   20.4487   40.9292   66.4331 C   0  0  0  0  0  0  0  0  0  0  0  0
   19.6074   41.7470   65.6768 C   0  0  0  0  0  0  0  0  0  0  0  0
   18.5190   41.2099   65.0056 N   0  0  0  0  0  0  0  0  0  0  0  0
   19.8616   43.0508   65.6140 N   0  0  0  0  0  0  0  0  0  0  0  0
   20.8966   43.5651   66.2460 C   0  0  0  0  0  0  0  0  0  0  0  0
   21.7099   42.8200   66.9687 N   0  0  0  0  0  0  0  0  0  0  0  0
   28.2151   38.6598   68.8745 O   0  0  0  0  0  0  0  0  0  0  0  0
   27.5719   41.9527   68.2121 O   0  0  0  0  0  0  0  0  0  0  0  0
   23.4915   37.6186   65.9206 S   0  0  0  0  0  0  0  0  0  0  0  0
   22.0497   38.4370   65.4022 C   0  0  0  0  0  0  0  0  0  0  0  0
   26.6130   40.6087   68.9492 O   0  0  0  0  0  0  0  0  0  0  0  0
   29.0995   42.0667   66.1394 O   0  5  0  0  0  0  0  0  0  0  0  0
   21.4743   38.7326   66.5447 N   0  0  0  0  0  0  0  0  0  0  0  0
   27.7674   39.8715   66.7057 O   0  0  0  0  0  0  0  0  0  0  0  0
   26.5350   41.9909   65.9131 O   0  0  0  0  0  0  0  0  0  0  0  0
   22.0227   38.4043   67.6942 C   0  0  2  0  0  0  0  0  0  0  0  0
   23.2052   37.7380   67.6801 C   0  0  2  0  0  0  0  0  0  0  0  0
   24.0444   37.2413   68.8281 C   0  0  0  0  0  0  0  0  0  0  0  0
   25.2304   38.1846   69.0416 C   0  0  0  0  0  0  0  0  0  0  0  0
   25.9468   38.3333   67.8141 O   0  0  0  0  0  0  0  0  0  0  0  0
  1 11  1  0  0  0  0
  3 13  1  1  0  0  0
  3 17  1  0  0  0  0
  3 20  1  0  0  0  0
  3 26  1  0  0  0  0
  4 14  1  0  0  0  0
  4 18  1  6  0  0  0
  4 21  2  0  0  0  0
  4 20  1  0  0  0  0
  5 19  1  0  0  0  0
  5  7  1  0  0  0  0
  6  7  2  0  0  0  0
  6 12  1  0  0  0  0
  7  8  1  0  0  0  0
  8  9  1  0  0  0  0
  8 10  2  0  0  0  0
 10 11  1  0  0  0  0
 11 12  2  0  0  0  0
 14 17  1  0  0  0  0
 15 23  1  0  0  0  0
 15 16  1  0  0  0  0
 16 19  1  0  0  0  0
 19 22  1  0  0  0  0
 22  2  1  6  0  0  0
 22 23  1  0  0  0  0
 23 24  1  1  0  0  0
 24 25  1  0  0  0  0
 25 26  1  0  0  0  0
M  CHG  1  18  -1
M  END
>  <CHROM.1>
-84.74923266,-37.32460252,77.27409356,-54.09130791,179.00746119,74.93625272
24.08977194,40.23876079,67.06437745,-2.94418271,0.15043361,2.88355674

>  <Name>
ligand

>  <RI>
0

>  <Rbt.Current_Directory>
/home/itssahil/PROJECTS/Mol_Feturizer/New_Systems/rnas/2HOL

>  <Rbt.Executable>
rbdock ($Id: //depot/dev/client3/rdock/2013.1/src/exe/rbdock.cxx#4 $)

>  <Rbt.Library>
libRbt.so (2013.1, Build901 2013/11/27)

>  <Rbt.Parameter_File>
/export/apps/rDock/src/rDock_2013.1_src/data/scripts/dock_solv.prm

>  <Rbt.Receptor>
prm/pocket_docking_3.prm

>  <SCORE>
-17.1043

>  <SCORE.INTER>
-13.3132

>  <SCORE.INTER.CONST>
1

>  <SCORE.INTER.POLAR>
0

>  <SCORE.INTER.ROT>
6

>  <SCORE.INTER.SOLV>
13.7288

>  <SCORE.INTER.VDW>
-21.0518

>  <SCORE.INTER.norm>
-0.512048

>  <SCORE.INTRA>
-3.87184

>  <SCORE.INTRA.DIHEDRAL>
-3.82283

>  <SCORE.INTRA.DIHEDRAL.0>
9.33621

>  <SCORE.INTRA.POLAR>
0

>  <SCORE.INTRA.POLAR.0>
0

>  <SCORE.INTRA.REPUL>
0

>  <SCORE.INTRA.REPUL.0>
0

>  <SCORE.INTRA.SOLV>
-0.672261

>  <SCORE.INTRA.SOLV.lig_0>
-65.9238

>  <SCORE.INTRA.VDW>
-1.62429

>  <SCORE.INTRA.VDW.0>
-0.405582

>  <SCORE.INTRA.norm>
-0.148917

>  <SCORE.RESTR>
0.0807648

>  <SCORE.RESTR.CAVITY>
0.0807648

>  <SCORE.RESTR.norm>
0.00310634

>  <SCORE.SYSTEM>
0

>  <SCORE.SYSTEM.CONST>
0

>  <SCORE.SYSTEM.DIHEDRAL>
0

>  <SCORE.SYSTEM.SOLV>
0

>  <SCORE.SYSTEM.norm>
0

>  <SCORE.heavy>
26

>  <SCORE.norm>
-0.657858

>  <RMSD>
3.324

$$$$
ligand
 OpenBabel11021811443D
libRbt.so/2013.1/901 2013/11/27
 26 28  0  0  0  0  0  0  0  0999 V2000
   20.6811   44.8827   66.0771 C   0  0  0  0  0  0  0  0  0  0  0  0
   20.9260   38.9047   67.8082 C   0  0  0  0  0  0  0  0  0  0  0  0
   26.8701   39.2992   67.2888 P   0  0  1  0  0  0  0  0  0  0  0  0
   28.3869   41.3153   67.8555 P   0  0  1  0  0  0  0  0  0  0  0  0
   20.1489   39.2918   65.1407 C   0  0  0  0  0  0  0  0  0  0  0  0
   21.5121   41.3236   65.7110 C   0  0  0  0  0  0  0  0  0  0  0  0
   20.2883   40.7718   65.3884 C   0  0  0  0  0  0  0  0  0  0  0  0
   19.1832   41.6199   65.2971 C   0  0  0  0  0  0  0  0  0  0  0  0
   17.9319   41.1150   64.9765 N   0  0  0  0  0  0  0  0  0  0  0  0
   19.3469   42.9192   65.5278 N   0  0  0  0  0  0  0  0  0  0  0  0
   20.5341   43.4043   65.8283 C   0  0  0  0  0  0  0  0  0  0  0  0
   21.5975   42.6302   65.9226 N   0  0  0  0  0  0  0  0  0  0  0  0
   27.1880   38.4358   66.1290 O   0  0  0  0  0  0  0  0  0  0  0  0
   29.1128   40.0778   68.4299 O   0  0  0  0  0  0  0  0  0  0  0  0
   23.5333   37.5248   65.2314 S   0  0  0  0  0  0  0  0  0  0  0  0
   22.1728   38.2320   64.4151 C   0  0  0  0  0  0  0  0  0  0  0  0
   27.7760   38.8659   68.5455 O   0  0  0  0  0  0  0  0  0  0  0  0
   29.4225   42.1949   66.9929 O   0  5  0  0  0  0  0  0  0  0  0  0
   21.4241   38.6275   65.4186 N   0  0  0  0  0  0  0  0  0  0  0  0
   27.1731   40.8354   66.9125 O   0  0  0  0  0  0  0  0  0  0  0  0
   27.8302   42.1688   69.0171 O   0  0  0  0  0  0  0  0  0  0  0  0
   21.7964   38.4434   66.6665 C   0  0  2  0  0  0  0  0  0  0  0  0
   22.9793   37.8214   66.9038 C   0  0  2  0  0  0  0  0  0  0  0  0
   23.6423   37.4800   68.2126 C   0  0  0  0  0  0  0  0  0  0  0  0
   25.1370   37.7971   68.1279 C   0  0  0  0  0  0  0  0  0  0  0  0
   25.3132   39.1386   67.6679 O   0  0  0  0  0  0  0  0  0  0  0  0
  1 11  1  0  0  0  0
  3 13  1  6  0  0  0
  3 17  1  0  0  0  0
  3 20  1  0  0  0  0
  3 26  1  0  0  0  0
  4 14  1  0  0  0  0
  4 18  1  6  0  0  0
  4 21  2  0  0  0  0
  4 20  1  0  0  0  0
  5 19  1  0  0  0  0
  5  7  1  0  0  0  0
  6  7  2  0  0  0  0
  6 12  1  0  0  0  0
  7  8  1  0  0  0  0
  8  9  1  0  0  0  0
  8 10  2  0  0  0  0
 10 11  1  0  0  0  0
 11 12  2  0  0  0  0
 14 17  1  0  0  0  0
 15 23  1  0  0  0  0
 15 16  1  0  0  0  0
 16 19  1  0  0  0  0
 19 22  1  0  0  0  0
 22  2  1  1  0  0  0
 22 23  1  0  0  0  0
 23 24  1  6  0  0  0
 24 25  1  0  0  0  0
 25 26  1  0  0  0  0
M  CHG  1  18  -1
M  END
>  <CHROM.1>
-104.48816511,5.09242799,42.49836368,51.78912348,-167.63154252,66.13547098
24.06966556,40.09909899,66.68226472,-3.05422449,0.27677804,-3.10987247

>  <Name>
ligand

>  <RI>
0

>  <Rbt.Current_Directory>
/home/itssahil/PROJECTS/Mol_Feturizer/New_Systems/rnas/2HOL

>  <Rbt.Executable>
rbdock ($Id: //depot/dev/client3/rdock/2013.1/src/exe/rbdock.cxx#4 $)

>  <Rbt.Library>
libRbt.so (2013.1, Build901 2013/11/27)

>  <Rbt.Parameter_File>
/export/apps/rDock/src/rDock_2013.1_src/data/scripts/dock_solv.prm

>  <Rbt.Receptor>
prm/pocket_docking_4.prm

>  <SCORE>
-18.917

>  <SCORE.INTER>
-15.863

>  <SCORE.INTER.CONST>
1

>  <SCORE.INTER.POLAR>
0

>  <SCORE.INTER.ROT>
6

>  <SCORE.INTER.SOLV>
16.2386

>  <SCORE.INTER.VDW>
-23.5882

>  <SCORE.INTER.norm>
-0.610114

>  <SCORE.INTRA>
-3.06331

>  <SCORE.INTRA.DIHEDRAL>
-3.24805

>  <SCORE.INTRA.DIHEDRAL.0>
9.33621

>  <SCORE.INTRA.POLAR>
0

>  <SCORE.INTRA.POLAR.0>
0

>  <SCORE.INTRA.REPUL>
0

>  <SCORE.INTRA.REPUL.0>
0

>  <SCORE.INTRA.SOLV>
-0.478219

>  <SCORE.INTRA.SOLV.lig_0>
-65.9238

>  <SCORE.INTRA.VDW>
-1.20018

>  <SCORE.INTRA.VDW.0>
-0.405582

>  <SCORE.INTRA.norm>
-0.11782

>  <SCORE.RESTR>
0.00927861

>  <SCORE.RESTR.CAVITY>
0.00927861

>  <SCORE.RESTR.norm>
0.00035687

>  <SCORE.SYSTEM>
0

>  <SCORE.SYSTEM.CONST>
0

>  <SCORE.SYSTEM.DIHEDRAL>
0

>  <SCORE.SYSTEM.SOLV>
0

>  <SCORE.SYSTEM.norm>
0

>  <SCORE.heavy>
26

>  <SCORE.norm>
-0.727577

>  <RMSD>
3.344

$$$$
ligand
 OpenBabel11021811443D
libRbt.so/2013.1/901 2013/11/27
 26 28  0  0  0  0  0  0  0  0999 V2000
   16.3945   39.6296   63.8051 C   0  0  0  0  0  0  0  0  0  0  0  0
   22.4077   44.1200   65.3632 C   0  0  0  0  0  0  0  0  0  0  0  0
   27.8380   42.3012   66.5916 P   0  0  1  0  0  0  0  0  0  0  0  0
   29.7514   43.9668   66.0905 P   0  0  1  0  0  0  0  0  0  0  0  0
   20.7400   42.1585   66.4771 C   0  0  0  0  0  0  0  0  0  0  0  0
   18.7847   42.1948   64.9000 C   0  0  0  0  0  0  0  0  0  0  0  0
   19.5901   41.4879   65.7706 C   0  0  0  0  0  0  0  0  0  0  0  0
   19.3124   40.1359   65.9796 C   0  0  0  0  0  0  0  0  0  0  0  0
   20.0912   39.3819   66.8446 N   0  0  0  0  0  0  0  0  0  0  0  0
   18.2857   39.5824   65.3409 N   0  0  0  0  0  0  0  0  0  0  0  0
   17.5457   40.2932   64.5149 C   0  0  0  0  0  0  0  0  0  0  0  0
   17.7814   41.5720   64.2960 N   0  0  0  0  0  0  0  0  0  0  0  0
   28.0887   41.1212   67.4497 O   0  0  0  0  0  0  0  0  0  0  0  0
   29.2337   44.3433   67.4970 O   0  0  0  0  0  0  0  0  0  0  0  0
   23.8543   40.4962   65.0201 S   0  0  0  0  0  0  0  0  0  0  0  0
   22.3199   40.4744   65.8340 C   0  0  0  0  0  0  0  0  0  0  0  0
   27.5882   43.5941   67.5155 O   0  0  0  0  0  0  0  0  0  0  0  0
   31.3561   43.8471   66.1215 O   0  5  0  0  0  0  0  0  0  0  0  0
   22.0013   41.7479   65.8564 N   0  0  0  0  0  0  0  0  0  0  0  0
   29.1153   42.5564   65.6446 O   0  0  0  0  0  0  0  0  0  0  0  0
   29.3367   45.0608   65.0812 O   0  0  0  0  0  0  0  0  0  0  0  0
   22.7883   42.6612   65.3307 C   0  0  2  0  0  0  0  0  0  0  0  0
   23.9553   42.2616   64.7644 C   0  0  2  0  0  0  0  0  0  0  0  0
   25.0334   43.0783   64.1015 C   0  0  0  0  0  0  0  0  0  0  0  0
   26.1931   43.2852   65.0784 C   0  0  0  0  0  0  0  0  0  0  0  0
   26.5393   42.0349   65.6775 O   0  0  0  0  0  0  0  0  0  0  0  0
  1 11  1  0  0  0  0
  3 13  1  1  0  0  0
  3 17  1  0  0  0  0
  3 20  1  0  0  0  0
  3 26  1  0  0  0  0
  4 14  1  0  0  0  0
  4 18  1  1  0  0  0
  4 21  2  0  0  0  0
  4 20  1  0  0  0  0
  5 19  1  0  0  0  0
  5  7  1  0  0  0  0
  6  7  2  0  0  0  0
  6 12  1  0  0  0  0
  7  8  1  0  0  0  0
  8  9  1  0  0  0  0
  8 10  2  0  0  0  0
 10 11  1  0  0  0  0
 11 12  2  0  0  0  0
 14 17  1  0  0  0  0
 15 23  1  0  0  0  0
 15 16  1  0  0  0  0
 16 19  1  0  0  0  0
 19 22  1  0  0  0  0
 22  2  1  1  0  0  0
 22 23  1  0  0  0  0
 23 24  1  6  0  0  0
 24 25  1  0  0  0  0
 25 26  1  0  0  0  0
M  CHG  1  18  -1
M  END
>  <CHROM.1>
-59.51097230,-104.85976846,-79.75423359,47.78672822,175.28422904,168.72221754
24.36130576,42.13525112,65.71276404,2.94167323,0.20676242,2.74455492

>  <Name>
ligand

>  <RI>
0

>  <Rbt.Current_Directory>
/home/itssahil/PROJECTS/Mol_Feturizer/New_Systems/rnas/2HOL

>  <Rbt.Executable>
rbdock ($Id: //depot/dev/client3/rdock/2013.1/src/exe/rbdock.cxx#4 $)

>  <Rbt.Library>
libRbt.so (2013.1, Build901 2013/11/27)

>  <Rbt.Parameter_File>
/export/apps/rDock/src/rDock_2013.1_src/data/scripts/dock_solv.prm

>  <Rbt.Receptor>
prm/pocket_docking_7.prm

>  <SCORE>
-20.6686

>  <SCORE.INTER>
-18.3407

>  <SCORE.INTER.CONST>
1

>  <SCORE.INTER.POLAR>
0

>  <SCORE.INTER.ROT>
6

>  <SCORE.INTER.SOLV>
12.3915

>  <SCORE.INTER.VDW>
-23.9576

>  <SCORE.INTER.norm>
-0.705411

>  <SCORE.INTRA>
-2.32789

>  <SCORE.INTRA.DIHEDRAL>
-3.45354

>  <SCORE.INTRA.DIHEDRAL.0>
9.33621

>  <SCORE.INTRA.POLAR>
0

>  <SCORE.INTRA.POLAR.0>
0

>  <SCORE.INTRA.REPUL>
0

>  <SCORE.INTRA.REPUL.0>
0

>  <SCORE.INTRA.SOLV>
1.88821

>  <SCORE.INTRA.SOLV.lig_0>
-65.9238

>  <SCORE.INTRA.VDW>
-1.54523

>  <SCORE.INTRA.VDW.0>
-0.405582

>  <SCORE.INTRA.norm>
-0.0895344

>  <SCORE.RESTR>
0

>  <SCORE.RESTR.CAVITY>
0

>  <SCORE.RESTR.norm>
0

>  <SCORE.SYSTEM>
0

>  <SCORE.SYSTEM.CONST>
0

>  <SCORE.SYSTEM.DIHEDRAL>
0

>  <SCORE.SYSTEM.SOLV>
0

>  <SCORE.SYSTEM.norm>
0

>  <SCORE.heavy>
26

>  <SCORE.norm>
-0.794945

>  <RMSD>
3.371

$$$$
ligand
 OpenBabel11021811443D
libRbt.so/2013.1/901 2013/11/27
 26 28  0  0  0  0  0  0  0  0999 V2000
   20.0608   44.4460   65.8311 C   0  0  0  0  0  0  0  0  0  0  0  0
   22.6679   39.0475   65.0200 C   0  0  0  0  0  0  0  0  0  0  0  0
   28.0570   40.4547   66.7548 P   0  0  1  0  0  0  0  0  0  0  0  0
   26.0745   41.9273   67.5216 P   0  0  1  0  0  0  0  0  0  0  0  0
   20.7939   38.9452   67.1050 C   0  0  0  0  0  0  0  0  0  0  0  0
   21.4366   41.3671   67.2871 C   0  0  0  0  0  0  0  0  0  0  0  0
   20.5986   40.4009   66.7670 C   0  0  0  0  0  0  0  0  0  0  0  0
   19.5660   40.8065   65.9197 C   0  0  0  0  0  0  0  0  0  0  0  0
   18.6968   39.8750   65.3718 N   0  0  0  0  0  0  0  0  0  0  0  0
   19.4242   42.1009   65.6501 N   0  0  0  0  0  0  0  0  0  0  0  0
   20.2498   42.9891   66.1645 C   0  0  0  0  0  0  0  0  0  0  0  0
   21.2348   42.6387   66.9682 N   0  0  0  0  0  0  0  0  0  0  0  0
   29.3553   41.0791   66.4139 O   0  0  0  0  0  0  0  0  0  0  0  0
   26.9707   41.7587   68.7692 O   0  0  0  0  0  0  0  0  0  0  0  0
   24.2774   38.2254   68.4951 S   0  0  0  0  0  0  0  0  0  0  0  0
   22.5593   38.4342   68.6438 C   0  0  0  0  0  0  0  0  0  0  0  0
   27.9417   40.2919   68.3510 O   0  0  0  0  0  0  0  0  0  0  0  0
   25.7137   43.4833   67.3241 O   0  5  0  0  0  0  0  0  0  0  0  0
   22.2055   38.6988   67.4074 N   0  0  0  0  0  0  0  0  0  0  0  0
   26.8572   41.3876   66.2220 O   0  0  0  0  0  0  0  0  0  0  0  0
   24.7724   41.1174   67.7117 O   0  0  0  0  0  0  0  0  0  0  0  0
   23.0902   38.7435   66.4353 C   0  0  2  0  0  0  0  0  0  0  0  0
   24.3943   38.5173   66.7363 C   0  0  2  0  0  0  0  0  0  0  0  0
   25.6029   38.5102   65.8374 C   0  0  0  0  0  0  0  0  0  0  0  0
   26.8669   38.3236   66.6798 C   0  0  0  0  0  0  0  0  0  0  0  0
   27.9577   39.0062   66.0583 O   0  0  0  0  0  0  0  0  0  0  0  0
  1 11  1  0  0  0  0
  3 13  1  6  0  0  0
  3 17  1  0  0  0  0
  3 20  1  0  0  0  0
  3 26  1  0  0  0  0
  4 14  1  0  0  0  0
  4 18  1  6  0  0  0
  4 21  2  0  0  0  0
  4 20  1  0  0  0  0
  5 19  1  0  0  0  0
  5  7  1  0  0  0  0
  6  7  2  0  0  0  0
  6 12  1  0  0  0  0
  7  8  1  0  0  0  0
  8  9  1  0  0  0  0
  8 10  2  0  0  0  0
 10 11  1  0  0  0  0
 11 12  2  0  0  0  0
 14 17  1  0  0  0  0
 15 23  1  0  0  0  0
 15 16  1  0  0  0  0
 16 19  1  0  0  0  0
 19 22  1  0  0  0  0
 22  2  1  1  0  0  0
 22 23  1  0  0  0  0
 23 24  1  6  0  0  0
 24 25  1  0  0  0  0
 25 26  1  0  0  0  0
M  CHG  1  18  -1
M  END
>  <CHROM.1>
109.73967990,-27.75469845,-5.15580422,-148.59029599,95.28927206,165.73307635
24.20728512,40.48227429,66.92924906,-3.03578113,0.10550263,3.07322853

>  <Name>
ligand

>  <RI>
0

>  <Rbt.Current_Directory>
/home/itssahil/PROJECTS/Mol_Feturizer/New_Systems/rnas/2HOL

>  <Rbt.Executable>
rbdock ($Id: //depot/dev/client3/rdock/2013.1/src/exe/rbdock.cxx#4 $)

>  <Rbt.Library>
libRbt.so (2013.1, Build901 2013/11/27)

>  <Rbt.Parameter_File>
/export/apps/rDock/src/rDock_2013.1_src/data/scripts/dock_solv.prm

>  <Rbt.Receptor>
prm/pocket_docking_4.prm

>  <SCORE>
-11.1667

>  <SCORE.INTER>
-12.1746

>  <SCORE.INTER.CONST>
1

>  <SCORE.INTER.POLAR>
0

>  <SCORE.INTER.ROT>
6

>  <SCORE.INTER.SOLV>
13.9855

>  <SCORE.INTER.VDW>
-20.3782

>  <SCORE.INTER.norm>
-0.468254

>  <SCORE.INTRA>
1.0079

>  <SCORE.INTRA.DIHEDRAL>
3.10477

>  <SCORE.INTRA.DIHEDRAL.0>
9.33621

>  <SCORE.INTRA.POLAR>
0

>  <SCORE.INTRA.POLAR.0>
0

>  <SCORE.INTRA.REPUL>
0

>  <SCORE.INTRA.REPUL.0>
0

>  <SCORE.INTRA.SOLV>
4.04083

>  <SCORE.INTRA.SOLV.lig_0>
-65.9238

>  <SCORE.INTRA.VDW>
-2.5649

>  <SCORE.INTRA.VDW.0>
-0.405582

>  <SCORE.INTRA.norm>
0.0387654

>  <SCORE.RESTR>
0

>  <SCORE.RESTR.CAVITY>
0

>  <SCORE.RESTR.norm>
0

>  <SCORE.SYSTEM>
0

>  <SCORE.SYSTEM.CONST>
0

>  <SCORE.SYSTEM.DIHEDRAL>
0

>  <SCORE.SYSTEM.SOLV>
0

>  <SCORE.SYSTEM.norm>
0

>  <SCORE.heavy>
26

>  <SCORE.norm>
-0.429488

>  <RMSD>
3.397

$$$$
ligand
 OpenBabel11021811443D
libRbt.so/2013.1/901 2013/11/27
 26 28  0  0  0  0  0  0  0  0999 V2000
   15.9420   39.5015   63.8572 C   0  0  0  0  0  0  0  0  0  0  0  0
   22.3888   38.5235   65.3148 C   0  0  0  0  0  0  0  0  0  0  0  0
   25.5792   36.4243   69.7291 P   0  0  1  0  0  0  0  0  0  0  0  0
   26.5038   38.4286   68.3820 P   0  0  1  0  0  0  0  0  0  0  0  0
   21.2074   41.0676   65.3543 C   0  0  0  0  0  0  0  0  0  0  0  0
   19.4784   39.3208   64.8336 C   0  0  0  0  0  0  0  0  0  0  0  0
   19.8133   40.6545   64.9579 C   0  0  0  0  0  0  0  0  0  0  0  0
   18.8276   41.6107   64.7073 C   0  0  0  0  0  0  0  0  0  0  0  0
   19.1135   42.9633   64.8178 N   0  0  0  0  0  0  0  0  0  0  0  0
   17.6111   41.2055   64.3550 N   0  0  0  0  0  0  0  0  0  0  0  0
   17.3334   39.9219   64.2530 C   0  0  0  0  0  0  0  0  0  0  0  0
   18.2418   38.9940   64.4826 N   0  0  0  0  0  0  0  0  0  0  0  0
   26.4468   35.2588   70.0126 O   0  0  0  0  0  0  0  0  0  0  0  0
   27.0249   38.6241   69.8236 O   0  0  0  0  0  0  0  0  0  0  0  0
   21.9015   39.9365   68.9353 S   0  0  0  0  0  0  0  0  0  0  0  0
   21.3193   41.0636   67.7487 C   0  0  0  0  0  0  0  0  0  0  0  0
   25.8910   37.5961   70.7862 O   0  0  0  0  0  0  0  0  0  0  0  0
   27.7214   38.5927   67.3423 O   0  5  0  0  0  0  0  0  0  0  0  0
   21.5632   40.4311   66.6243 N   0  0  0  0  0  0  0  0  0  0  0  0
   25.8673   36.9567   68.2367 O   0  0  0  0  0  0  0  0  0  0  0  0
   25.4221   39.4896   68.0789 O   0  0  0  0  0  0  0  0  0  0  0  0
   22.1162   39.2378   66.6145 C   0  0  2  0  0  0  0  0  0  0  0  0
   22.4434   38.6664   67.8016 C   0  0  2  0  0  0  0  0  0  0  0  0
   23.0817   37.3318   68.0844 C   0  0  0  0  0  0  0  0  0  0  0  0
   23.2531   37.1556   69.5949 C   0  0  0  0  0  0  0  0  0  0  0  0
   24.0342   35.9870   69.8519 O   0  0  0  0  0  0  0  0  0  0  0  0
  1 11  1  0  0  0  0
  3 13  1  1  0  0  0
  3 17  1  0  0  0  0
  3 20  1  0  0  0  0
  3 26  1  0  0  0  0
  4 14  1  0  0  0  0
  4 18  1  6  0  0  0
  4 21  2  0  0  0  0
  4 20  1  0  0  0  0
  5 19  1  0  0  0  0
  5  7  1  0  0  0  0
  6  7  2  0  0  0  0
  6 12  1  0  0  0  0
  7  8  1  0  0  0  0
  8  9  1  0  0  0  0
  8 10  2  0  0  0  0
 10 11  1  0  0  0  0
 11 12  2  0  0  0  0
 14 17  1  0  0  0  0
 15 23  1  0  0  0  0
 15 16  1  0  0  0  0
 16 19  1  0  0  0  0
 19 22  1  0  0  0  0
 22  2  1  6  0  0  0
 22 23  1  0  0  0  0
 23 24  1  1  0  0  0
 24 25  1  0  0  0  0
 25 26  1  0  0  0  0
M  CHG  1  18  -1
M  END
>  <CHROM.1>
-91.57246609,-55.87299664,-0.65821098,-171.43636654,83.95051738,178.85771004
22.77771730,38.85867797,67.43563273,2.58154829,-0.32948125,-0.47428319

>  <Name>
ligand

>  <RI>
0

>  <Rbt.Current_Directory>
/home/itssahil/PROJECTS/Mol_Feturizer/New_Systems/rnas/2HOL

>  <Rbt.Executable>
rbdock ($Id: //depot/dev/client3/rdock/2013.1/src/exe/rbdock.cxx#4 $)

>  <Rbt.Library>
libRbt.so (2013.1, Build901 2013/11/27)

>  <Rbt.Parameter_File>
/export/apps/rDock/src/rDock_2013.1_src/data/scripts/dock_solv.prm

>  <Rbt.Receptor>
prm/pocket_docking_5.prm

>  <SCORE>
-20.2582

>  <SCORE.INTER>
-19.1804

>  <SCORE.INTER.CONST>
1

>  <SCORE.INTER.POLAR>
0

>  <SCORE.INTER.ROT>
6

>  <SCORE.INTER.SOLV>
22.2657

>  <SCORE.INTER.VDW>
-27.8089

>  <SCORE.INTER.norm>
-0.73771

>  <SCORE.INTRA>
-1.07775

>  <SCORE.INTRA.DIHEDRAL>
-2.02823

>  <SCORE.INTRA.DIHEDRAL.0>
9.33621

>  <SCORE.INTRA.POLAR>
0

>  <SCORE.INTRA.POLAR.0>
0

>  <SCORE.INTRA.REPUL>
0

>  <SCORE.INTRA.REPUL.0>
0

>  <SCORE.INTRA.SOLV>
2.44607

>  <SCORE.INTRA.SOLV.lig_0>
-65.9238

>  <SCORE.INTRA.VDW>
-1.28667

>  <SCORE.INTRA.VDW.0>
-0.405582

>  <SCORE.INTRA.norm>
-0.0414519

>  <SCORE.RESTR>
0

>  <SCORE.RESTR.CAVITY>
0

>  <SCORE.RESTR.norm>
0

>  <SCORE.SYSTEM>
0

>  <SCORE.SYSTEM.CONST>
0

>  <SCORE.SYSTEM.DIHEDRAL>
0

>  <SCORE.SYSTEM.SOLV>
0

>  <SCORE.SYSTEM.norm>
0

>  <SCORE.heavy>
26

>  <SCORE.norm>
-0.779161

>  <RMSD>
3.397

$$$$
ligand
 OpenBabel11021811443D
libRbt.so/2013.1/901 2013/11/27
 26 28  0  0  0  0  0  0  0  0999 V2000
   19.9167   45.0137   65.9839 C   0  0  0  0  0  0  0  0  0  0  0  0
   23.4189   38.7747   67.5773 C   0  0  0  0  0  0  0  0  0  0  0  0
   28.0146   39.2961   66.4144 P   0  0  1  0  0  0  0  0  0  0  0  0
   27.9923   39.8942   68.9300 P   0  0  1  0  0  0  0  0  0  0  0  0
   20.7476   39.4956   67.1148 C   0  0  0  0  0  0  0  0  0  0  0  0
   19.4088   41.3787   66.1281 C   0  0  0  0  0  0  0  0  0  0  0  0
   20.5290   40.9565   66.8161 C   0  0  0  0  0  0  0  0  0  0  0  0
   21.4538   41.9174   67.2284 C   0  0  0  0  0  0  0  0  0  0  0  0
   22.5955   41.5449   67.9221 N   0  0  0  0  0  0  0  0  0  0  0  0
   21.2269   43.1957   66.9409 N   0  0  0  0  0  0  0  0  0  0  0  0
   20.1420   43.5552   66.2861 C   0  0  0  0  0  0  0  0  0  0  0  0
   19.2493   42.6723   65.8826 N   0  0  0  0  0  0  0  0  0  0  0  0
   28.3890   40.3200   65.4128 O   0  0  0  0  0  0  0  0  0  0  0  0
   29.4744   39.6295   68.5815 O   0  0  0  0  0  0  0  0  0  0  0  0
   22.2153   37.9635   63.9393 S   0  0  0  0  0  0  0  0  0  0  0  0
   20.9378   38.6905   64.8650 C   0  0  0  0  0  0  0  0  0  0  0  0
   29.3456   38.6629   67.0588 O   0  0  0  0  0  0  0  0  0  0  0  0
   27.8679   41.2830   69.7338 O   0  5  0  0  0  0  0  0  0  0  0  0
   21.5156   38.8842   66.0280 N   0  0  0  0  0  0  0  0  0  0  0  0
   27.1291   39.9787   67.5734 O   0  0  0  0  0  0  0  0  0  0  0  0
   27.4581   38.7414   69.8094 O   0  0  0  0  0  0  0  0  0  0  0  0
   22.7690   38.5445   66.2363 C   0  0  2  0  0  0  0  0  0  0  0  0
   23.4628   37.9746   65.2183 C   0  0  2  0  0  0  0  0  0  0  0  0
   24.8884   37.4901   65.1770 C   0  0  0  0  0  0  0  0  0  0  0  0
   25.8309   38.6398   65.5403 C   0  0  0  0  0  0  0  0  0  0  0  0
   27.1578   38.1342   65.7010 O   0  0  0  0  0  0  0  0  0  0  0  0
  1 11  1  0  0  0  0
  3 13  1  6  0  0  0
  3 17  1  0  0  0  0
  3 20  1  0  0  0  0
  3 26  1  0  0  0  0
  4 14  1  0  0  0  0
  4 18  1  1  0  0  0
  4 21  2  0  0  0  0
  4 20  1  0  0  0  0
  5 19  1  0  0  0  0
  5  7  1  0  0  0  0
  6  7  2  0  0  0  0
  6 12  1  0  0  0  0
  7  8  1  0  0  0  0
  8  9  1  0  0  0  0
  8 10  2  0  0  0  0
 10 11  1  0  0  0  0
 11 12  2  0  0  0  0
 14 17  1  0  0  0  0
 15 23  1  0  0  0  0
 15 16  1  0  0  0  0
 16 19  1  0  0  0  0
 19 22  1  0  0  0  0
 22  2  1  1  0  0  0
 22 23  1  0  0  0  0
 23 24  1  6  0  0  0
 24 25  1  0  0  0  0
 25 26  1  0  0  0  0
M  CHG  1  18  -1
M  END
>  <CHROM.1>
-71.62890214,90.86093170,122.61766269,171.20107619,-166.75536755,-78.34708285
24.43681278,39.94660556,66.70952485,-3.05149719,0.31454809,-2.53428916

>  <Name>
ligand

>  <RI>
0

>  <Rbt.Current_Directory>
/home/itssahil/PROJECTS/Mol_Feturizer/New_Systems/rnas/2HOL

>  <Rbt.Executable>
rbdock ($Id: //depot/dev/client3/rdock/2013.1/src/exe/rbdock.cxx#4 $)

>  <Rbt.Library>
libRbt.so (2013.1, Build901 2013/11/27)

>  <Rbt.Parameter_File>
/export/apps/rDock/src/rDock_2013.1_src/data/scripts/dock_solv.prm

>  <Rbt.Receptor>
prm/pocket_docking_5.prm

>  <SCORE>
-9.38682

>  <SCORE.INTER>
-8.58885

>  <SCORE.INTER.CONST>
1

>  <SCORE.INTER.POLAR>
0

>  <SCORE.INTER.ROT>
6

>  <SCORE.INTER.SOLV>
16.0839

>  <SCORE.INTER.VDW>
-18.6872

>  <SCORE.INTER.norm>
-0.33034

>  <SCORE.INTRA>
-0.809678

>  <SCORE.INTRA.DIHEDRAL>
-3.14008

>  <SCORE.INTRA.DIHEDRAL.0>
9.33621

>  <SCORE.INTRA.POLAR>
0

>  <SCORE.INTRA.POLAR.0>
0

>  <SCORE.INTRA.REPUL>
0

>  <SCORE.INTRA.REPUL.0>
0

>  <SCORE.INTRA.SOLV>
2.83431

>  <SCORE.INTRA.SOLV.lig_0>
-65.9238

>  <SCORE.INTRA.VDW>
-0.656792

>  <SCORE.INTRA.VDW.0>
-0.405582

>  <SCORE.INTRA.norm>
-0.0311415

>  <SCORE.RESTR>
0.0117086

>  <SCORE.RESTR.CAVITY>
0.0117086

>  <SCORE.RESTR.norm>
0.000450329

>  <SCORE.SYSTEM>
0

>  <SCORE.SYSTEM.CONST>
0

>  <SCORE.SYSTEM.DIHEDRAL>
0

>  <SCORE.SYSTEM.SOLV>
0

>  <SCORE.SYSTEM.norm>
0

>  <SCORE.heavy>
26

>  <SCORE.norm>
-0.361031

>  <RMSD>
3.408

$$$$
ligand
 OpenBabel11021811443D
libRbt.so/2013.1/901 2013/11/27
 26 28  0  0  0  0  0  0  0  0999 V2000
   19.7013   44.9893   65.9784 C   0  0  0  0  0  0  0  0  0  0  0  0
   20.8382   38.5713   68.0147 C   0  0  0  0  0  0  0  0  0  0  0  0
   27.2573   38.7587   67.0375 P   0  0  1  0  0  0  0  0  0  0  0  0
   27.5937   41.0390   68.2095 P   0  0  1  0  0  0  0  0  0  0  0  0
   19.9590   39.3251   65.4596 C   0  0  0  0  0  0  0  0  0  0  0  0
   20.8994   41.5257   66.2242 C   0  0  0  0  0  0  0  0  0  0  0  0
   19.8894   40.8243   65.5963 C   0  0  0  0  0  0  0  0  0  0  0  0
   18.8022   41.5393   65.0908 C   0  0  0  0  0  0  0  0  0  0  0  0
   17.7617   40.8815   64.4520 N   0  0  0  0  0  0  0  0  0  0  0  0
   18.7760   42.8608   65.2361 N   0  0  0  0  0  0  0  0  0  0  0  0
   19.7639   43.4907   65.8381 C   0  0  0  0  0  0  0  0  0  0  0  0
   20.8046   42.8447   66.3267 N   0  0  0  0  0  0  0  0  0  0  0  0
   28.0037   38.4456   65.7980 O   0  0  0  0  0  0  0  0  0  0  0  0
   28.7964   40.1706   68.6425 O   0  0  0  0  0  0  0  0  0  0  0  0
   23.6269   38.2763   65.2799 S   0  0  0  0  0  0  0  0  0  0  0  0
   22.1411   38.8513   64.5877 C   0  0  0  0  0  0  0  0  0  0  0  0
   28.2005   38.4954   68.3137 O   0  0  0  0  0  0  0  0  0  0  0  0
   28.1197   42.4736   67.7038 O   0  5  0  0  0  0  0  0  0  0  0  0
   21.3445   38.8825   65.6310 N   0  0  0  0  0  0  0  0  0  0  0  0
   26.8039   40.3039   67.0143 O   0  0  0  0  0  0  0  0  0  0  0  0
   26.6426   41.2345   69.4115 O   0  0  0  0  0  0  0  0  0  0  0  0
   21.7650   38.5287   66.8259 C   0  0  2  0  0  0  0  0  0  0  0  0
   23.0510   38.1167   66.9636 C   0  0  2  0  0  0  0  0  0  0  0  0
   23.7883   37.6568   68.1939 C   0  0  0  0  0  0  0  0  0  0  0  0
   25.1761   38.3007   68.2301 C   0  0  0  0  0  0  0  0  0  0  0  0
   25.9523   37.8199   67.1309 O   0  0  0  0  0  0  0  0  0  0  0  0
  1 11  1  0  0  0  0
  3 13  1  6  0  0  0
  3 17  1  0  0  0  0
  3 20  1  0  0  0  0
  3 26  1  0  0  0  0
  4 14  1  0  0  0  0
  4 18  1  6  0  0  0
  4 21  2  0  0  0  0
  4 20  1  0  0  0  0
  5 19  1  0  0  0  0
  5  7  1  0  0  0  0
  6  7  2  0  0  0  0
  6 12  1  0  0  0  0
  7  8  1  0  0  0  0
  8  9  1  0  0  0  0
  8 10  2  0  0  0  0
 10 11  1  0  0  0  0
 11 12  2  0  0  0  0
 14 17  1  0  0  0  0
 15 23  1  0  0  0  0
 15 16  1  0  0  0  0
 16 19  1  0  0  0  0
 19 22  1  0  0  0  0
 22  2  1  6  0  0  0
 22 23  1  0  0  0  0
 23 24  1  1  0  0  0
 24 25  1  0  0  0  0
 25 26  1  0  0  0  0
M  CHG  1  18  -1
M  END
>  <CHROM.1>
-87.27096046,-19.49988782,43.95586265,-65.31168999,167.89405965,-171.57231772
23.84273965,40.04804361,66.74283473,-2.95916553,0.29735312,-3.00967597

>  <Name>
ligand

>  <RI>
0

>  <Rbt.Current_Directory>
/home/itssahil/PROJECTS/Mol_Feturizer/New_Systems/rnas/2HOL

>  <Rbt.Executable>
rbdock ($Id: //depot/dev/client3/rdock/2013.1/src/exe/rbdock.cxx#4 $)

>  <Rbt.Library>
libRbt.so (2013.1, Build901 2013/11/27)

>  <Rbt.Parameter_File>
/export/apps/rDock/src/rDock_2013.1_src/data/scripts/dock_solv.prm

>  <Rbt.Receptor>
prm/pocket_docking_3.prm

>  <SCORE>
-17.3085

>  <SCORE.INTER>
-13.7987

>  <SCORE.INTER.CONST>
1

>  <SCORE.INTER.POLAR>
0

>  <SCORE.INTER.ROT>
6

>  <SCORE.INTER.SOLV>
17.7748

>  <SCORE.INTER.VDW>
-22.7241

>  <SCORE.INTER.norm>
-0.530718

>  <SCORE.INTRA>
-3.57938

>  <SCORE.INTRA.DIHEDRAL>
-3.35319

>  <SCORE.INTRA.DIHEDRAL.0>
9.33621

>  <SCORE.INTRA.POLAR>
0

>  <SCORE.INTRA.POLAR.0>
0

>  <SCORE.INTRA.REPUL>
0

>  <SCORE.INTRA.REPUL.0>
0

>  <SCORE.INTRA.SOLV>
0.302127

>  <SCORE.INTRA.SOLV.lig_0>
-65.9238

>  <SCORE.INTRA.VDW>
-2.05385

>  <SCORE.INTRA.VDW.0>
-0.405582

>  <SCORE.INTRA.norm>
-0.137669

>  <SCORE.RESTR>
0.0695907

>  <SCORE.RESTR.CAVITY>
0.0695907

>  <SCORE.RESTR.norm>
0.00267657

>  <SCORE.SYSTEM>
0

>  <SCORE.SYSTEM.CONST>
0

>  <SCORE.SYSTEM.DIHEDRAL>
0

>  <SCORE.SYSTEM.SOLV>
0

>  <SCORE.SYSTEM.norm>
0

>  <SCORE.heavy>
26

>  <SCORE.norm>
-0.66571

>  <RMSD>
3.423

$$$$
ligand
 OpenBabel11021811443D
libRbt.so/2013.1/901 2013/11/27
 26 28  0  0  0  0  0  0  0  0999 V2000
   17.2278   40.2302   64.5256 C   0  0  0  0  0  0  0  0  0  0  0  0
   23.7916   44.7563   67.3247 C   0  0  0  0  0  0  0  0  0  0  0  0
   27.2257   40.0644   68.7666 P   0  0  1  0  0  0  0  0  0  0  0  0
   26.2788   37.6975   69.2002 P   0  0  1  0  0  0  0  0  0  0  0  0
   21.4633   43.6260   66.2424 C   0  0  0  0  0  0  0  0  0  0  0  0
   19.4111   43.1641   64.8689 C   0  0  0  0  0  0  0  0  0  0  0  0
   20.3427   42.7261   65.7890 C   0  0  0  0  0  0  0  0  0  0  0  0
   20.2205   41.4283   66.2883 C   0  0  0  0  0  0  0  0  0  0  0  0
   21.1302   40.9410   67.2148 N   0  0  0  0  0  0  0  0  0  0  0  0
   19.2147   40.6674   65.8667 N   0  0  0  0  0  0  0  0  0  0  0  0
   18.3506   41.1240   64.9836 C   0  0  0  0  0  0  0  0  0  0  0  0
   18.4380   42.3449   64.4929 N   0  0  0  0  0  0  0  0  0  0  0  0
   28.4631   40.5039   69.4501 O   0  0  0  0  0  0  0  0  0  0  0  0
   27.4229   37.5042   68.1794 O   0  0  0  0  0  0  0  0  0  0  0  0
   24.4717   41.4641   65.3145 S   0  0  0  0  0  0  0  0  0  0  0  0
   22.7794   41.8556   65.3044 C   0  0  0  0  0  0  0  0  0  0  0  0
   27.6081   39.1649   67.4889 O   0  0  0  0  0  0  0  0  0  0  0  0
   26.4484   36.6440   70.4050 O   0  5  0  0  0  0  0  0  0  0  0  0
   22.7477   42.9611   66.0122 N   0  0  0  0  0  0  0  0  0  0  0  0
   26.3298   39.1967   69.7854 O   0  0  0  0  0  0  0  0  0  0  0  0
   24.9213   37.4639   68.4999 O   0  0  0  0  0  0  0  0  0  0  0  0
   23.8442   43.4853   66.5150 C   0  0  2  0  0  0  0  0  0  0  0  0
   25.0242   42.8517   66.2949 C   0  0  2  0  0  0  0  0  0  0  0  0
   26.4132   43.2184   66.7477 C   0  0  0  0  0  0  0  0  0  0  0  0
   27.1419   41.9634   67.2335 C   0  0  0  0  0  0  0  0  0  0  0  0
   26.3903   41.3541   68.2851 O   0  0  0  0  0  0  0  0  0  0  0  0
  1 11  1  0  0  0  0
  3 13  1  1  0  0  0
  3 17  1  0  0  0  0
  3 20  1  0  0  0  0
  3 26  1  0  0  0  0
  4 14  1  0  0  0  0
  4 18  1  1  0  0  0
  4 21  2  0  0  0  0
  4 20  1  0  0  0  0
  5 19  1  0  0  0  0
  5  7  1  0  0  0  0
  6  7  2  0  0  0  0
  6 12  1  0  0  0  0
  7  8  1  0  0  0  0
  8  9  1  0  0  0  0
  8 10  2  0  0  0  0
 10 11  1  0  0  0  0
 11 12  2  0  0  0  0
 14 17  1  0  0  0  0
 15 23  1  0  0  0  0
 15 16  1  0  0  0  0
 16 19  1  0  0  0  0
 19 22  1  0  0  0  0
 22  2  1  1  0  0  0
 22 23  1  0  0  0  0
 23 24  1  6  0  0  0
 24 25  1  0  0  0  0
 25 26  1  0  0  0  0
M  CHG  1  18  -1
M  END
>  <CHROM.1>
10.13009050,-124.63010695,-43.05067572,-57.37774888,-178.84518517,69.04300372
24.04099876,40.81790292,67.15715572,2.64776870,-0.30285377,-0.34990785

>  <Name>
ligand

>  <RI>
0

>  <Rbt.Current_Directory>
/home/itssahil/PROJECTS/Mol_Feturizer/New_Systems/rnas/2HOL

>  <Rbt.Executable>
rbdock ($Id: //depot/dev/client3/rdock/2013.1/src/exe/rbdock.cxx#4 $)

>  <Rbt.Library>
libRbt.so (2013.1, Build901 2013/11/27)

>  <Rbt.Parameter_File>
/export/apps/rDock/src/rDock_2013.1_src/data/scripts/dock_solv.prm

>  <Rbt.Receptor>
prm/pocket_docking_5.prm

>  <SCORE>
-18.2491

>  <SCORE.INTER>
-17.5036

>  <SCORE.INTER.CONST>
1

>  <SCORE.INTER.POLAR>
0

>  <SCORE.INTER.ROT>
6

>  <SCORE.INTER.SOLV>
14.6617

>  <SCORE.INTER.VDW>
-24.1563

>  <SCORE.INTER.norm>
-0.673213

>  <SCORE.INTRA>
-0.745509

>  <SCORE.INTRA.DIHEDRAL>
-4.13575

>  <SCORE.INTRA.DIHEDRAL.0>
9.33621

>  <SCORE.INTRA.POLAR>
0

>  <SCORE.INTRA.POLAR.0>
0

>  <SCORE.INTRA.REPUL>
0

>  <SCORE.INTRA.REPUL.0>
0

>  <SCORE.INTRA.SOLV>
1.80247

>  <SCORE.INTRA.SOLV.lig_0>
-65.9238

>  <SCORE.INTRA.VDW>
0.421129

>  <SCORE.INTRA.VDW.0>
-0.405582

>  <SCORE.INTRA.norm>
-0.0286734

>  <SCORE.RESTR>
0

>  <SCORE.RESTR.CAVITY>
0

>  <SCORE.RESTR.norm>
0

>  <SCORE.SYSTEM>
0

>  <SCORE.SYSTEM.CONST>
0

>  <SCORE.SYSTEM.DIHEDRAL>
0

>  <SCORE.SYSTEM.SOLV>
0

>  <SCORE.SYSTEM.norm>
0

>  <SCORE.heavy>
26

>  <SCORE.norm>
-0.701887

>  <RMSD>
3.458

$$$$
ligand
 OpenBabel11021811443D
libRbt.so/2013.1/901 2013/11/27
 26 28  0  0  0  0  0  0  0  0999 V2000
   15.5388   39.4067   63.3846 C   0  0  0  0  0  0  0  0  0  0  0  0
   22.7567   41.0351   67.5131 C   0  0  0  0  0  0  0  0  0  0  0  0
   27.1008   40.7028   65.0191 P   0  0  1  0  0  0  0  0  0  0  0  0
   26.8964   42.8540   66.4394 P   0  0  1  0  0  0  0  0  0  0  0  0
   20.2414   40.7301   66.3090 C   0  0  0  0  0  0  0  0  0  0  0  0
   18.4404   39.1203   65.6185 C   0  0  0  0  0  0  0  0  0  0  0  0
   18.9967   40.3811   65.5343 C   0  0  0  0  0  0  0  0  0  0  0  0
   18.3766   41.3248   64.7135 C   0  0  0  0  0  0  0  0  0  0  0  0
   18.8962   42.6051   64.5942 N   0  0  0  0  0  0  0  0  0  0  0  0
   17.2828   40.9761   64.0426 N   0  0  0  0  0  0  0  0  0  0  0  0
   16.7828   39.7627   64.1559 C   0  0  0  0  0  0  0  0  0  0  0  0
   17.3446   38.8484   64.9224 N   0  0  0  0  0  0  0  0  0  0  0  0
   26.6408   40.6977   63.6120 O   0  0  0  0  0  0  0  0  0  0  0  0
   28.1626   43.0484   65.5750 O   0  0  0  0  0  0  0  0  0  0  0  0
   22.6583   38.1478   64.8681 S   0  0  0  0  0  0  0  0  0  0  0  0
   21.1091   38.9234   64.9940 C   0  0  0  0  0  0  0  0  0  0  0  0
   28.5705   41.3517   65.1016 O   0  0  0  0  0  0  0  0  0  0  0  0
   25.9659   44.1629   66.3335 O   0  5  0  0  0  0  0  0  0  0  0  0
   21.3326   39.8396   65.9075 N   0  0  0  0  0  0  0  0  0  0  0  0
   26.0800   41.5696   65.9136 O   0  0  0  0  0  0  0  0  0  0  0  0
   27.3092   42.6342   67.9121 O   0  0  0  0  0  0  0  0  0  0  0  0
   22.5153   39.9769   66.4663 C   0  0  2  0  0  0  0  0  0  0  0  0
   23.5126   39.1390   66.0846 C   0  0  2  0  0  0  0  0  0  0  0  0
   24.9423   39.0673   66.5531 C   0  0  0  0  0  0  0  0  0  0  0  0
   25.8420   38.6434   65.3899 C   0  0  0  0  0  0  0  0  0  0  0  0
   27.1484   39.1921   65.5746 O   0  0  0  0  0  0  0  0  0  0  0  0
  1 11  1  0  0  0  0
  3 13  1  6  0  0  0
  3 17  1  0  0  0  0
  3 20  1  0  0  0  0
  3 26  1  0  0  0  0
  4 14  1  0  0  0  0
  4 18  1  6  0  0  0
  4 21  2  0  0  0  0
  4 20  1  0  0  0  0
  5 19  1  0  0  0  0
  5  7  1  0  0  0  0
  6  7  2  0  0  0  0
  6 12  1  0  0  0  0
  7  8  1  0  0  0  0
  8  9  1  0  0  0  0
  8 10  2  0  0  0  0
 10 11  1  0  0  0  0
 11 12  2  0  0  0  0
 14 17  1  0  0  0  0
 15 23  1  0  0  0  0
 15 16  1  0  0  0  0
 16 19  1  0  0  0  0
 19 22  1  0  0  0  0
 22  2  1  1  0  0  0
 22 23  1  0  0  0  0
 23 24  1  6  0  0  0
 24 25  1  0  0  0  0
 25 26  1  0  0  0  0
M  CHG  1  18  -1
M  END
>  <CHROM.1>
0.12067927,59.60440278,33.52522641,151.15012569,-82.93201993,-56.00485579
23.27685398,40.60576488,65.48721156,2.93808804,0.08052615,-2.92745980

>  <Name>
ligand

>  <RI>
0

>  <Rbt.Current_Directory>
/home/itssahil/PROJECTS/Mol_Feturizer/New_Systems/rnas/2HOL

>  <Rbt.Executable>
rbdock ($Id: //depot/dev/client3/rdock/2013.1/src/exe/rbdock.cxx#4 $)

>  <Rbt.Library>
libRbt.so (2013.1, Build901 2013/11/27)

>  <Rbt.Parameter_File>
/export/apps/rDock/src/rDock_2013.1_src/data/scripts/dock_solv.prm

>  <Rbt.Receptor>
prm/pocket_docking_7.prm

>  <SCORE>
-17.6624

>  <SCORE.INTER>
-19.1087

>  <SCORE.INTER.CONST>
1

>  <SCORE.INTER.POLAR>
0

>  <SCORE.INTER.ROT>
6

>  <SCORE.INTER.SOLV>
20.8259

>  <SCORE.INTER.VDW>
-27.2811

>  <SCORE.INTER.norm>
-0.734951

>  <SCORE.INTRA>
1.44633

>  <SCORE.INTRA.DIHEDRAL>
0.507985

>  <SCORE.INTRA.DIHEDRAL.0>
9.33621

>  <SCORE.INTRA.POLAR>
0

>  <SCORE.INTRA.POLAR.0>
0

>  <SCORE.INTRA.REPUL>
0

>  <SCORE.INTRA.REPUL.0>
0

>  <SCORE.INTRA.SOLV>
0.60284

>  <SCORE.INTRA.SOLV.lig_0>
-65.9238

>  <SCORE.INTRA.VDW>
0.890917

>  <SCORE.INTRA.VDW.0>
-0.405582

>  <SCORE.INTRA.norm>
0.0556281

>  <SCORE.RESTR>
0

>  <SCORE.RESTR.CAVITY>
0

>  <SCORE.RESTR.norm>
0

>  <SCORE.SYSTEM>
0

>  <SCORE.SYSTEM.CONST>
0

>  <SCORE.SYSTEM.DIHEDRAL>
0

>  <SCORE.SYSTEM.SOLV>
0

>  <SCORE.SYSTEM.norm>
0

>  <SCORE.heavy>
26

>  <SCORE.norm>
-0.679323

>  <RMSD>
3.480

$$$$
ligand
 OpenBabel11021811443D
libRbt.so/2013.1/901 2013/11/27
 26 28  0  0  0  0  0  0  0  0999 V2000
   21.9073   45.4438   66.4247 C   0  0  0  0  0  0  0  0  0  0  0  0
   22.4311   39.6778   64.9571 C   0  0  0  0  0  0  0  0  0  0  0  0
   27.5747   39.4142   67.5171 P   0  0  1  0  0  0  0  0  0  0  0  0
   28.0662   39.9976   69.9879 P   0  0  1  0  0  0  0  0  0  0  0  0
   19.9200   40.1164   66.1282 C   0  0  0  0  0  0  0  0  0  0  0  0
   20.0702   42.4763   65.2797 C   0  0  0  0  0  0  0  0  0  0  0  0
   20.4469   41.5261   66.2078 C   0  0  0  0  0  0  0  0  0  0  0  0
   21.3280   41.9045   67.2223 C   0  0  0  0  0  0  0  0  0  0  0  0
   21.7373   40.9873   68.1787 N   0  0  0  0  0  0  0  0  0  0  0  0
   21.7741   43.1568   67.2549 N   0  0  0  0  0  0  0  0  0  0  0  0
   21.3849   44.0328   66.3514 C   0  0  0  0  0  0  0  0  0  0  0  0
   20.5540   43.7072   65.3805 N   0  0  0  0  0  0  0  0  0  0  0  0
   27.7274   40.4470   66.4676 O   0  0  0  0  0  0  0  0  0  0  0  0
   29.4467   39.7478   69.3399 O   0  0  0  0  0  0  0  0  0  0  0  0
   21.9119   37.6687   68.2791 S   0  0  0  0  0  0  0  0  0  0  0  0
   20.5048   38.6154   67.9033 C   0  0  0  0  0  0  0  0  0  0  0  0
   29.0144   38.7889   67.8692 O   0  0  0  0  0  0  0  0  0  0  0  0
   28.0997   41.3807   70.8103 O   0  5  0  0  0  0  0  0  0  0  0  0
   20.8598   39.2056   66.7855 N   0  0  0  0  0  0  0  0  0  0  0  0
   26.9416   40.0824   68.8386 O   0  0  0  0  0  0  0  0  0  0  0  0
   27.7328   38.8352   70.9498 O   0  0  0  0  0  0  0  0  0  0  0  0
   22.0386   38.9935   66.2422 C   0  0  2  0  0  0  0  0  0  0  0  0
   22.8976   38.1498   66.8689 C   0  0  2  0  0  0  0  0  0  0  0  0
   24.2920   37.7322   66.4813 C   0  0  0  0  0  0  0  0  0  0  0  0
   25.2876   38.8137   66.9070 C   0  0  0  0  0  0  0  0  0  0  0  0
   26.5979   38.2490   66.9867 O   0  0  0  0  0  0  0  0  0  0  0  0
  1 11  1  0  0  0  0
  3 13  1  6  0  0  0
  3 17  1  0  0  0  0
  3 20  1  0  0  0  0
  3 26  1  0  0  0  0
  4 14  1  0  0  0  0
  4 18  1  1  0  0  0
  4 21  2  0  0  0  0
  4 20  1  0  0  0  0
  5 19  1  0  0  0  0
  5  7  1  0  0  0  0
  6  7  2  0  0  0  0
  6 12  1  0  0  0  0
  7  8  1  0  0  0  0
  8  9  1  0  0  0  0
  8 10  2  0  0  0  0
 10 11  1  0  0  0  0
 11 12  2  0  0  0  0
 14 17  1  0  0  0  0
 15 23  1  0  0  0  0
 15 16  1  0  0  0  0
 16 19  1  0  0  0  0
 19 22  1  0  0  0  0
 22  2  1  1  0  0  0
 22 23  1  0  0  0  0
 23 24  1  6  0  0  0
 24 25  1  0  0  0  0
 25 26  1  0  0  0  0
M  CHG  1  18  -1
M  END
>  <CHROM.1>
111.91596016,155.03639873,-99.18438338,159.54728751,-176.87321926,-69.43785789
24.31865120,40.15543353,67.58541692,-2.87760618,0.33117793,3.09292772

>  <Name>
ligand

>  <RI>
0

>  <Rbt.Current_Directory>
/home/itssahil/PROJECTS/Mol_Feturizer/New_Systems/rnas/2HOL

>  <Rbt.Executable>
rbdock ($Id: //depot/dev/client3/rdock/2013.1/src/exe/rbdock.cxx#4 $)

>  <Rbt.Library>
libRbt.so (2013.1, Build901 2013/11/27)

>  <Rbt.Parameter_File>
/export/apps/rDock/src/rDock_2013.1_src/data/scripts/dock_solv.prm

>  <Rbt.Receptor>
prm/pocket_docking_4.prm

>  <SCORE>
-12.6086

>  <SCORE.INTER>
-14.1212

>  <SCORE.INTER.CONST>
1

>  <SCORE.INTER.POLAR>
0

>  <SCORE.INTER.ROT>
6

>  <SCORE.INTER.SOLV>
15.8375

>  <SCORE.INTER.VDW>
-22.2933

>  <SCORE.INTER.norm>
-0.543123

>  <SCORE.INTRA>
1.51263

>  <SCORE.INTRA.DIHEDRAL>
-2.9724

>  <SCORE.INTRA.DIHEDRAL.0>
9.33621

>  <SCORE.INTRA.POLAR>
0

>  <SCORE.INTRA.POLAR.0>
0

>  <SCORE.INTRA.REPUL>
0

>  <SCORE.INTRA.REPUL.0>
0

>  <SCORE.INTRA.SOLV>
5.31793

>  <SCORE.INTRA.SOLV.lig_0>
-65.9238

>  <SCORE.INTRA.VDW>
0.339869

>  <SCORE.INTRA.VDW.0>
-0.405582

>  <SCORE.INTRA.norm>
0.0581782

>  <SCORE.RESTR>
0

>  <SCORE.RESTR.CAVITY>
0

>  <SCORE.RESTR.norm>
0

>  <SCORE.SYSTEM>
0

>  <SCORE.SYSTEM.CONST>
0

>  <SCORE.SYSTEM.DIHEDRAL>
0

>  <SCORE.SYSTEM.SOLV>
0

>  <SCORE.SYSTEM.norm>
0

>  <SCORE.heavy>
26

>  <SCORE.norm>
-0.484945

>  <RMSD>
3.499

$$$$
ligand
 OpenBabel11021811443D
libRbt.so/2013.1/901 2013/11/27
 26 28  0  0  0  0  0  0  0  0999 V2000
   18.3849   40.2451   65.5863 C   0  0  0  0  0  0  0  0  0  0  0  0
   24.4143   44.6973   63.8809 C   0  0  0  0  0  0  0  0  0  0  0  0
   27.0168   41.0094   67.6457 P   0  0  1  0  0  0  0  0  0  0  0  0
   27.3348   38.4442   67.7161 P   0  0  1  0  0  0  0  0  0  0  0  0
   21.8709   44.7165   65.0643 C   0  0  0  0  0  0  0  0  0  0  0  0
   19.5820   43.6811   65.0833 C   0  0  0  0  0  0  0  0  0  0  0  0
   20.9494   43.5321   65.2028 C   0  0  0  0  0  0  0  0  0  0  0  0
   21.4568   42.2563   65.4548 C   0  0  0  0  0  0  0  0  0  0  0  0
   22.8227   42.0538   65.5838 N   0  0  0  0  0  0  0  0  0  0  0  0
   20.6101   41.2380   65.5753 N   0  0  0  0  0  0  0  0  0  0  0  0
   19.3123   41.4244   65.4492 C   0  0  0  0  0  0  0  0  0  0  0  0
   18.8013   42.6166   65.2114 N   0  0  0  0  0  0  0  0  0  0  0  0
   26.3818   41.7088   68.7855 O   0  0  0  0  0  0  0  0  0  0  0  0
   28.4919   39.0271   68.5583 O   0  0  0  0  0  0  0  0  0  0  0  0
   24.5200   44.1754   67.7615 S   0  0  0  0  0  0  0  0  0  0  0  0
   22.8842   44.3601   67.2073 C   0  0  0  0  0  0  0  0  0  0  0  0
   28.5672   40.7379   67.9781 O   0  0  0  0  0  0  0  0  0  0  0  0
   26.6120   37.2640   68.5379 O   0  5  0  0  0  0  0  0  0  0  0  0
   23.0474   44.5225   65.9147 N   0  0  0  0  0  0  0  0  0  0  0  0
   26.2680   39.6062   67.3932 O   0  0  0  0  0  0  0  0  0  0  0  0
   27.8974   37.8794   66.3924 O   0  0  0  0  0  0  0  0  0  0  0  0
   24.2434   44.5108   65.3675 C   0  0  2  0  0  0  0  0  0  0  0  0
   25.3217   44.3346   66.1728 C   0  0  2  0  0  0  0  0  0  0  0  0
   26.7861   44.2834   65.8238 C   0  0  0  0  0  0  0  0  0  0  0  0
   27.4716   43.1918   66.6488 C   0  0  0  0  0  0  0  0  0  0  0  0
   26.9025   41.9220   66.3238 O   0  0  0  0  0  0  0  0  0  0  0  0
  1 11  1  0  0  0  0
  3 13  1  1  0  0  0
  3 17  1  0  0  0  0
  3 20  1  0  0  0  0
  3 26  1  0  0  0  0
  4 14  1  0  0  0  0
  4 18  1  1  0  0  0
  4 21  2  0  0  0  0
  4 20  1  0  0  0  0
  5 19  1  0  0  0  0
  5  7  1  0  0  0  0
  6  7  2  0  0  0  0
  6 12  1  0  0  0  0
  7  8  1  0  0  0  0
  8  9  1  0  0  0  0
  8 10  2  0  0  0  0
 10 11  1  0  0  0  0
 11 12  2  0  0  0  0
 14 17  1  0  0  0  0
 15 23  1  0  0  0  0
 15 16  1  0  0  0  0
 16 19  1  0  0  0  0
 19 22  1  0  0  0  0
 22  2  1  1  0  0  0
 22 23  1  0  0  0  0
 23 24  1  6  0  0  0
 24 25  1  0  0  0  0
 25 26  1  0  0  0  0
M  CHG  1  18  -1
M  END
>  <CHROM.1>
-58.76899252,148.36001512,39.89550889,62.10378880,-150.07414585,54.78502792
24.57802615,41.83651795,66.61861454,2.63951055,-0.23685704,-0.18703438

>  <Name>
ligand

>  <RI>
0

>  <Rbt.Current_Directory>
/home/itssahil/PROJECTS/Mol_Feturizer/New_Systems/rnas/2HOL

>  <Rbt.Executable>
rbdock ($Id: //depot/dev/client3/rdock/2013.1/src/exe/rbdock.cxx#4 $)

>  <Rbt.Library>
libRbt.so (2013.1, Build901 2013/11/27)

>  <Rbt.Parameter_File>
/export/apps/rDock/src/rDock_2013.1_src/data/scripts/dock_solv.prm

>  <Rbt.Receptor>
prm/pocket_docking_8.prm

>  <SCORE>
-14.5764

>  <SCORE.INTER>
-15.3773

>  <SCORE.INTER.CONST>
1

>  <SCORE.INTER.POLAR>
0

>  <SCORE.INTER.ROT>
6

>  <SCORE.INTER.SOLV>
9.42183

>  <SCORE.INTER.VDW>
-20.9921

>  <SCORE.INTER.norm>
-0.591435

>  <SCORE.INTRA>
0.800929

>  <SCORE.INTRA.DIHEDRAL>
-0.669602

>  <SCORE.INTRA.DIHEDRAL.0>
9.33621

>  <SCORE.INTRA.POLAR>
0

>  <SCORE.INTRA.POLAR.0>
0

>  <SCORE.INTRA.REPUL>
0.0196891

>  <SCORE.INTRA.REPUL.0>
0

>  <SCORE.INTRA.SOLV>
4.96088

>  <SCORE.INTRA.SOLV.lig_0>
-65.9238

>  <SCORE.INTRA.VDW>
-1.44316

>  <SCORE.INTRA.VDW.0>
-0.405582

>  <SCORE.INTRA.norm>
0.030805

>  <SCORE.RESTR>
0

>  <SCORE.RESTR.CAVITY>
0

>  <SCORE.RESTR.norm>
0

>  <SCORE.SYSTEM>
0

>  <SCORE.SYSTEM.CONST>
0

>  <SCORE.SYSTEM.DIHEDRAL>
0

>  <SCORE.SYSTEM.SOLV>
0

>  <SCORE.SYSTEM.norm>
0

>  <SCORE.heavy>
26

>  <SCORE.norm>
-0.56063

>  <RMSD>
3.533

$$$$
ligand
 OpenBabel11021811443D
libRbt.so/2013.1/901 2013/11/27
 26 28  0  0  0  0  0  0  0  0999 V2000
   21.1710   45.0904   66.1352 C   0  0  0  0  0  0  0  0  0  0  0  0
   21.9565   38.9788   68.7434 C   0  0  0  0  0  0  0  0  0  0  0  0
   27.5271   39.5905   69.4603 P   0  0  1  0  0  0  0  0  0  0  0  0
   27.0632   41.9680   68.5555 P   0  0  1  0  0  0  0  0  0  0  0  0
   20.3258   39.4725   66.5148 C   0  0  0  0  0  0  0  0  0  0  0  0
   21.5941   41.5662   67.0803 C   0  0  0  0  0  0  0  0  0  0  0  0
   20.5483   40.9596   66.4135 C   0  0  0  0  0  0  0  0  0  0  0  0
   19.7023   41.7588   65.6426 C   0  0  0  0  0  0  0  0  0  0  0  0
   18.6372   41.1981   64.9538 N   0  0  0  0  0  0  0  0  0  0  0  0
   19.9294   43.0677   65.5830 N   0  0  0  0  0  0  0  0  0  0  0  0
   20.9423   43.6045   66.2318 C   0  0  0  0  0  0  0  0  0  0  0  0
   21.7594   42.8774   66.9686 N   0  0  0  0  0  0  0  0  0  0  0  0
   28.9048   39.1941   69.8296 O   0  0  0  0  0  0  0  0  0  0  0  0
   27.1552   42.1209   70.0905 O   0  0  0  0  0  0  0  0  0  0  0  0
   23.4815   37.6361   65.3947 S   0  0  0  0  0  0  0  0  0  0  0  0
   21.9461   38.3978   65.1127 C   0  0  0  0  0  0  0  0  0  0  0  0
   26.8688   40.4303   70.6642 O   0  0  0  0  0  0  0  0  0  0  0  0
   27.9868   43.0797   67.8473 O   0  5  0  0  0  0  0  0  0  0  0  0
   21.5984   38.7737   66.3217 N   0  0  0  0  0  0  0  0  0  0  0  0
   27.5687   40.4992   68.1314 O   0  0  0  0  0  0  0  0  0  0  0  0
   25.5964   42.1569   68.1079 O   0  0  0  0  0  0  0  0  0  0  0  0
   22.3693   38.5395   67.3612 C   0  0  2  0  0  0  0  0  0  0  0  0
   23.5424   37.8863   67.1627 C   0  0  2  0  0  0  0  0  0  0  0  0
   24.6023   37.4870   68.1557 C   0  0  0  0  0  0  0  0  0  0  0  0
   25.4622   38.7040   68.5044 C   0  0  0  0  0  0  0  0  0  0  0  0
   26.6455   38.2725   69.1795 O   0  0  0  0  0  0  0  0  0  0  0  0
  1 11  1  0  0  0  0
  3 13  1  1  0  0  0
  3 17  1  0  0  0  0
  3 20  1  0  0  0  0
  3 26  1  0  0  0  0
  4 14  1  0  0  0  0
  4 18  1  6  0  0  0
  4 21  2  0  0  0  0
  4 20  1  0  0  0  0
  5 19  1  0  0  0  0
  5  7  1  0  0  0  0
  6  7  2  0  0  0  0
  6 12  1  0  0  0  0
  7  8  1  0  0  0  0
  8  9  1  0  0  0  0
  8 10  2  0  0  0  0
 10 11  1  0  0  0  0
 11 12  2  0  0  0  0
 14 17  1  0  0  0  0
 15 23  1  0  0  0  0
 15 16  1  0  0  0  0
 16 19  1  0  0  0  0
 19 22  1  0  0  0  0
 22  2  1  1  0  0  0
 22 23  1  0  0  0  0
 23 24  1  6  0  0  0
 24 25  1  0  0  0  0
 25 26  1  0  0  0  0
M  CHG  1  18  -1
M  END
>  <CHROM.1>
-91.29458132,-46.60859917,101.29855299,-166.14289613,177.70976012,-165.28935151
24.11877816,40.43120362,67.59247272,-3.05114171,0.44877484,-3.09269300

>  <Name>
ligand

>  <RI>
0

>  <Rbt.Current_Directory>
/home/itssahil/PROJECTS/Mol_Feturizer/New_Systems/rnas/2HOL

>  <Rbt.Executable>
rbdock ($Id: //depot/dev/client3/rdock/2013.1/src/exe/rbdock.cxx#4 $)

>  <Rbt.Library>
libRbt.so (2013.1, Build901 2013/11/27)

>  <Rbt.Parameter_File>
/export/apps/rDock/src/rDock_2013.1_src/data/scripts/dock_solv.prm

>  <Rbt.Receptor>
prm/pocket_docking_4.prm

>  <SCORE>
-20.0759

>  <SCORE.INTER>
-16.9056

>  <SCORE.INTER.CONST>
1

>  <SCORE.INTER.POLAR>
0

>  <SCORE.INTER.ROT>
6

>  <SCORE.INTER.SOLV>
17.4582

>  <SCORE.INTER.VDW>
-24.6898

>  <SCORE.INTER.norm>
-0.650214

>  <SCORE.INTRA>
-3.17037

>  <SCORE.INTRA.DIHEDRAL>
-3.60123

>  <SCORE.INTRA.DIHEDRAL.0>
9.33621

>  <SCORE.INTRA.POLAR>
0

>  <SCORE.INTRA.POLAR.0>
0

>  <SCORE.INTRA.REPUL>
0

>  <SCORE.INTRA.REPUL.0>
0

>  <SCORE.INTRA.SOLV>
0.155514

>  <SCORE.INTRA.SOLV.lig_0>
-65.9238

>  <SCORE.INTRA.VDW>
-1.44752

>  <SCORE.INTRA.VDW.0>
-0.405582

>  <SCORE.INTRA.norm>
-0.121937

>  <SCORE.RESTR>
0

>  <SCORE.RESTR.CAVITY>
0

>  <SCORE.RESTR.norm>
0

>  <SCORE.SYSTEM>
0

>  <SCORE.SYSTEM.CONST>
0

>  <SCORE.SYSTEM.DIHEDRAL>
0

>  <SCORE.SYSTEM.SOLV>
0

>  <SCORE.SYSTEM.norm>
0

>  <SCORE.heavy>
26

>  <SCORE.norm>
-0.772151

>  <RMSD>
3.540

$$$$
ligand
 OpenBabel11021811443D
libRbt.so/2013.1/901 2013/11/27
 26 28  0  0  0  0  0  0  0  0999 V2000
   21.8113   45.5344   66.3786 C   0  0  0  0  0  0  0  0  0  0  0  0
   21.4694   39.4104   68.4112 C   0  0  0  0  0  0  0  0  0  0  0  0
   27.1490   38.3658   66.1420 P   0  0  1  0  0  0  0  0  0  0  0  0
   28.3019   40.1630   67.6006 P   0  0  1  0  0  0  0  0  0  0  0  0
   19.9670   40.1521   66.1612 C   0  0  0  0  0  0  0  0  0  0  0  0
   21.6650   41.8888   66.8033 C   0  0  0  0  0  0  0  0  0  0  0  0
   20.4539   41.5772   66.2181 C   0  0  0  0  0  0  0  0  0  0  0  0
   19.6918   42.6158   65.6802 C   0  0  0  0  0  0  0  0  0  0  0  0
   18.4680   42.3553   65.0820 N   0  0  0  0  0  0  0  0  0  0  0  0
   20.1543   43.8603   65.7549 N   0  0  0  0  0  0  0  0  0  0  0  0
   21.3180   44.1123   66.3181 C   0  0  0  0  0  0  0  0  0  0  0  0
   22.0616   43.1541   66.8357 N   0  0  0  0  0  0  0  0  0  0  0  0
   27.6426   38.0943   64.7730 O   0  0  0  0  0  0  0  0  0  0  0  0
   29.1955   38.9070   67.7096 O   0  0  0  0  0  0  0  0  0  0  0  0
   22.7890   37.8140   65.0867 S   0  0  0  0  0  0  0  0  0  0  0  0
   21.4033   38.8165   64.7831 C   0  0  0  0  0  0  0  0  0  0  0  0
   28.0668   37.5862   67.2086 O   0  0  0  0  0  0  0  0  0  0  0  0
   29.2136   41.4445   67.2586 O   0  5  0  0  0  0  0  0  0  0  0  0
   21.1090   39.2521   65.9863 N   0  0  0  0  0  0  0  0  0  0  0  0
   27.2154   39.9486   66.4317 O   0  0  0  0  0  0  0  0  0  0  0  0
   27.5742   40.3933   68.9441 O   0  0  0  0  0  0  0  0  0  0  0  0
   21.8193   38.9006   67.0359 C   0  0  2  0  0  0  0  0  0  0  0  0
   22.8709   38.0618   66.8542 C   0  0  2  0  0  0  0  0  0  0  0  0
   23.8396   37.4996   67.8614 C   0  0  0  0  0  0  0  0  0  0  0  0
   25.2283   38.0982   67.6262 C   0  0  0  0  0  0  0  0  0  0  0  0
   25.6254   37.8615   66.2740 O   0  0  0  0  0  0  0  0  0  0  0  0
  1 11  1  0  0  0  0
  3 13  1  6  0  0  0
  3 17  1  0  0  0  0
  3 20  1  0  0  0  0
  3 26  1  0  0  0  0
  4 14  1  0  0  0  0
  4 18  1  6  0  0  0
  4 21  2  0  0  0  0
  4 20  1  0  0  0  0
  5 19  1  0  0  0  0
  5  7  1  0  0  0  0
  6  7  2  0  0  0  0
  6 12  1  0  0  0  0
  7  8  1  0  0  0  0
  8  9  1  0  0  0  0
  8 10  2  0  0  0  0
 10 11  1  0  0  0  0
 11 12  2  0  0  0  0
 14 17  1  0  0  0  0
 15 23  1  0  0  0  0
 15 16  1  0  0  0  0
 16 19  1  0  0  0  0
 19 22  1  0  0  0  0
 22  2  1  1  0  0  0
 22 23  1  0  0  0  0
 23 24  1  6  0  0  0
 24 25  1  0  0  0  0
 25 26  1  0  0  0  0
M  CHG  1  18  -1
M  END
>  <CHROM.1>
-97.89187517,-34.64123362,68.10333876,-55.47171851,-173.80180499,177.58779311
24.18984834,39.99846405,66.57132921,-2.78386803,0.18113566,-3.01589631

>  <Name>
ligand

>  <RI>
0

>  <Rbt.Current_Directory>
/home/itssahil/PROJECTS/Mol_Feturizer/New_Systems/rnas/2HOL

>  <Rbt.Executable>
rbdock ($Id: //depot/dev/client3/rdock/2013.1/src/exe/rbdock.cxx#4 $)

>  <Rbt.Library>
libRbt.so (2013.1, Build901 2013/11/27)

>  <Rbt.Parameter_File>
/export/apps/rDock/src/rDock_2013.1_src/data/scripts/dock_solv.prm

>  <Rbt.Receptor>
prm/pocket_docking_4.prm

>  <SCORE>
-19.6688

>  <SCORE.INTER>
-16.6537

>  <SCORE.INTER.CONST>
1

>  <SCORE.INTER.POLAR>
0

>  <SCORE.INTER.ROT>
6

>  <SCORE.INTER.SOLV>
17.9902

>  <SCORE.INTER.VDW>
-24.6992

>  <SCORE.INTER.norm>
-0.640526

>  <SCORE.INTRA>
-3.01516

>  <SCORE.INTRA.DIHEDRAL>
-3.93734

>  <SCORE.INTRA.DIHEDRAL.0>
9.33621

>  <SCORE.INTRA.POLAR>
0

>  <SCORE.INTRA.POLAR.0>
0

>  <SCORE.INTRA.REPUL>
0

>  <SCORE.INTRA.REPUL.0>
0

>  <SCORE.INTRA.SOLV>
0.155234

>  <SCORE.INTRA.SOLV.lig_0>
-65.9238

>  <SCORE.INTRA.VDW>
-1.1241

>  <SCORE.INTRA.VDW.0>
-0.405582

>  <SCORE.INTRA.norm>
-0.115968

>  <SCORE.RESTR>
0

>  <SCORE.RESTR.CAVITY>
0

>  <SCORE.RESTR.norm>
0

>  <SCORE.SYSTEM>
0

>  <SCORE.SYSTEM.CONST>
0

>  <SCORE.SYSTEM.DIHEDRAL>
0

>  <SCORE.SYSTEM.SOLV>
0

>  <SCORE.SYSTEM.norm>
0

>  <SCORE.heavy>
26

>  <SCORE.norm>
-0.756494

>  <RMSD>
3.541

$$$$
ligand
 OpenBabel11021811443D
libRbt.so/2013.1/901 2013/11/27
 26 28  0  0  0  0  0  0  0  0999 V2000
   19.8477   44.3613   65.7969 C   0  0  0  0  0  0  0  0  0  0  0  0
   22.7424   37.9325   69.0866 C   0  0  0  0  0  0  0  0  0  0  0  0
   27.5411   39.9148   69.3558 P   0  0  1  0  0  0  0  0  0  0  0  0
   26.1232   41.4109   67.7945 P   0  0  1  0  0  0  0  0  0  0  0  0
   21.0832   38.9502   67.0665 C   0  0  0  0  0  0  0  0  0  0  0  0
   21.5273   41.4185   67.2149 C   0  0  0  0  0  0  0  0  0  0  0  0
   20.7550   40.3820   66.7297 C   0  0  0  0  0  0  0  0  0  0  0  0
   19.6624   40.6940   65.9188 C   0  0  0  0  0  0  0  0  0  0  0  0
   18.8551   39.6893   65.4067 N   0  0  0  0  0  0  0  0  0  0  0  0
   19.4033   41.9701   65.6490 N   0  0  0  0  0  0  0  0  0  0  0  0
   20.1696   42.9277   66.1293 C   0  0  0  0  0  0  0  0  0  0  0  0
   21.2086   42.6665   66.8983 N   0  0  0  0  0  0  0  0  0  0  0  0
   29.0127   40.0711   69.3961 O   0  0  0  0  0  0  0  0  0  0  0  0
   26.4271   42.2801   69.0356 O   0  0  0  0  0  0  0  0  0  0  0  0
   24.6129   38.4742   65.6881 S   0  0  0  0  0  0  0  0  0  0  0  0
   22.9434   38.9353   65.5548 C   0  0  0  0  0  0  0  0  0  0  0  0
   26.8559   41.0398   70.2793 O   0  0  0  0  0  0  0  0  0  0  0  0
   26.4589   42.2435   66.4586 O   0  5  0  0  0  0  0  0  0  0  0  0
   22.4914   38.6870   66.7622 N   0  0  0  0  0  0  0  0  0  0  0  0
   27.0260   40.0784   67.8387 O   0  0  0  0  0  0  0  0  0  0  0  0
   24.6282   41.0203   67.7951 O   0  0  0  0  0  0  0  0  0  0  0  0
   23.2763   38.2111   67.7042 C   0  0  2  0  0  0  0  0  0  0  0  0
   24.5772   37.9691   67.4014 C   0  0  2  0  0  0  0  0  0  0  0  0
   25.6835   37.4289   68.2693 C   0  0  0  0  0  0  0  0  0  0  0  0
   25.7686   38.2474   69.5595 C   0  0  0  0  0  0  0  0  0  0  0  0
   27.1405   38.4539   69.9020 O   0  0  0  0  0  0  0  0  0  0  0  0
  1 11  1  0  0  0  0
  3 13  1  1  0  0  0
  3 17  1  0  0  0  0
  3 20  1  0  0  0  0
  3 26  1  0  0  0  0
  4 14  1  0  0  0  0
  4 18  1  6  0  0  0
  4 21  2  0  0  0  0
  4 20  1  0  0  0  0
  5 19  1  0  0  0  0
  5  7  1  0  0  0  0
  6  7  2  0  0  0  0
  6 12  1  0  0  0  0
  7  8  1  0  0  0  0
  8  9  1  0  0  0  0
  8 10  2  0  0  0  0
 10 11  1  0  0  0  0
 11 12  2  0  0  0  0
 14 17  1  0  0  0  0
 15 23  1  0  0  0  0
 15 16  1  0  0  0  0
 16 19  1  0  0  0  0
 19 22  1  0  0  0  0
 22  2  1  6  0  0  0
 22 23  1  0  0  0  0
 23 24  1  1  0  0  0
 24 25  1  0  0  0  0
 25 26  1  0  0  0  0
M  CHG  1  18  -1
M  END
>  <CHROM.1>
-54.90177836,-51.74340808,127.60177021,-139.92740775,97.44951289,-167.09754925
24.13423403,40.19824135,67.56553011,-2.94589561,0.39205724,3.10987843

>  <Name>
ligand

>  <RI>
0

>  <Rbt.Current_Directory>
/home/itssahil/PROJECTS/Mol_Feturizer/New_Systems/rnas/2HOL

>  <Rbt.Executable>
rbdock ($Id: //depot/dev/client3/rdock/2013.1/src/exe/rbdock.cxx#4 $)

>  <Rbt.Library>
libRbt.so (2013.1, Build901 2013/11/27)

>  <Rbt.Parameter_File>
/export/apps/rDock/src/rDock_2013.1_src/data/scripts/dock_solv.prm

>  <Rbt.Receptor>
prm/pocket_docking_3.prm

>  <SCORE>
-14.2746

>  <SCORE.INTER>
-15.6546

>  <SCORE.INTER.CONST>
1

>  <SCORE.INTER.POLAR>
0

>  <SCORE.INTER.ROT>
6

>  <SCORE.INTER.SOLV>
14.3818

>  <SCORE.INTER.VDW>
-22.8303

>  <SCORE.INTER.norm>
-0.6021

>  <SCORE.INTRA>
1.37999

>  <SCORE.INTRA.DIHEDRAL>
4.63342

>  <SCORE.INTRA.DIHEDRAL.0>
9.33621

>  <SCORE.INTRA.POLAR>
0

>  <SCORE.INTRA.POLAR.0>
0

>  <SCORE.INTRA.REPUL>
0

>  <SCORE.INTRA.REPUL.0>
0

>  <SCORE.INTRA.SOLV>
3.56211

>  <SCORE.INTRA.SOLV.lig_0>
-65.9238

>  <SCORE.INTRA.VDW>
-2.71777

>  <SCORE.INTRA.VDW.0>
-0.405582

>  <SCORE.INTRA.norm>
0.0530766

>  <SCORE.RESTR>
0

>  <SCORE.RESTR.CAVITY>
0

>  <SCORE.RESTR.norm>
0

>  <SCORE.SYSTEM>
0

>  <SCORE.SYSTEM.CONST>
0

>  <SCORE.SYSTEM.DIHEDRAL>
0

>  <SCORE.SYSTEM.SOLV>
0

>  <SCORE.SYSTEM.norm>
0

>  <SCORE.heavy>
26

>  <SCORE.norm>
-0.549023

>  <RMSD>
3.560

$$$$
ligand
 OpenBabel11021811443D
libRbt.so/2013.1/901 2013/11/27
 26 28  0  0  0  0  0  0  0  0999 V2000
   21.5295   45.1843   66.2428 C   0  0  0  0  0  0  0  0  0  0  0  0
   21.5128   39.0171   68.8023 C   0  0  0  0  0  0  0  0  0  0  0  0
   27.2175   39.3163   67.5029 P   0  0  1  0  0  0  0  0  0  0  0  0
   27.7088   40.8904   69.4948 P   0  0  1  0  0  0  0  0  0  0  0  0
   20.2699   39.6330   66.3640 C   0  0  0  0  0  0  0  0  0  0  0  0
   21.6588   41.6063   67.0632 C   0  0  0  0  0  0  0  0  0  0  0  0
   20.6021   41.1026   66.3310 C   0  0  0  0  0  0  0  0  0  0  0  0
   19.8494   41.9892   65.5591 C   0  0  0  0  0  0  0  0  0  0  0  0
   18.7776   41.5334   64.8061 N   0  0  0  0  0  0  0  0  0  0  0  0
   20.1717   43.2793   65.5608 N   0  0  0  0  0  0  0  0  0  0  0  0
   21.1914   43.7165   66.2708 C   0  0  0  0  0  0  0  0  0  0  0  0
   21.9220   42.9052   67.0104 N   0  0  0  0  0  0  0  0  0  0  0  0
   27.7151   39.6554   66.1505 O   0  0  0  0  0  0  0  0  0  0  0  0
   28.9986   40.0633   69.2940 O   0  0  0  0  0  0  0  0  0  0  0  0
   23.4306   37.5958   65.6969 S   0  0  0  0  0  0  0  0  0  0  0  0
   22.0079   38.4606   65.2017 C   0  0  0  0  0  0  0  0  0  0  0  0
   28.4004   38.6378   68.3562 O   0  0  0  0  0  0  0  0  0  0  0  0
   28.0819   42.4523   69.6020 O   0  5  0  0  0  0  0  0  0  0  0  0
   21.5085   38.8515   66.3513 N   0  0  0  0  0  0  0  0  0  0  0  0
   26.7221   40.6577   68.2438 O   0  0  0  0  0  0  0  0  0  0  0  0
   27.0068   40.4388   70.7952 O   0  0  0  0  0  0  0  0  0  0  0  0
   22.0982   38.5597   67.4901 C   0  0  2  0  0  0  0  0  0  0  0  0
   23.2425   37.8304   67.4580 C   0  0  2  0  0  0  0  0  0  0  0  0
   24.1134   37.3547   68.5912 C   0  0  0  0  0  0  0  0  0  0  0  0
   25.3719   38.2220   68.6691 C   0  0  0  0  0  0  0  0  0  0  0  0
   25.9851   38.2871   67.3799 O   0  0  0  0  0  0  0  0  0  0  0  0
  1 11  1  0  0  0  0
  3 13  1  6  0  0  0
  3 17  1  0  0  0  0
  3 20  1  0  0  0  0
  3 26  1  0  0  0  0
  4 14  1  0  0  0  0
  4 18  1  1  0  0  0
  4 21  2  0  0  0  0
  4 20  1  0  0  0  0
  5 19  1  0  0  0  0
  5  7  1  0  0  0  0
  6  7  2  0  0  0  0
  6 12  1  0  0  0  0
  7  8  1  0  0  0  0
  8  9  1  0  0  0  0
  8 10  2  0  0  0  0
 10 11  1  0  0  0  0
 11 12  2  0  0  0  0
 14 17  1  0  0  0  0
 15 23  1  0  0  0  0
 15 16  1  0  0  0  0
 16 19  1  0  0  0  0
 19 22  1  0  0  0  0
 22  2  1  1  0  0  0
 22 23  1  0  0  0  0
 23 24  1  6  0  0  0
 24 25  1  0  0  0  0
 25 26  1  0  0  0  0
M  CHG  1  18  -1
M  END
>  <CHROM.1>
-91.70075917,-40.08762376,75.93813588,-51.23188409,174.95574639,-167.88883978
24.21434377,40.14252233,67.41447221,-2.98686290,0.39064268,-3.01676125

>  <Name>
ligand

>  <RI>
0

>  <Rbt.Current_Directory>
/home/itssahil/PROJECTS/Mol_Feturizer/New_Systems/rnas/2HOL

>  <Rbt.Executable>
rbdock ($Id: //depot/dev/client3/rdock/2013.1/src/exe/rbdock.cxx#4 $)

>  <Rbt.Library>
libRbt.so (2013.1, Build901 2013/11/27)

>  <Rbt.Parameter_File>
/export/apps/rDock/src/rDock_2013.1_src/data/scripts/dock_solv.prm

>  <Rbt.Receptor>
prm/pocket_docking_5.prm

>  <SCORE>
-18.5158

>  <SCORE.INTER>
-15.0469

>  <SCORE.INTER.CONST>
1

>  <SCORE.INTER.POLAR>
0

>  <SCORE.INTER.ROT>
6

>  <SCORE.INTER.SOLV>
19.6932

>  <SCORE.INTER.VDW>
-24.1957

>  <SCORE.INTER.norm>
-0.578728

>  <SCORE.INTRA>
-3.46886

>  <SCORE.INTRA.DIHEDRAL>
-3.64677

>  <SCORE.INTRA.DIHEDRAL.0>
9.33621

>  <SCORE.INTRA.POLAR>
0

>  <SCORE.INTRA.POLAR.0>
0

>  <SCORE.INTRA.REPUL>
0

>  <SCORE.INTRA.REPUL.0>
0

>  <SCORE.INTRA.SOLV>
0.238324

>  <SCORE.INTRA.SOLV.lig_0>
-65.9238

>  <SCORE.INTRA.VDW>
-1.76464

>  <SCORE.INTRA.VDW.0>
-0.405582

>  <SCORE.INTRA.norm>
-0.133418

>  <SCORE.RESTR>
0

>  <SCORE.RESTR.CAVITY>
0

>  <SCORE.RESTR.norm>
0

>  <SCORE.SYSTEM>
0

>  <SCORE.SYSTEM.CONST>
0

>  <SCORE.SYSTEM.DIHEDRAL>
0

>  <SCORE.SYSTEM.SOLV>
0

>  <SCORE.SYSTEM.norm>
0

>  <SCORE.heavy>
26

>  <SCORE.norm>
-0.712145

>  <RMSD>
3.588

$$$$
ligand
 OpenBabel11021811443D
libRbt.so/2013.1/901 2013/11/27
 26 28  0  0  0  0  0  0  0  0999 V2000
   16.8188   38.8720   64.5329 C   0  0  0  0  0  0  0  0  0  0  0  0
   22.6638   44.7141   65.4873 C   0  0  0  0  0  0  0  0  0  0  0  0
   26.7473   40.9051   65.4611 P   0  0  1  0  0  0  0  0  0  0  0  0
   26.6224   38.4423   66.2394 P   0  0  1  0  0  0  0  0  0  0  0  0
   20.2450   43.2964   65.5836 C   0  0  0  0  0  0  0  0  0  0  0  0
   17.9665   42.2698   65.3267 C   0  0  0  0  0  0  0  0  0  0  0  0
   19.3394   42.1245   65.3054 C   0  0  0  0  0  0  0  0  0  0  0  0
   19.8673   40.8643   65.0192 C   0  0  0  0  0  0  0  0  0  0  0  0
   21.2395   40.6659   64.9861 N   0  0  0  0  0  0  0  0  0  0  0  0
   19.0344   39.8546   64.7842 N   0  0  0  0  0  0  0  0  0  0  0  0
   17.7304   40.0389   64.8101 C   0  0  0  0  0  0  0  0  0  0  0  0
   17.2002   41.2163   65.0774 N   0  0  0  0  0  0  0  0  0  0  0  0
   28.0620   41.5342   65.2012 O   0  0  0  0  0  0  0  0  0  0  0  0
   26.8304   38.3820   64.7093 O   0  0  0  0  0  0  0  0  0  0  0  0
   22.7381   41.7162   68.0070 S   0  0  0  0  0  0  0  0  0  0  0  0
   21.1919   41.8261   67.2230 C   0  0  0  0  0  0  0  0  0  0  0  0
   26.3079   40.0313   64.1839 O   0  0  0  0  0  0  0  0  0  0  0  0
   27.6701   37.4589   66.9644 O   0  5  0  0  0  0  0  0  0  0  0  0
   21.3545   42.8650   66.4368 N   0  0  0  0  0  0  0  0  0  0  0  0
   26.8560   39.9503   66.7534 O   0  0  0  0  0  0  0  0  0  0  0  0
   25.1816   37.9997   66.5794 O   0  0  0  0  0  0  0  0  0  0  0  0
   22.4923   43.5235   66.3966 C   0  0  2  0  0  0  0  0  0  0  0  0
   23.5071   43.1115   67.1984 C   0  0  2  0  0  0  0  0  0  0  0  0
   24.8960   43.6719   67.3588 C   0  0  0  0  0  0  0  0  0  0  0  0
   25.9264   42.5904   67.0261 C   0  0  0  0  0  0  0  0  0  0  0  0
   25.6479   42.0499   65.7329 O   0  0  0  0  0  0  0  0  0  0  0  0
  1 11  1  0  0  0  0
  3 13  1  6  0  0  0
  3 17  1  0  0  0  0
  3 20  1  0  0  0  0
  3 26  1  0  0  0  0
  4 14  1  0  0  0  0
  4 18  1  1  0  0  0
  4 21  2  0  0  0  0
  4 20  1  0  0  0  0
  5 19  1  0  0  0  0
  5  7  1  0  0  0  0
  6  7  2  0  0  0  0
  6 12  1  0  0  0  0
  7  8  1  0  0  0  0
  8  9  1  0  0  0  0
  8 10  2  0  0  0  0
 10 11  1  0  0  0  0
 11 12  2  0  0  0  0
 14 17  1  0  0  0  0
 15 23  1  0  0  0  0
 15 16  1  0  0  0  0
 16 19  1  0  0  0  0
 19 22  1  0  0  0  0
 22  2  1  1  0  0  0
 22 23  1  0  0  0  0
 23 24  1  6  0  0  0
 24 25  1  0  0  0  0
 25 26  1  0  0  0  0
M  CHG  1  18  -1
M  END
>  <CHROM.1>
-25.57423941,138.28396431,58.58938267,53.52113090,-178.94658945,-72.50214500
23.35435380,40.98267464,65.94312815,2.97870911,-0.11775012,0.22676503

>  <Name>
ligand

>  <RI>
0

>  <Rbt.Current_Directory>
/home/itssahil/PROJECTS/Mol_Feturizer/New_Systems/rnas/2HOL

>  <Rbt.Executable>
rbdock ($Id: //depot/dev/client3/rdock/2013.1/src/exe/rbdock.cxx#4 $)

>  <Rbt.Library>
libRbt.so (2013.1, Build901 2013/11/27)

>  <Rbt.Parameter_File>
/export/apps/rDock/src/rDock_2013.1_src/data/scripts/dock_solv.prm

>  <Rbt.Receptor>
prm/pocket_docking_5.prm

>  <SCORE>
-21.7038

>  <SCORE.INTER>
-22.4053

>  <SCORE.INTER.CONST>
1

>  <SCORE.INTER.POLAR>
0

>  <SCORE.INTER.ROT>
6

>  <SCORE.INTER.SOLV>
14.996

>  <SCORE.INTER.VDW>
-27.5355

>  <SCORE.INTER.norm>
-0.861742

>  <SCORE.INTRA>
0.701521

>  <SCORE.INTRA.DIHEDRAL>
-3.75843

>  <SCORE.INTRA.DIHEDRAL.0>
9.33621

>  <SCORE.INTRA.POLAR>
0

>  <SCORE.INTRA.POLAR.0>
0

>  <SCORE.INTRA.REPUL>
0

>  <SCORE.INTRA.REPUL.0>
0

>  <SCORE.INTRA.SOLV>
3.26027

>  <SCORE.INTRA.SOLV.lig_0>
-65.9238

>  <SCORE.INTRA.VDW>
0.950603

>  <SCORE.INTRA.VDW.0>
-0.405582

>  <SCORE.INTRA.norm>
0.0269816

>  <SCORE.RESTR>
0

>  <SCORE.RESTR.CAVITY>
0

>  <SCORE.RESTR.norm>
0

>  <SCORE.SYSTEM>
0

>  <SCORE.SYSTEM.CONST>
0

>  <SCORE.SYSTEM.DIHEDRAL>
0

>  <SCORE.SYSTEM.SOLV>
0

>  <SCORE.SYSTEM.norm>
0

>  <SCORE.heavy>
26

>  <SCORE.norm>
-0.83476

>  <RMSD>
3.598

$$$$
ligand
 OpenBabel11021811443D
libRbt.so/2013.1/901 2013/11/27
 26 28  0  0  0  0  0  0  0  0999 V2000
   21.3466   45.2717   66.3110 C   0  0  0  0  0  0  0  0  0  0  0  0
   22.2109   39.3234   65.0315 C   0  0  0  0  0  0  0  0  0  0  0  0
   27.3133   39.7482   66.3453 P   0  0  1  0  0  0  0  0  0  0  0  0
   26.4638   42.1904   66.3188 P   0  0  1  0  0  0  0  0  0  0  0  0
   19.7183   39.8165   66.2205 C   0  0  0  0  0  0  0  0  0  0  0  0
   21.2155   41.6696   67.0181 C   0  0  0  0  0  0  0  0  0  0  0  0
   20.1482   41.2608   66.2435 C   0  0  0  0  0  0  0  0  0  0  0  0
   19.4774   42.2193   65.4819 C   0  0  0  0  0  0  0  0  0  0  0  0
   18.3987   41.8598   64.6877 N   0  0  0  0  0  0  0  0  0  0  0  0
   19.8845   43.4841   65.5336 N   0  0  0  0  0  0  0  0  0  0  0  0
   20.9112   43.8298   66.2830 C   0  0  0  0  0  0  0  0  0  0  0  0
   21.5657   42.9489   67.0141 N   0  0  0  0  0  0  0  0  0  0  0  0
   28.6676   39.4294   65.8394 O   0  0  0  0  0  0  0  0  0  0  0  0
   27.3712   42.0821   67.5650 O   0  0  0  0  0  0  0  0  0  0  0  0
   21.8316   37.6564   68.5556 S   0  0  0  0  0  0  0  0  0  0  0  0
   20.3894   38.5228   68.1236 C   0  0  0  0  0  0  0  0  0  0  0  0
   27.4187   40.2978   67.8535 O   0  0  0  0  0  0  0  0  0  0  0  0
   26.8731   43.4927   65.4662 O   0  5  0  0  0  0  0  0  0  0  0  0
   20.6996   39.0029   66.9416 N   0  0  0  0  0  0  0  0  0  0  0  0
   26.6426   40.8739   65.4091 O   0  0  0  0  0  0  0  0  0  0  0  0
   24.9897   42.3109   66.7662 O   0  0  0  0  0  0  0  0  0  0  0  0
   21.8700   38.7660   66.3905 C   0  0  2  0  0  0  0  0  0  0  0  0
   22.7679   38.0139   67.0766 C   0  0  2  0  0  0  0  0  0  0  0  0
   24.1635   37.5943   66.6955 C   0  0  0  0  0  0  0  0  0  0  0  0
   25.0923   38.8100   66.7334 C   0  0  0  0  0  0  0  0  0  0  0  0
   26.4034   38.4199   66.3198 O   0  0  0  0  0  0  0  0  0  0  0  0
  1 11  1  0  0  0  0
  3 13  1  6  0  0  0
  3 17  1  0  0  0  0
  3 20  1  0  0  0  0
  3 26  1  0  0  0  0
  4 14  1  0  0  0  0
  4 18  1  6  0  0  0
  4 21  2  0  0  0  0
  4 20  1  0  0  0  0
  5 19  1  0  0  0  0
  5  7  1  0  0  0  0
  6  7  2  0  0  0  0
  6 12  1  0  0  0  0
  7  8  1  0  0  0  0
  8  9  1  0  0  0  0
  8 10  2  0  0  0  0
 10 11  1  0  0  0  0
 11 12  2  0  0  0  0
 14 17  1  0  0  0  0
 15 23  1  0  0  0  0
 15 16  1  0  0  0  0
 16 19  1  0  0  0  0
 19 22  1  0  0  0  0
 22  2  1  1  0  0  0
 22 23  1  0  0  0  0
 23 24  1  6  0  0  0
 24 25  1  0  0  0  0
 25 26  1  0  0  0  0
M  CHG  1  18  -1
M  END
>  <CHROM.1>
107.04563830,-8.26132228,-109.55674453,-177.69675871,178.51717902,-176.28285611
23.65269952,40.63385400,66.53841967,-3.04088654,-0.00484321,2.91707970

>  <Name>
ligand

>  <RI>
0

>  <Rbt.Current_Directory>
/home/itssahil/PROJECTS/Mol_Feturizer/New_Systems/rnas/2HOL

>  <Rbt.Executable>
rbdock ($Id: //depot/dev/client3/rdock/2013.1/src/exe/rbdock.cxx#4 $)

>  <Rbt.Library>
libRbt.so (2013.1, Build901 2013/11/27)

>  <Rbt.Parameter_File>
/export/apps/rDock/src/rDock_2013.1_src/data/scripts/dock_solv.prm

>  <Rbt.Receptor>
prm/pocket_docking_5.prm

>  <SCORE>
-15.7066

>  <SCORE.INTER>
-12.427

>  <SCORE.INTER.CONST>
1

>  <SCORE.INTER.POLAR>
0

>  <SCORE.INTER.ROT>
6

>  <SCORE.INTER.SOLV>
15.6964

>  <SCORE.INTER.VDW>
-21.1168

>  <SCORE.INTER.norm>
-0.477963

>  <SCORE.INTRA>
-3.28224

>  <SCORE.INTRA.DIHEDRAL>
-4.66916

>  <SCORE.INTRA.DIHEDRAL.0>
9.33621

>  <SCORE.INTRA.POLAR>
0

>  <SCORE.INTRA.POLAR.0>
0

>  <SCORE.INTRA.REPUL>
0

>  <SCORE.INTRA.REPUL.0>
0

>  <SCORE.INTRA.SOLV>
0.856657

>  <SCORE.INTRA.SOLV.lig_0>
-65.9238

>  <SCORE.INTRA.VDW>
-1.37598

>  <SCORE.INTRA.VDW.0>
-0.405582

>  <SCORE.INTRA.norm>
-0.12624

>  <SCORE.RESTR>
0.00267194

>  <SCORE.RESTR.CAVITY>
0.00267194

>  <SCORE.RESTR.norm>
0.000102767

>  <SCORE.SYSTEM>
0

>  <SCORE.SYSTEM.CONST>
0

>  <SCORE.SYSTEM.DIHEDRAL>
0

>  <SCORE.SYSTEM.SOLV>
0

>  <SCORE.SYSTEM.norm>
0

>  <SCORE.heavy>
26

>  <SCORE.norm>
-0.6041

>  <RMSD>
3.621

$$$$
ligand
 OpenBabel11021811443D
libRbt.so/2013.1/901 2013/11/27
 26 28  0  0  0  0  0  0  0  0999 V2000
   21.7273   45.2191   66.4063 C   0  0  0  0  0  0  0  0  0  0  0  0
   21.4571   38.9783   68.9295 C   0  0  0  0  0  0  0  0  0  0  0  0
   27.1474   39.3394   68.0534 P   0  0  1  0  0  0  0  0  0  0  0  0
   27.9037   40.1385   70.3935 P   0  0  1  0  0  0  0  0  0  0  0  0
   20.3014   39.7073   66.4795 C   0  0  0  0  0  0  0  0  0  0  0  0
   21.7195   41.6400   67.2318 C   0  0  0  0  0  0  0  0  0  0  0  0
   20.6777   41.1665   66.4592 C   0  0  0  0  0  0  0  0  0  0  0  0
   19.9819   42.0738   65.6584 C   0  0  0  0  0  0  0  0  0  0  0  0
   18.9273   41.6487   64.8643 N   0  0  0  0  0  0  0  0  0  0  0  0
   20.3417   43.3539   65.6724 N   0  0  0  0  0  0  0  0  0  0  0  0
   21.3454   43.7620   66.4215 C   0  0  0  0  0  0  0  0  0  0  0  0
   22.0225   42.9305   67.1891 N   0  0  0  0  0  0  0  0  0  0  0  0
   27.5229   40.1139   66.8490 O   0  0  0  0  0  0  0  0  0  0  0  0
   29.1290   39.4183   69.7869 O   0  0  0  0  0  0  0  0  0  0  0  0
   23.4178   37.5965   65.8330 S   0  0  0  0  0  0  0  0  0  0  0  0
   22.0356   38.5193   65.3275 C   0  0  0  0  0  0  0  0  0  0  0  0
   28.3777   38.4015   68.4943 O   0  0  0  0  0  0  0  0  0  0  0  0
   28.3548   41.5679   70.9798 O   0  5  0  0  0  0  0  0  0  0  0  0
   21.5162   38.8893   66.4752 N   0  0  0  0  0  0  0  0  0  0  0  0
   26.7883   40.3531   69.2522 O   0  0  0  0  0  0  0  0  0  0  0  0
   27.3148   39.2776   71.5336 O   0  0  0  0  0  0  0  0  0  0  0  0
   22.0650   38.5443   67.6196 C   0  0  2  0  0  0  0  0  0  0  0  0
   23.1877   37.7818   67.5950 C   0  0  2  0  0  0  0  0  0  0  0  0
   24.0122   37.2448   68.7355 C   0  0  0  0  0  0  0  0  0  0  0  0
   25.2170   38.1585   68.9714 C   0  0  0  0  0  0  0  0  0  0  0  0
   25.8642   38.4235   67.7252 O   0  0  0  0  0  0  0  0  0  0  0  0
  1 11  1  0  0  0  0
  3 13  1  6  0  0  0
  3 17  1  0  0  0  0
  3 20  1  0  0  0  0
  3 26  1  0  0  0  0
  4 14  1  0  0  0  0
  4 18  1  1  0  0  0
  4 21  2  0  0  0  0
  4 20  1  0  0  0  0
  5 19  1  0  0  0  0
  5  7  1  0  0  0  0
  6  7  2  0  0  0  0
  6 12  1  0  0  0  0
  7  8  1  0  0  0  0
  8  9  1  0  0  0  0
  8 10  2  0  0  0  0
 10 11  1  0  0  0  0
 11 12  2  0  0  0  0
 14 17  1  0  0  0  0
 15 23  1  0  0  0  0
 15 16  1  0  0  0  0
 16 19  1  0  0  0  0
 19 22  1  0  0  0  0
 22  2  1  1  0  0  0
 22 23  1  0  0  0  0
 23 24  1  6  0  0  0
 24 25  1  0  0  0  0
 25 26  1  0  0  0  0
M  CHG  1  18  -1
M  END
>  <CHROM.1>
-89.95490528,-41.74864787,81.95397335,-48.40644421,-177.91601816,-156.08698474
24.26180517,39.99913007,67.78791854,-2.95232488,0.48143640,-3.01850898

>  <Name>
ligand

>  <RI>
0

>  <Rbt.Current_Directory>
/home/itssahil/PROJECTS/Mol_Feturizer/New_Systems/rnas/2HOL

>  <Rbt.Executable>
rbdock ($Id: //depot/dev/client3/rdock/2013.1/src/exe/rbdock.cxx#4 $)

>  <Rbt.Library>
libRbt.so (2013.1, Build901 2013/11/27)

>  <Rbt.Parameter_File>
/export/apps/rDock/src/rDock_2013.1_src/data/scripts/dock_solv.prm

>  <Rbt.Receptor>
prm/pocket_docking_6.prm

>  <SCORE>
-17.6064

>  <SCORE.INTER>
-14.7703

>  <SCORE.INTER.CONST>
1

>  <SCORE.INTER.POLAR>
0

>  <SCORE.INTER.ROT>
6

>  <SCORE.INTER.SOLV>
21.2445

>  <SCORE.INTER.VDW>
-24.5283

>  <SCORE.INTER.norm>
-0.568088

>  <SCORE.INTRA>
-2.8361

>  <SCORE.INTRA.DIHEDRAL>
-3.03419

>  <SCORE.INTRA.DIHEDRAL.0>
9.33621

>  <SCORE.INTRA.POLAR>
0

>  <SCORE.INTRA.POLAR.0>
0

>  <SCORE.INTRA.REPUL>
0

>  <SCORE.INTRA.REPUL.0>
0

>  <SCORE.INTRA.SOLV>
0.258855

>  <SCORE.INTRA.SOLV.lig_0>
-65.9238

>  <SCORE.INTRA.VDW>
-1.44844

>  <SCORE.INTRA.VDW.0>
-0.405582

>  <SCORE.INTRA.norm>
-0.109081

>  <SCORE.RESTR>
0

>  <SCORE.RESTR.CAVITY>
0

>  <SCORE.RESTR.norm>
0

>  <SCORE.SYSTEM>
0

>  <SCORE.SYSTEM.CONST>
0

>  <SCORE.SYSTEM.DIHEDRAL>
0

>  <SCORE.SYSTEM.SOLV>
0

>  <SCORE.SYSTEM.norm>
0

>  <SCORE.heavy>
26

>  <SCORE.norm>
-0.677169

>  <RMSD>
3.680

$$$$
ligand
 OpenBabel11021811443D
libRbt.so/2013.1/901 2013/11/27
 26 28  0  0  0  0  0  0  0  0999 V2000
   20.8024   44.8636   66.0968 C   0  0  0  0  0  0  0  0  0  0  0  0
   20.8747   38.8375   67.8796 C   0  0  0  0  0  0  0  0  0  0  0  0
   26.3872   39.9421   68.0688 P   0  0  1  0  0  0  0  0  0  0  0  0
   26.9779   42.4485   68.3042 P   0  0  1  0  0  0  0  0  0  0  0  0
   20.1825   39.2757   65.1966 C   0  0  0  0  0  0  0  0  0  0  0  0
   21.5731   41.2866   65.7747 C   0  0  0  0  0  0  0  0  0  0  0  0
   20.3451   40.7550   65.4346 C   0  0  0  0  0  0  0  0  0  0  0  0
   19.2579   41.6225   65.3166 C   0  0  0  0  0  0  0  0  0  0  0  0
   18.0033   41.1382   64.9778 N   0  0  0  0  0  0  0  0  0  0  0  0
   19.4417   42.9205   65.5397 N   0  0  0  0  0  0  0  0  0  0  0  0
   20.6322   43.3860   65.8574 C   0  0  0  0  0  0  0  0  0  0  0  0
   21.6792   42.5931   65.9771 N   0  0  0  0  0  0  0  0  0  0  0  0
   27.3921   38.9903   67.5434 O   0  0  0  0  0  0  0  0  0  0  0  0
   27.6011   41.7596   69.5391 O   0  0  0  0  0  0  0  0  0  0  0  0
   23.5399   37.4628   65.3599 S   0  0  0  0  0  0  0  0  0  0  0  0
   22.2135   38.2004   64.5148 C   0  0  0  0  0  0  0  0  0  0  0  0
   26.6685   40.2132   69.6294 O   0  0  0  0  0  0  0  0  0  0  0  0
   28.0757   43.3948   67.6043 O   0  5  0  0  0  0  0  0  0  0  0  0
   21.4403   38.5904   65.5017 N   0  0  0  0  0  0  0  0  0  0  0  0
   26.4863   41.3291   67.2564 O   0  0  0  0  0  0  0  0  0  0  0  0
   25.7701   43.3037   68.7485 O   0  0  0  0  0  0  0  0  0  0  0  0
   21.7728   38.3823   66.7571 C   0  0  2  0  0  0  0  0  0  0  0  0
   22.9400   37.7411   67.0196 C   0  0  2  0  0  0  0  0  0  0  0  0
   23.5592   37.3709   68.3419 C   0  0  0  0  0  0  0  0  0  0  0  0
   24.9453   38.0095   68.4553 C   0  0  0  0  0  0  0  0  0  0  0  0
   24.9125   39.3209   67.8886 O   0  0  0  0  0  0  0  0  0  0  0  0
  1 11  1  0  0  0  0
  3 13  1  6  0  0  0
  3 17  1  0  0  0  0
  3 20  1  0  0  0  0
  3 26  1  0  0  0  0
  4 14  1  0  0  0  0
  4 18  1  6  0  0  0
  4 21  2  0  0  0  0
  4 20  1  0  0  0  0
  5 19  1  0  0  0  0
  5  7  1  0  0  0  0
  6  7  2  0  0  0  0
  6 12  1  0  0  0  0
  7  8  1  0  0  0  0
  8  9  1  0  0  0  0
  8 10  2  0  0  0  0
 10 11  1  0  0  0  0
 11 12  2  0  0  0  0
 14 17  1  0  0  0  0
 15 23  1  0  0  0  0
 15 16  1  0  0  0  0
 16 19  1  0  0  0  0
 19 22  1  0  0  0  0
 22  2  1  6  0  0  0
 22 23  1  0  0  0  0
 23 24  1  1  0  0  0
 24 25  1  0  0  0  0
 25 26  1  0  0  0  0
M  CHG  1  18  -1
M  END
>  <CHROM.1>
-102.91445758,5.04709315,57.97799314,38.58473240,178.84762022,51.55953678
23.67673556,40.46933597,66.99466458,3.06900005,0.39891078,-3.08928841

>  <Name>
ligand

>  <RI>
0

>  <Rbt.Current_Directory>
/home/itssahil/PROJECTS/Mol_Feturizer/New_Systems/rnas/2HOL

>  <Rbt.Executable>
rbdock ($Id: //depot/dev/client3/rdock/2013.1/src/exe/rbdock.cxx#4 $)

>  <Rbt.Library>
libRbt.so (2013.1, Build901 2013/11/27)

>  <Rbt.Parameter_File>
/export/apps/rDock/src/rDock_2013.1_src/data/scripts/dock_solv.prm

>  <Rbt.Receptor>
prm/pocket_docking_6.prm

>  <SCORE>
-18.5555

>  <SCORE.INTER>
-16.1096

>  <SCORE.INTER.CONST>
1

>  <SCORE.INTER.POLAR>
0

>  <SCORE.INTER.ROT>
6

>  <SCORE.INTER.SOLV>
19.6669

>  <SCORE.INTER.VDW>
-24.8954

>  <SCORE.INTER.norm>
-0.619602

>  <SCORE.INTRA>
-2.45115

>  <SCORE.INTRA.DIHEDRAL>
-2.49755

>  <SCORE.INTRA.DIHEDRAL.0>
9.33621

>  <SCORE.INTRA.POLAR>
0

>  <SCORE.INTRA.POLAR.0>
0

>  <SCORE.INTRA.REPUL>
0

>  <SCORE.INTRA.REPUL.0>
0

>  <SCORE.INTRA.SOLV>
-0.471319

>  <SCORE.INTRA.SOLV.lig_0>
-65.9238

>  <SCORE.INTRA.VDW>
-0.966719

>  <SCORE.INTRA.VDW.0>
-0.405582

>  <SCORE.INTRA.norm>
-0.0942751

>  <SCORE.RESTR>
0.00531688

>  <SCORE.RESTR.CAVITY>
0.00531688

>  <SCORE.RESTR.norm>
0.000204495

>  <SCORE.SYSTEM>
0

>  <SCORE.SYSTEM.CONST>
0

>  <SCORE.SYSTEM.DIHEDRAL>
0

>  <SCORE.SYSTEM.SOLV>
0

>  <SCORE.SYSTEM.norm>
0

>  <SCORE.heavy>
26

>  <SCORE.norm>
-0.713672

>  <RMSD>
3.704

$$$$
ligand
 OpenBabel11021811443D
libRbt.so/2013.1/901 2013/11/27
 26 28  0  0  0  0  0  0  0  0999 V2000
   21.7614   45.5626   66.3911 C   0  0  0  0  0  0  0  0  0  0  0  0
   21.6785   39.4062   68.4039 C   0  0  0  0  0  0  0  0  0  0  0  0
   27.2883   39.2740   68.6721 P   0  0  1  0  0  0  0  0  0  0  0  0
   28.1590   39.9084   71.0229 P   0  0  1  0  0  0  0  0  0  0  0  0
   19.9956   40.1506   66.2866 C   0  0  0  0  0  0  0  0  0  0  0  0
   21.6544   41.9289   66.9172 C   0  0  0  0  0  0  0  0  0  0  0  0
   20.4617   41.5835   66.3136 C   0  0  0  0  0  0  0  0  0  0  0  0
   19.6985   42.5954   65.7285 C   0  0  0  0  0  0  0  0  0  0  0  0
   18.4927   42.3007   65.1100 N   0  0  0  0  0  0  0  0  0  0  0  0
   20.1422   43.8480   65.7779 N   0  0  0  0  0  0  0  0  0  0  0  0
   21.2890   44.1325   66.3603 C   0  0  0  0  0  0  0  0  0  0  0  0
   22.0331   43.2000   66.9223 N   0  0  0  0  0  0  0  0  0  0  0  0
   27.2163   40.2997   67.6071 O   0  0  0  0  0  0  0  0  0  0  0  0
   29.4217   39.7118   70.1538 O   0  0  0  0  0  0  0  0  0  0  0  0
   22.7613   37.8717   64.9666 S   0  0  0  0  0  0  0  0  0  0  0  0
   21.3412   38.8553   64.7842 C   0  0  0  0  0  0  0  0  0  0  0  0
   28.7936   38.7171   68.7808 O   0  0  0  0  0  0  0  0  0  0  0  0
   28.2667   41.3014   71.8217 O   0  5  0  0  0  0  0  0  0  0  0  0
   21.1342   39.2714   66.0121 N   0  0  0  0  0  0  0  0  0  0  0  0
   26.8554   39.9296   70.0780 O   0  0  0  0  0  0  0  0  0  0  0  0
   28.0444   38.7441   72.0323 O   0  0  0  0  0  0  0  0  0  0  0  0
   21.9288   38.9188   66.9991 C   0  0  2  0  0  0  0  0  0  0  0  0
   22.9759   38.0994   66.7256 C   0  0  2  0  0  0  0  0  0  0  0  0
   24.0279   37.5408   67.6476 C   0  0  0  0  0  0  0  0  0  0  0  0
   25.0208   38.6442   68.0202 C   0  0  0  0  0  0  0  0  0  0  0  0
   26.2906   38.0605   68.3182 O   0  0  0  0  0  0  0  0  0  0  0  0
  1 11  1  0  0  0  0
  3 13  1  6  0  0  0
  3 17  1  0  0  0  0
  3 20  1  0  0  0  0
  3 26  1  0  0  0  0
  4 14  1  0  0  0  0
  4 18  1  1  0  0  0
  4 21  2  0  0  0  0
  4 20  1  0  0  0  0
  5 19  1  0  0  0  0
  5  7  1  0  0  0  0
  6  7  2  0  0  0  0
  6 12  1  0  0  0  0
  7  8  1  0  0  0  0
  8  9  1  0  0  0  0
  8 10  2  0  0  0  0
 10 11  1  0  0  0  0
 11 12  2  0  0  0  0
 14 17  1  0  0  0  0
 15 23  1  0  0  0  0
 15 16  1  0  0  0  0
 16 19  1  0  0  0  0
 19 22  1  0  0  0  0
 22  2  1  1  0  0  0
 22 23  1  0  0  0  0
 23 24  1  6  0  0  0
 24 25  1  0  0  0  0
 25 26  1  0  0  0  0
M  CHG  1  18  -1
M  END
>  <CHROM.1>
-97.43118539,-41.01077370,105.64888610,-152.52782445,178.93235821,-50.61610499
24.21106139,40.17248895,67.79515569,-3.04392453,0.56642508,-2.85401998

>  <Name>
ligand

>  <RI>
0

>  <Rbt.Current_Directory>
/home/itssahil/PROJECTS/Mol_Feturizer/New_Systems/rnas/2HOL

>  <Rbt.Executable>
rbdock ($Id: //depot/dev/client3/rdock/2013.1/src/exe/rbdock.cxx#4 $)

>  <Rbt.Library>
libRbt.so (2013.1, Build901 2013/11/27)

>  <Rbt.Parameter_File>
/export/apps/rDock/src/rDock_2013.1_src/data/scripts/dock_solv.prm

>  <Rbt.Receptor>
prm/pocket_docking_5.prm

>  <SCORE>
-16.877

>  <SCORE.INTER>
-15.4543

>  <SCORE.INTER.CONST>
1

>  <SCORE.INTER.POLAR>
0

>  <SCORE.INTER.ROT>
6

>  <SCORE.INTER.SOLV>
23.0286

>  <SCORE.INTER.VDW>
-25.5791

>  <SCORE.INTER.norm>
-0.594397

>  <SCORE.INTRA>
-1.42267

>  <SCORE.INTRA.DIHEDRAL>
-2.16646

>  <SCORE.INTRA.DIHEDRAL.0>
9.33621

>  <SCORE.INTRA.POLAR>
0

>  <SCORE.INTRA.POLAR.0>
0

>  <SCORE.INTRA.REPUL>
0

>  <SCORE.INTRA.REPUL.0>
0

>  <SCORE.INTRA.SOLV>
-0.555136

>  <SCORE.INTRA.SOLV.lig_0>
-65.9238

>  <SCORE.INTRA.VDW>
-0.0618689

>  <SCORE.INTRA.VDW.0>
-0.405582

>  <SCORE.INTRA.norm>
-0.054718

>  <SCORE.RESTR>
0

>  <SCORE.RESTR.CAVITY>
0

>  <SCORE.RESTR.norm>
0

>  <SCORE.SYSTEM>
0

>  <SCORE.SYSTEM.CONST>
0

>  <SCORE.SYSTEM.DIHEDRAL>
0

>  <SCORE.SYSTEM.SOLV>
0

>  <SCORE.SYSTEM.norm>
0

>  <SCORE.heavy>
26

>  <SCORE.norm>
-0.649115

>  <RMSD>
3.711

$$$$
ligand
 OpenBabel11021811443D
libRbt.so/2013.1/901 2013/11/27
 26 28  0  0  0  0  0  0  0  0999 V2000
   18.9553   43.0328   65.1005 C   0  0  0  0  0  0  0  0  0  0  0  0
   23.2165   38.0027   69.3932 C   0  0  0  0  0  0  0  0  0  0  0  0
   27.1542   41.0375   67.5782 P   0  0  1  0  0  0  0  0  0  0  0  0
   26.0786   43.2471   66.7735 P   0  0  1  0  0  0  0  0  0  0  0  0
   21.0966   38.3846   67.5960 C   0  0  0  0  0  0  0  0  0  0  0  0
   19.3764   39.5478   66.1820 C   0  0  0  0  0  0  0  0  0  0  0  0
   20.5310   39.6158   66.9360 C   0  0  0  0  0  0  0  0  0  0  0  0
   21.1611   40.8540   67.0717 C   0  0  0  0  0  0  0  0  0  0  0  0
   22.3238   40.9751   67.8181 N   0  0  0  0  0  0  0  0  0  0  0  0
   20.6331   41.9155   66.4695 N   0  0  0  0  0  0  0  0  0  0  0  0
   19.5266   41.8065   65.7631 C   0  0  0  0  0  0  0  0  0  0  0  0
   18.9075   40.6516   65.6154 N   0  0  0  0  0  0  0  0  0  0  0  0
   28.5674   41.0189   68.0187 O   0  0  0  0  0  0  0  0  0  0  0  0
   26.0461   43.3100   68.3173 O   0  0  0  0  0  0  0  0  0  0  0  0
   24.3132   37.7340   65.6426 S   0  0  0  0  0  0  0  0  0  0  0  0
   22.6127   38.0662   65.7667 C   0  0  0  0  0  0  0  0  0  0  0  0
   26.2245   41.5707   68.7779 O   0  0  0  0  0  0  0  0  0  0  0  0
   26.6817   44.6209   66.1911 O   0  5  0  0  0  0  0  0  0  0  0  0
   22.4359   38.1179   67.0667 N   0  0  0  0  0  0  0  0  0  0  0  0
   27.0019   42.0135   66.3063 O   0  0  0  0  0  0  0  0  0  0  0  0
   24.6430   43.0476   66.2378 O   0  0  0  0  0  0  0  0  0  0  0  0
   23.4354   37.9390   67.9026 C   0  0  2  0  0  0  0  0  0  0  0  0
   24.6682   37.6880   67.3930 C   0  0  2  0  0  0  0  0  0  0  0  0
   25.9729   37.4430   68.1047 C   0  0  0  0  0  0  0  0  0  0  0  0
   26.6701   38.7791   68.3710 C   0  0  0  0  0  0  0  0  0  0  0  0
   26.6996   39.5484   67.1671 O   0  0  0  0  0  0  0  0  0  0  0  0
  1 11  1  0  0  0  0
  3 13  1  1  0  0  0
  3 17  1  0  0  0  0
  3 20  1  0  0  0  0
  3 26  1  0  0  0  0
  4 14  1  0  0  0  0
  4 18  1  6  0  0  0
  4 21  2  0  0  0  0
  4 20  1  0  0  0  0
  5 19  1  0  0  0  0
  5  7  1  0  0  0  0
  6  7  2  0  0  0  0
  6 12  1  0  0  0  0
  7  8  1  0  0  0  0
  8  9  1  0  0  0  0
  8 10  2  0  0  0  0
 10 11  1  0  0  0  0
 11 12  2  0  0  0  0
 14 17  1  0  0  0  0
 15 23  1  0  0  0  0
 15 16  1  0  0  0  0
 16 19  1  0  0  0  0
 19 22  1  0  0  0  0
 22  2  1  1  0  0  0
 22 23  1  0  0  0  0
 23 24  1  6  0  0  0
 24 25  1  0  0  0  0
 25 26  1  0  0  0  0
M  CHG  1  18  -1
M  END
>  <CHROM.1>
-51.34853240,118.59301563,91.94116833,-49.32102853,168.36239110,68.27496780
24.07268137,40.50560722,67.02838565,2.95928800,0.19804671,2.97668267

>  <Name>
ligand

>  <RI>
0

>  <Rbt.Current_Directory>
/home/itssahil/PROJECTS/Mol_Feturizer/New_Systems/rnas/2HOL

>  <Rbt.Executable>
rbdock ($Id: //depot/dev/client3/rdock/2013.1/src/exe/rbdock.cxx#4 $)

>  <Rbt.Library>
libRbt.so (2013.1, Build901 2013/11/27)

>  <Rbt.Parameter_File>
/export/apps/rDock/src/rDock_2013.1_src/data/scripts/dock_solv.prm

>  <Rbt.Receptor>
prm/pocket_docking_6.prm

>  <SCORE>
-16.374

>  <SCORE.INTER>
-14.4323

>  <SCORE.INTER.CONST>
1

>  <SCORE.INTER.POLAR>
0

>  <SCORE.INTER.ROT>
6

>  <SCORE.INTER.SOLV>
11.5536

>  <SCORE.INTER.VDW>
-21.0727

>  <SCORE.INTER.norm>
-0.555089

>  <SCORE.INTRA>
-1.94341

>  <SCORE.INTRA.DIHEDRAL>
-3.33817

>  <SCORE.INTRA.DIHEDRAL.0>
9.33621

>  <SCORE.INTRA.POLAR>
0

>  <SCORE.INTRA.POLAR.0>
0

>  <SCORE.INTRA.REPUL>
0

>  <SCORE.INTRA.REPUL.0>
0

>  <SCORE.INTRA.SOLV>
4.14845

>  <SCORE.INTRA.SOLV.lig_0>
-65.9238

>  <SCORE.INTRA.VDW>
-2.34855

>  <SCORE.INTRA.VDW.0>
-0.405582

>  <SCORE.INTRA.norm>
-0.0747464

>  <SCORE.RESTR>
0.00173801

>  <SCORE.RESTR.CAVITY>
0.00173801

>  <SCORE.RESTR.norm>
6.68466e-05

>  <SCORE.SYSTEM>
0

>  <SCORE.SYSTEM.CONST>
0

>  <SCORE.SYSTEM.DIHEDRAL>
0

>  <SCORE.SYSTEM.SOLV>
0

>  <SCORE.SYSTEM.norm>
0

>  <SCORE.heavy>
26

>  <SCORE.norm>
-0.629768

>  <RMSD>
3.739

$$$$
ligand
 OpenBabel11021811443D
libRbt.so/2013.1/901 2013/11/27
 26 28  0  0  0  0  0  0  0  0999 V2000
   19.9690   44.4199   65.7885 C   0  0  0  0  0  0  0  0  0  0  0  0
   22.4866   38.7100   64.8479 C   0  0  0  0  0  0  0  0  0  0  0  0
   27.2145   41.1545   67.0090 P   0  0  1  0  0  0  0  0  0  0  0  0
   25.4097   42.9213   67.5637 P   0  0  1  0  0  0  0  0  0  0  0  0
   20.8563   38.9550   67.1176 C   0  0  0  0  0  0  0  0  0  0  0  0
   21.4592   41.3910   67.2367 C   0  0  0  0  0  0  0  0  0  0  0  0
   20.6202   40.4011   66.7651 C   0  0  0  0  0  0  0  0  0  0  0  0
   19.5477   40.7738   65.9530 C   0  0  0  0  0  0  0  0  0  0  0  0
   18.6757   39.8176   65.4542 N   0  0  0  0  0  0  0  0  0  0  0  0
   19.3708   42.0608   65.6691 N   0  0  0  0  0  0  0  0  0  0  0  0
   20.1987   42.9723   66.1367 C   0  0  0  0  0  0  0  0  0  0  0  0
   21.2209   42.6532   66.9064 N   0  0  0  0  0  0  0  0  0  0  0  0
   28.4770   41.5654   66.3540 O   0  0  0  0  0  0  0  0  0  0  0  0
   26.4596   43.0348   68.6921 O   0  0  0  0  0  0  0  0  0  0  0  0
   24.4686   38.3674   68.2089 S   0  0  0  0  0  0  0  0  0  0  0  0
   22.7792   38.6342   68.5124 C   0  0  0  0  0  0  0  0  0  0  0  0
   27.3102   41.4426   68.5887 O   0  0  0  0  0  0  0  0  0  0  0  0
   25.0832   44.3863   66.9827 O   0  5  0  0  0  0  0  0  0  0  0  0
   22.2913   38.7236   67.2968 N   0  0  0  0  0  0  0  0  0  0  0  0
   25.9890   41.9915   66.3836 O   0  0  0  0  0  0  0  0  0  0  0  0
   24.1163   42.2915   68.1276 O   0  0  0  0  0  0  0  0  0  0  0  0
   23.0623   38.6062   66.2378 C   0  0  2  0  0  0  0  0  0  0  0  0
   24.3904   38.3970   66.4243 C   0  0  2  0  0  0  0  0  0  0  0  0
   25.4911   38.2317   65.4094 C   0  0  0  0  0  0  0  0  0  0  0  0
   26.4151   39.4509   65.4526 C   0  0  0  0  0  0  0  0  0  0  0  0
   26.9686   39.5821   66.7635 O   0  0  0  0  0  0  0  0  0  0  0  0
  1 11  1  0  0  0  0
  3 13  1  6  0  0  0
  3 17  1  0  0  0  0
  3 20  1  0  0  0  0
  3 26  1  0  0  0  0
  4 14  1  0  0  0  0
  4 18  1  6  0  0  0
  4 21  2  0  0  0  0
  4 20  1  0  0  0  0
  5 19  1  0  0  0  0
  5  7  1  0  0  0  0
  6  7  2  0  0  0  0
  6 12  1  0  0  0  0
  7  8  1  0  0  0  0
  8  9  1  0  0  0  0
  8 10  2  0  0  0  0
 10 11  1  0  0  0  0
 11 12  2  0  0  0  0
 14 17  1  0  0  0  0
 15 23  1  0  0  0  0
 15 16  1  0  0  0  0
 16 19  1  0  0  0  0
 19 22  1  0  0  0  0
 22  2  1  1  0  0  0
 22 23  1  0  0  0  0
 23 24  1  6  0  0  0
 24 25  1  0  0  0  0
 25 26  1  0  0  0  0
M  CHG  1  18  -1
M  END
>  <CHROM.1>
102.44263207,-30.80515744,-69.36185518,59.08013088,-149.55173972,-80.66013453
23.89071877,40.86599516,66.88419154,3.10166054,0.14680412,-3.07415435

>  <Name>
ligand

>  <RI>
0

>  <Rbt.Current_Directory>
/home/itssahil/PROJECTS/Mol_Feturizer/New_Systems/rnas/2HOL

>  <Rbt.Executable>
rbdock ($Id: //depot/dev/client3/rdock/2013.1/src/exe/rbdock.cxx#4 $)

>  <Rbt.Library>
libRbt.so (2013.1, Build901 2013/11/27)

>  <Rbt.Parameter_File>
/export/apps/rDock/src/rDock_2013.1_src/data/scripts/dock_solv.prm

>  <Rbt.Receptor>
prm/pocket_docking_5.prm

>  <SCORE>
-16.5833

>  <SCORE.INTER>
-14.4065

>  <SCORE.INTER.CONST>
1

>  <SCORE.INTER.POLAR>
0

>  <SCORE.INTER.ROT>
6

>  <SCORE.INTER.SOLV>
17.3809

>  <SCORE.INTER.VDW>
-22.9979

>  <SCORE.INTER.norm>
-0.554096

>  <SCORE.INTRA>
-2.17677

>  <SCORE.INTRA.DIHEDRAL>
0.126201

>  <SCORE.INTRA.DIHEDRAL.0>
9.33621

>  <SCORE.INTRA.POLAR>
0

>  <SCORE.INTRA.POLAR.0>
0

>  <SCORE.INTRA.REPUL>
0

>  <SCORE.INTRA.REPUL.0>
0

>  <SCORE.INTRA.SOLV>
1.50429

>  <SCORE.INTRA.SOLV.lig_0>
-65.9238

>  <SCORE.INTRA.VDW>
-2.99202

>  <SCORE.INTRA.VDW.0>
-0.405582

>  <SCORE.INTRA.norm>
-0.0837221

>  <SCORE.RESTR>
0

>  <SCORE.RESTR.CAVITY>
0

>  <SCORE.RESTR.norm>
0

>  <SCORE.SYSTEM>
0

>  <SCORE.SYSTEM.CONST>
0

>  <SCORE.SYSTEM.DIHEDRAL>
0

>  <SCORE.SYSTEM.SOLV>
0

>  <SCORE.SYSTEM.norm>
0

>  <SCORE.heavy>
26

>  <SCORE.norm>
-0.637818

>  <RMSD>
3.746

$$$$
ligand
 OpenBabel11021811443D
libRbt.so/2013.1/901 2013/11/27
 26 28  0  0  0  0  0  0  0  0999 V2000
   20.0302   44.8666   65.9257 C   0  0  0  0  0  0  0  0  0  0  0  0
   22.1575   39.1189   68.6900 C   0  0  0  0  0  0  0  0  0  0  0  0
   26.0527   41.8164   67.8983 P   0  0  1  0  0  0  0  0  0  0  0  0
   26.6994   43.2009   65.8122 P   0  0  1  0  0  0  0  0  0  0  0  0
   20.3195   39.2172   66.5730 C   0  0  0  0  0  0  0  0  0  0  0  0
   21.2125   41.5378   66.9325 C   0  0  0  0  0  0  0  0  0  0  0  0
   20.2416   40.7124   66.4010 C   0  0  0  0  0  0  0  0  0  0  0  0
   19.1862   41.2980   65.6998 C   0  0  0  0  0  0  0  0  0  0  0  0
   18.1855   40.5127   65.1471 N   0  0  0  0  0  0  0  0  0  0  0  0
   19.1511   42.6214   65.5744 N   0  0  0  0  0  0  0  0  0  0  0  0
   20.1014   43.3713   66.0937 C   0  0  0  0  0  0  0  0  0  0  0  0
   21.1114   42.8493   66.7618 N   0  0  0  0  0  0  0  0  0  0  0  0
   26.9646   41.7622   69.0632 O   0  0  0  0  0  0  0  0  0  0  0  0
   26.1506   44.2233   66.8327 O   0  0  0  0  0  0  0  0  0  0  0  0
   23.6870   37.9716   65.2715 S   0  0  0  0  0  0  0  0  0  0  0  0
   22.0192   38.4193   65.0829 C   0  0  0  0  0  0  0  0  0  0  0  0
   25.1927   43.1748   67.9518 O   0  0  0  0  0  0  0  0  0  0  0  0
   28.1040   43.7252   65.2268 O   0  5  0  0  0  0  0  0  0  0  0  0
   21.6865   38.7650   66.3051 N   0  0  0  0  0  0  0  0  0  0  0  0
   26.9164   41.7807   66.5394 O   0  0  0  0  0  0  0  0  0  0  0  0
   25.6886   43.0377   64.6549 O   0  0  0  0  0  0  0  0  0  0  0  0
   22.5546   38.7173   67.2919 C   0  0  2  0  0  0  0  0  0  0  0  0
   23.8153   38.2908   67.0247 C   0  0  2  0  0  0  0  0  0  0  0  0
   24.9949   38.1340   67.9481 C   0  0  0  0  0  0  0  0  0  0  0  0
   25.8785   39.3808   67.8667 C   0  0  0  0  0  0  0  0  0  0  0  0
   25.0592   40.5497   67.9338 O   0  0  0  0  0  0  0  0  0  0  0  0
  1 11  1  0  0  0  0
  3 13  1  1  0  0  0
  3 17  1  0  0  0  0
  3 20  1  0  0  0  0
  3 26  1  0  0  0  0
  4 14  1  0  0  0  0
  4 18  1  6  0  0  0
  4 21  2  0  0  0  0
  4 20  1  0  0  0  0
  5 19  1  0  0  0  0
  5  7  1  0  0  0  0
  6  7  2  0  0  0  0
  6 12  1  0  0  0  0
  7  8  1  0  0  0  0
  8  9  1  0  0  0  0
  8 10  2  0  0  0  0
 10 11  1  0  0  0  0
 11 12  2  0  0  0  0
 14 17  1  0  0  0  0
 15 23  1  0  0  0  0
 15 16  1  0  0  0  0
 16 19  1  0  0  0  0
 19 22  1  0  0  0  0
 22  2  1  1  0  0  0
 22 23  1  0  0  0  0
 23 24  1  6  0  0  0
 24 25  1  0  0  0  0
 25 26  1  0  0  0  0
M  CHG  1  18  -1
M  END
>  <CHROM.1>
-90.35720895,-44.98447173,83.72509956,46.03732089,177.94638803,-60.63491882
23.63371615,41.17440784,66.61473208,2.89551292,0.15726378,2.99559383

>  <Name>
ligand

>  <RI>
0

>  <Rbt.Current_Directory>
/home/itssahil/PROJECTS/Mol_Feturizer/New_Systems/rnas/2HOL

>  <Rbt.Executable>
rbdock ($Id: //depot/dev/client3/rdock/2013.1/src/exe/rbdock.cxx#4 $)

>  <Rbt.Library>
libRbt.so (2013.1, Build901 2013/11/27)

>  <Rbt.Parameter_File>
/export/apps/rDock/src/rDock_2013.1_src/data/scripts/dock_solv.prm

>  <Rbt.Receptor>
prm/pocket_docking_7.prm

>  <SCORE>
-17.8526

>  <SCORE.INTER>
-14.1859

>  <SCORE.INTER.CONST>
1

>  <SCORE.INTER.POLAR>
0

>  <SCORE.INTER.ROT>
6

>  <SCORE.INTER.SOLV>
13.1811

>  <SCORE.INTER.VDW>
-21.451

>  <SCORE.INTER.norm>
-0.545612

>  <SCORE.INTRA>
-3.66664

>  <SCORE.INTRA.DIHEDRAL>
-3.66927

>  <SCORE.INTRA.DIHEDRAL.0>
9.33621

>  <SCORE.INTRA.POLAR>
0

>  <SCORE.INTRA.POLAR.0>
0

>  <SCORE.INTRA.REPUL>
0

>  <SCORE.INTRA.REPUL.0>
0

>  <SCORE.INTRA.SOLV>
-0.240885

>  <SCORE.INTRA.SOLV.lig_0>
-65.9238

>  <SCORE.INTRA.VDW>
-1.71157

>  <SCORE.INTRA.VDW.0>
-0.405582

>  <SCORE.INTRA.norm>
-0.141025

>  <SCORE.RESTR>
0

>  <SCORE.RESTR.CAVITY>
0

>  <SCORE.RESTR.norm>
0

>  <SCORE.SYSTEM>
0

>  <SCORE.SYSTEM.CONST>
0

>  <SCORE.SYSTEM.DIHEDRAL>
0

>  <SCORE.SYSTEM.SOLV>
0

>  <SCORE.SYSTEM.norm>
0

>  <SCORE.heavy>
26

>  <SCORE.norm>
-0.686637

>  <RMSD>
3.750

$$$$
ligand
 OpenBabel11021811443D
libRbt.so/2013.1/901 2013/11/27
 26 28  0  0  0  0  0  0  0  0999 V2000
   22.3439   45.4745   66.9479 C   0  0  0  0  0  0  0  0  0  0  0  0
   22.0721   39.5338   64.6938 C   0  0  0  0  0  0  0  0  0  0  0  0
   26.7667   39.7244   66.6776 P   0  0  1  0  0  0  0  0  0  0  0  0
   26.5506   42.2934   66.8774 P   0  0  1  0  0  0  0  0  0  0  0  0
   19.9088   40.3725   66.2705 C   0  0  0  0  0  0  0  0  0  0  0  0
   21.7259   41.8601   67.1632 C   0  0  0  0  0  0  0  0  0  0  0  0
   20.5522   41.7236   66.4491 C   0  0  0  0  0  0  0  0  0  0  0  0
   19.9766   42.8689   65.8963 C   0  0  0  0  0  0  0  0  0  0  0  0
   18.7977   42.7853   65.1707 N   0  0  0  0  0  0  0  0  0  0  0  0
   20.5727   44.0432   66.0807 N   0  0  0  0  0  0  0  0  0  0  0  0
   21.6949   44.1273   66.7653 C   0  0  0  0  0  0  0  0  0  0  0  0
   22.2638   43.0647   67.3003 N   0  0  0  0  0  0  0  0  0  0  0  0
   27.7733   39.1343   65.7664 O   0  0  0  0  0  0  0  0  0  0  0  0
   27.7571   41.9101   67.7637 O   0  0  0  0  0  0  0  0  0  0  0  0
   21.8605   37.6682   68.1314 S   0  0  0  0  0  0  0  0  0  0  0  0
   20.5689   38.8188   67.9724 C   0  0  0  0  0  0  0  0  0  0  0  0
   27.4750   40.1486   68.0582 O   0  0  0  0  0  0  0  0  0  0  0  0
   26.9584   43.5143   65.9113 O   0  5  0  0  0  0  0  0  0  0  0  0
   20.8023   39.3335   66.7873 N   0  0  0  0  0  0  0  0  0  0  0  0
   26.1151   41.0248   65.9864 O   0  0  0  0  0  0  0  0  0  0  0  0
   25.3688   42.7213   67.7763 O   0  0  0  0  0  0  0  0  0  0  0  0
   21.8181   38.9338   66.0537 C   0  0  2  0  0  0  0  0  0  0  0  0
   22.6378   37.9734   66.5519 C   0  0  2  0  0  0  0  0  0  0  0  0
   23.8599   37.3388   65.9416 C   0  0  0  0  0  0  0  0  0  0  0  0
   24.9416   38.4021   65.7375 C   0  0  0  0  0  0  0  0  0  0  0  0
   25.6121   38.6423   66.9763 O   0  0  0  0  0  0  0  0  0  0  0  0
  1 11  1  0  0  0  0
  3 13  1  6  0  0  0
  3 17  1  0  0  0  0
  3 20  1  0  0  0  0
  3 26  1  0  0  0  0
  4 14  1  0  0  0  0
  4 18  1  6  0  0  0
  4 21  2  0  0  0  0
  4 20  1  0  0  0  0
  5 19  1  0  0  0  0
  5  7  1  0  0  0  0
  6  7  2  0  0  0  0
  6 12  1  0  0  0  0
  7  8  1  0  0  0  0
  8  9  1  0  0  0  0
  8 10  2  0  0  0  0
 10 11  1  0  0  0  0
 11 12  2  0  0  0  0
 14 17  1  0  0  0  0
 15 23  1  0  0  0  0
 15 16  1  0  0  0  0
 16 19  1  0  0  0  0
 19 22  1  0  0  0  0
 22  2  1  1  0  0  0
 22 23  1  0  0  0  0
 23 24  1  6  0  0  0
 24 25  1  0  0  0  0
 25 26  1  0  0  0  0
M  CHG  1  18  -1
M  END
>  <CHROM.1>
101.03773410,-7.59241281,-117.09717996,80.09779435,177.92959283,-65.24445853
23.71915634,40.78188478,66.68676385,-3.00602191,0.05084169,3.10603010

>  <Name>
ligand

>  <RI>
0

>  <Rbt.Current_Directory>
/home/itssahil/PROJECTS/Mol_Feturizer/New_Systems/rnas/2HOL

>  <Rbt.Executable>
rbdock ($Id: //depot/dev/client3/rdock/2013.1/src/exe/rbdock.cxx#4 $)

>  <Rbt.Library>
libRbt.so (2013.1, Build901 2013/11/27)

>  <Rbt.Parameter_File>
/export/apps/rDock/src/rDock_2013.1_src/data/scripts/dock_solv.prm

>  <Rbt.Receptor>
prm/pocket_docking_4.prm

>  <SCORE>
-14.4096

>  <SCORE.INTER>
-11.3648

>  <SCORE.INTER.CONST>
1

>  <SCORE.INTER.POLAR>
0

>  <SCORE.INTER.ROT>
6

>  <SCORE.INTER.SOLV>
17.436

>  <SCORE.INTER.VDW>
-20.9885

>  <SCORE.INTER.norm>
-0.437107

>  <SCORE.INTRA>
-3.04481

>  <SCORE.INTRA.DIHEDRAL>
-3.30645

>  <SCORE.INTRA.DIHEDRAL.0>
9.33621

>  <SCORE.INTRA.POLAR>
0

>  <SCORE.INTRA.POLAR.0>
0

>  <SCORE.INTRA.REPUL>
0

>  <SCORE.INTRA.REPUL.0>
0

>  <SCORE.INTRA.SOLV>
0.425365

>  <SCORE.INTRA.SOLV.lig_0>
-65.9238

>  <SCORE.INTRA.VDW>
-1.60427

>  <SCORE.INTRA.VDW.0>
-0.405582

>  <SCORE.INTRA.norm>
-0.117108

>  <SCORE.RESTR>
0

>  <SCORE.RESTR.CAVITY>
0

>  <SCORE.RESTR.norm>
0

>  <SCORE.SYSTEM>
0

>  <SCORE.SYSTEM.CONST>
0

>  <SCORE.SYSTEM.DIHEDRAL>
0

>  <SCORE.SYSTEM.SOLV>
0

>  <SCORE.SYSTEM.norm>
0

>  <SCORE.heavy>
26

>  <SCORE.norm>
-0.554215

>  <RMSD>
3.751

$$$$
ligand
 OpenBabel11021811443D
libRbt.so/2013.1/901 2013/11/27
 26 28  0  0  0  0  0  0  0  0999 V2000
   17.3062   40.7481   64.4930 C   0  0  0  0  0  0  0  0  0  0  0  0
   24.7917   42.6305   67.9886 C   0  0  0  0  0  0  0  0  0  0  0  0
   29.5583   43.5921   66.3372 P   0  0  1  0  0  0  0  0  0  0  0  0
   28.5421   45.2721   64.6546 P   0  0  1  0  0  0  0  0  0  0  0  0
   22.1926   42.2302   67.0119 C   0  0  0  0  0  0  0  0  0  0  0  0
   20.3449   40.5916   66.5506 C   0  0  0  0  0  0  0  0  0  0  0  0
   20.8992   41.8392   66.3445 C   0  0  0  0  0  0  0  0  0  0  0  0
   20.2308   42.7296   65.5023 C   0  0  0  0  0  0  0  0  0  0  0  0
   20.7463   43.9946   65.2623 N   0  0  0  0  0  0  0  0  0  0  0  0
   19.0947   42.3447   64.9285 N   0  0  0  0  0  0  0  0  0  0  0  0
   18.5987   41.1460   65.1567 C   0  0  0  0  0  0  0  0  0  0  0  0
   19.2055   40.2817   65.9464 N   0  0  0  0  0  0  0  0  0  0  0  0
   31.0001   43.6547   66.6675 O   0  0  0  0  0  0  0  0  0  0  0  0
   28.6411   46.0372   65.9935 O   0  0  0  0  0  0  0  0  0  0  0  0
   24.5857   39.8134   65.2750 S   0  0  0  0  0  0  0  0  0  0  0  0
   23.0195   40.5056   65.5670 C   0  0  0  0  0  0  0  0  0  0  0  0
   28.7617   44.6935   67.1974 O   0  0  0  0  0  0  0  0  0  0  0  0
   29.1691   46.1688   63.4743 O   0  5  0  0  0  0  0  0  0  0  0  0
   23.2831   41.4073   66.4842 N   0  0  0  0  0  0  0  0  0  0  0  0
   29.3548   43.8866   64.7670 O   0  0  0  0  0  0  0  0  0  0  0  0
   27.0583   44.9748   64.3419 O   0  0  0  0  0  0  0  0  0  0  0  0
   24.5048   41.5897   66.9359 C   0  0  2  0  0  0  0  0  0  0  0  0
   25.5012   40.8139   66.4381 C   0  0  2  0  0  0  0  0  0  0  0  0
   26.9703   40.8025   66.7707 C   0  0  0  0  0  0  0  0  0  0  0  0
   27.6015   42.1311   66.3485 C   0  0  0  0  0  0  0  0  0  0  0  0
   28.9905   42.1256   66.6842 O   0  0  0  0  0  0  0  0  0  0  0  0
  1 11  1  0  0  0  0
  3 13  1  1  0  0  0
  3 17  1  0  0  0  0
  3 20  1  0  0  0  0
  3 26  1  0  0  0  0
  4 14  1  0  0  0  0
  4 18  1  6  0  0  0
  4 21  2  0  0  0  0
  4 20  1  0  0  0  0
  5 19  1  0  0  0  0
  5  7  1  0  0  0  0
  6  7  2  0  0  0  0
  6 12  1  0  0  0  0
  7  8  1  0  0  0  0
  8  9  1  0  0  0  0
  8 10  2  0  0  0  0
 10 11  1  0  0  0  0
 11 12  2  0  0  0  0
 14 17  1  0  0  0  0
 15 23  1  0  0  0  0
 15 16  1  0  0  0  0
 16 19  1  0  0  0  0
 19 22  1  0  0  0  0
 22  2  1  1  0  0  0
 22 23  1  0  0  0  0
 23 24  1  6  0  0  0
 24 25  1  0  0  0  0
 25 26  1  0  0  0  0
M  CHG  1  18  -1
M  END
>  <CHROM.1>
0.12141962,66.23140952,114.80302507,179.09944943,-175.00050769,179.83253211
25.19272361,42.67679955,65.81664311,2.85549872,0.13848827,2.72963774

>  <Name>
ligand

>  <RI>
0

>  <Rbt.Current_Directory>
/home/itssahil/PROJECTS/Mol_Feturizer/New_Systems/rnas/2HOL

>  <Rbt.Executable>
rbdock ($Id: //depot/dev/client3/rdock/2013.1/src/exe/rbdock.cxx#4 $)

>  <Rbt.Library>
libRbt.so (2013.1, Build901 2013/11/27)

>  <Rbt.Parameter_File>
/export/apps/rDock/src/rDock_2013.1_src/data/scripts/dock_solv.prm

>  <Rbt.Receptor>
prm/pocket_docking_8.prm

>  <SCORE>
-17.689

>  <SCORE.INTER>
-15.5497

>  <SCORE.INTER.CONST>
1

>  <SCORE.INTER.POLAR>
0

>  <SCORE.INTER.ROT>
6

>  <SCORE.INTER.SOLV>
11.7381

>  <SCORE.INTER.VDW>
-21.8792

>  <SCORE.INTER.norm>
-0.598066

>  <SCORE.INTRA>
-2.13926

>  <SCORE.INTRA.DIHEDRAL>
-4.64232

>  <SCORE.INTRA.DIHEDRAL.0>
9.33621

>  <SCORE.INTRA.POLAR>
0

>  <SCORE.INTRA.POLAR.0>
0

>  <SCORE.INTRA.REPUL>
0

>  <SCORE.INTRA.REPUL.0>
0

>  <SCORE.INTRA.SOLV>
0.245492

>  <SCORE.INTRA.SOLV.lig_0>
-65.9238

>  <SCORE.INTRA.VDW>
0.0591552

>  <SCORE.INTRA.VDW.0>
-0.405582

>  <SCORE.INTRA.norm>
-0.0822792

>  <SCORE.RESTR>
0

>  <SCORE.RESTR.CAVITY>
0

>  <SCORE.RESTR.norm>
0

>  <SCORE.SYSTEM>
0

>  <SCORE.SYSTEM.CONST>
0

>  <SCORE.SYSTEM.DIHEDRAL>
0

>  <SCORE.SYSTEM.SOLV>
0

>  <SCORE.SYSTEM.norm>
0

>  <SCORE.heavy>
26

>  <SCORE.norm>
-0.680345

>  <RMSD>
3.787

$$$$
ligand
 OpenBabel11021811443D
libRbt.so/2013.1/901 2013/11/27
 26 28  0  0  0  0  0  0  0  0999 V2000
   19.7261   44.9705   65.9842 C   0  0  0  0  0  0  0  0  0  0  0  0
   20.9625   38.7343   68.0228 C   0  0  0  0  0  0  0  0  0  0  0  0
   26.8632   38.8944   66.1215 P   0  0  1  0  0  0  0  0  0  0  0  0
   25.9725   41.2099   65.3921 P   0  0  1  0  0  0  0  0  0  0  0  0
   19.8878   39.3002   65.4941 C   0  0  0  0  0  0  0  0  0  0  0  0
   20.8883   41.4929   66.2032 C   0  0  0  0  0  0  0  0  0  0  0  0
   19.8436   40.8011   65.6232 C   0  0  0  0  0  0  0  0  0  0  0  0
   18.7455   41.5272   65.1591 C   0  0  0  0  0  0  0  0  0  0  0  0
   17.6704   40.8793   64.5692 N   0  0  0  0  0  0  0  0  0  0  0  0
   18.7426   42.8499   65.2962 N   0  0  0  0  0  0  0  0  0  0  0  0
   19.7632   43.4703   65.8517 C   0  0  0  0  0  0  0  0  0  0  0  0
   20.8151   42.8137   66.3004 N   0  0  0  0  0  0  0  0  0  0  0  0
   27.9970   38.2755   65.3983 O   0  0  0  0  0  0  0  0  0  0  0  0
   27.2307   41.5000   66.2412 O   0  0  0  0  0  0  0  0  0  0  0  0
   23.5117   38.1595   65.1051 S   0  0  0  0  0  0  0  0  0  0  0  0
   21.9831   38.7099   64.4905 C   0  0  0  0  0  0  0  0  0  0  0  0
   27.4232   39.9674   67.1811 O   0  0  0  0  0  0  0  0  0  0  0  0
   26.0495   42.0389   64.0147 O   0  5  0  0  0  0  0  0  0  0  0  0
   21.2757   38.8422   65.5886 N   0  0  0  0  0  0  0  0  0  0  0  0
   25.8955   39.6345   65.0682 O   0  0  0  0  0  0  0  0  0  0  0  0
   24.7128   41.6360   66.1791 O   0  0  0  0  0  0  0  0  0  0  0  0
   21.7875   38.5760   66.7706 C   0  0  2  0  0  0  0  0  0  0  0  0
   23.0739   38.1480   66.8372 C   0  0  2  0  0  0  0  0  0  0  0  0
   23.9027   37.7720   68.0374 C   0  0  0  0  0  0  0  0  0  0  0  0
   25.2881   38.4123   67.9243 C   0  0  0  0  0  0  0  0  0  0  0  0
   26.0343   37.7536   66.8990 O   0  0  0  0  0  0  0  0  0  0  0  0
  1 11  1  0  0  0  0
  3 13  1  6  0  0  0
  3 17  1  0  0  0  0
  3 20  1  0  0  0  0
  3 26  1  0  0  0  0
  4 14  1  0  0  0  0
  4 18  1  6  0  0  0
  4 21  2  0  0  0  0
  4 20  1  0  0  0  0
  5 19  1  0  0  0  0
  5  7  1  0  0  0  0
  6  7  2  0  0  0  0
  6 12  1  0  0  0  0
  7  8  1  0  0  0  0
  8  9  1  0  0  0  0
  8 10  2  0  0  0  0
 10 11  1  0  0  0  0
 11 12  2  0  0  0  0
 14 17  1  0  0  0  0
 15 23  1  0  0  0  0
 15 16  1  0  0  0  0
 16 19  1  0  0  0  0
 19 22  1  0  0  0  0
 22  2  1  6  0  0  0
 22 23  1  0  0  0  0
 23 24  1  1  0  0  0
 24 25  1  0  0  0  0
 25 26  1  0  0  0  0
M  CHG  1  18  -1
M  END
>  <CHROM.1>
-91.73727346,-20.39699923,45.24739111,-71.58152024,141.03546958,159.76268230
23.40808008,40.13782181,65.93870798,-2.81178186,-0.00156791,2.93748170

>  <Name>
ligand

>  <RI>
0

>  <Rbt.Current_Directory>
/home/itssahil/PROJECTS/Mol_Feturizer/New_Systems/rnas/2HOL

>  <Rbt.Executable>
rbdock ($Id: //depot/dev/client3/rdock/2013.1/src/exe/rbdock.cxx#4 $)

>  <Rbt.Library>
libRbt.so (2013.1, Build901 2013/11/27)

>  <Rbt.Parameter_File>
/export/apps/rDock/src/rDock_2013.1_src/data/scripts/dock_solv.prm

>  <Rbt.Receptor>
prm/pocket_docking_3.prm

>  <SCORE>
-16.2932

>  <SCORE.INTER>
-15.4255

>  <SCORE.INTER.CONST>
1

>  <SCORE.INTER.POLAR>
0

>  <SCORE.INTER.ROT>
6

>  <SCORE.INTER.SOLV>
15.7961

>  <SCORE.INTER.VDW>
-23.149

>  <SCORE.INTER.norm>
-0.593288

>  <SCORE.INTRA>
-1.07114

>  <SCORE.INTRA.DIHEDRAL>
2.07798

>  <SCORE.INTRA.DIHEDRAL.0>
9.33621

>  <SCORE.INTRA.POLAR>
0

>  <SCORE.INTRA.POLAR.0>
0

>  <SCORE.INTRA.REPUL>
0

>  <SCORE.INTRA.REPUL.0>
0

>  <SCORE.INTRA.SOLV>
0.90573

>  <SCORE.INTRA.SOLV.lig_0>
-65.9238

>  <SCORE.INTRA.VDW>
-2.563

>  <SCORE.INTRA.VDW.0>
-0.405582

>  <SCORE.INTRA.norm>
-0.0411977

>  <SCORE.RESTR>
0.203381

>  <SCORE.RESTR.CAVITY>
0.203381

>  <SCORE.RESTR.norm>
0.00782236

>  <SCORE.SYSTEM>
0

>  <SCORE.SYSTEM.CONST>
0

>  <SCORE.SYSTEM.DIHEDRAL>
0

>  <SCORE.SYSTEM.SOLV>
0

>  <SCORE.SYSTEM.norm>
0

>  <SCORE.heavy>
26

>  <SCORE.norm>
-0.626663

>  <RMSD>
3.834

$$$$
ligand
 OpenBabel11021811443D
libRbt.so/2013.1/901 2013/11/27
 26 28  0  0  0  0  0  0  0  0999 V2000
   16.9134   40.7004   63.9619 C   0  0  0  0  0  0  0  0  0  0  0  0
   23.7015   41.9130   65.3035 C   0  0  0  0  0  0  0  0  0  0  0  0
   27.3714   43.1959   66.8524 P   0  0  1  0  0  0  0  0  0  0  0  0
   27.4940   41.0474   68.2862 P   0  0  1  0  0  0  0  0  0  0  0  0
   21.5296   41.8809   67.0788 C   0  0  0  0  0  0  0  0  0  0  0  0
   19.4642   42.5730   65.8270 C   0  0  0  0  0  0  0  0  0  0  0  0
   20.3081   41.5669   66.2539 C   0  0  0  0  0  0  0  0  0  0  0  0
   20.0011   40.2515   65.9016 C   0  0  0  0  0  0  0  0  0  0  0  0
   20.8165   39.2050   66.3060 N   0  0  0  0  0  0  0  0  0  0  0  0
   18.9114   40.0157   65.1770 N   0  0  0  0  0  0  0  0  0  0  0  0
   18.1362   41.0066   64.7867 C   0  0  0  0  0  0  0  0  0  0  0  0
   18.3981   42.2597   65.1029 N   0  0  0  0  0  0  0  0  0  0  0  0
   28.5264   44.1207   66.8033 O   0  0  0  0  0  0  0  0  0  0  0  0
   28.2515   40.7165   66.9805 O   0  0  0  0  0  0  0  0  0  0  0  0
   22.5269   45.4969   66.3609 S   0  0  0  0  0  0  0  0  0  0  0  0
   21.5546   44.2774   67.1257 C   0  0  0  0  0  0  0  0  0  0  0  0
   27.6210   41.9704   65.8406 O   0  0  0  0  0  0  0  0  0  0  0  0
   28.3884   40.6143   69.5522 O   0  5  0  0  0  0  0  0  0  0  0  0
   22.0842   43.1700   66.6598 N   0  0  0  0  0  0  0  0  0  0  0  0
   27.2015   42.6295   68.3504 O   0  0  0  0  0  0  0  0  0  0  0  0
   26.1561   40.2749   68.3132 O   0  0  0  0  0  0  0  0  0  0  0  0
   23.1033   43.1937   65.8288 C   0  0  2  0  0  0  0  0  0  0  0  0
   23.6002   44.3982   65.4483 C   0  0  2  0  0  0  0  0  0  0  0  0
   24.7412   44.7192   64.5189 C   0  0  0  0  0  0  0  0  0  0  0  0
   26.0069   44.0025   64.9948 C   0  0  0  0  0  0  0  0  0  0  0  0
   26.0338   43.9831   66.4234 O   0  0  0  0  0  0  0  0  0  0  0  0
  1 11  1  0  0  0  0
  3 13  1  6  0  0  0
  3 17  1  0  0  0  0
  3 20  1  0  0  0  0
  3 26  1  0  0  0  0
  4 14  1  0  0  0  0
  4 18  1  1  0  0  0
  4 21  2  0  0  0  0
  4 20  1  0  0  0  0
  5 19  1  0  0  0  0
  5  7  1  0  0  0  0
  6  7  2  0  0  0  0
  6 12  1  0  0  0  0
  7  8  1  0  0  0  0
  8  9  1  0  0  0  0
  8 10  2  0  0  0  0
 10 11  1  0  0  0  0
 11 12  2  0  0  0  0
 14 17  1  0  0  0  0
 15 23  1  0  0  0  0
 15 16  1  0  0  0  0
 16 19  1  0  0  0  0
 19 22  1  0  0  0  0
 22  2  1  6  0  0  0
 22 23  1  0  0  0  0
 23 24  1  1  0  0  0
 24 25  1  0  0  0  0
 25 26  1  0  0  0  0
M  CHG  1  18  -1
M  END
>  <CHROM.1>
81.61733633,-34.18048654,124.64678291,-36.20697763,179.02654544,82.14753351
23.90854011,42.38404609,66.45816909,-3.14007893,-0.25257160,-0.29001878

>  <Name>
ligand

>  <RI>
0

>  <Rbt.Current_Directory>
/home/itssahil/PROJECTS/Mol_Feturizer/New_Systems/rnas/2HOL

>  <Rbt.Executable>
rbdock ($Id: //depot/dev/client3/rdock/2013.1/src/exe/rbdock.cxx#4 $)

>  <Rbt.Library>
libRbt.so (2013.1, Build901 2013/11/27)

>  <Rbt.Parameter_File>
/export/apps/rDock/src/rDock_2013.1_src/data/scripts/dock_solv.prm

>  <Rbt.Receptor>
prm/pocket_docking_5.prm

>  <SCORE>
-20.9149

>  <SCORE.INTER>
-19.7653

>  <SCORE.INTER.CONST>
1

>  <SCORE.INTER.POLAR>
0

>  <SCORE.INTER.ROT>
6

>  <SCORE.INTER.SOLV>
10.6781

>  <SCORE.INTER.VDW>
-24.3362

>  <SCORE.INTER.norm>
-0.760204

>  <SCORE.INTRA>
-1.17139

>  <SCORE.INTRA.DIHEDRAL>
-2.15736

>  <SCORE.INTRA.DIHEDRAL.0>
9.33621

>  <SCORE.INTRA.POLAR>
0

>  <SCORE.INTRA.POLAR.0>
0

>  <SCORE.INTRA.REPUL>
0

>  <SCORE.INTRA.REPUL.0>
0

>  <SCORE.INTRA.SOLV>
0.885732

>  <SCORE.INTRA.SOLV.lig_0>
-65.9238

>  <SCORE.INTRA.VDW>
-0.535581

>  <SCORE.INTRA.VDW.0>
-0.405582

>  <SCORE.INTRA.norm>
-0.0450536

>  <SCORE.RESTR>
0.0217499

>  <SCORE.RESTR.CAVITY>
0.0217499

>  <SCORE.RESTR.norm>
0.000836535

>  <SCORE.SYSTEM>
0

>  <SCORE.SYSTEM.CONST>
0

>  <SCORE.SYSTEM.DIHEDRAL>
0

>  <SCORE.SYSTEM.SOLV>
0

>  <SCORE.SYSTEM.norm>
0

>  <SCORE.heavy>
26

>  <SCORE.norm>
-0.804421

>  <RMSD>
3.834

$$$$
ligand
 OpenBabel11021811443D
libRbt.so/2013.1/901 2013/11/27
 26 28  0  0  0  0  0  0  0  0999 V2000
   16.7487   40.6209   63.9170 C   0  0  0  0  0  0  0  0  0  0  0  0
   24.1898   40.9003   67.2756 C   0  0  0  0  0  0  0  0  0  0  0  0
   26.1242   41.7668   63.5179 P   0  0  1  0  0  0  0  0  0  0  0  0
   27.5565   43.5527   64.7203 P   0  0  1  0  0  0  0  0  0  0  0  0
   21.4450   40.3411   67.1240 C   0  0  0  0  0  0  0  0  0  0  0  0
   19.2819   39.3874   66.2736 C   0  0  0  0  0  0  0  0  0  0  0  0
   20.2024   40.4164   66.2746 C   0  0  0  0  0  0  0  0  0  0  0  0
   19.9527   41.5288   65.4690 C   0  0  0  0  0  0  0  0  0  0  0  0
   20.8465   42.5887   65.4341 N   0  0  0  0  0  0  0  0  0  0  0  0
   18.8472   41.5548   64.7304 N   0  0  0  0  0  0  0  0  0  0  0  0
   17.9931   40.5526   64.7634 C   0  0  0  0  0  0  0  0  0  0  0  0
   18.1997   39.4877   65.5133 N   0  0  0  0  0  0  0  0  0  0  0  0
   25.1703   42.1712   62.4605 O   0  0  0  0  0  0  0  0  0  0  0  0
   28.2706   43.2870   63.3759 O   0  0  0  0  0  0  0  0  0  0  0  0
   23.4030   37.5616   65.3845 S   0  0  0  0  0  0  0  0  0  0  0  0
   21.9391   38.3279   65.9201 C   0  0  0  0  0  0  0  0  0  0  0  0
   27.6059   41.6748   62.8982 O   0  0  0  0  0  0  0  0  0  0  0  0
   27.3902   45.1387   64.9376 O   0  5  0  0  0  0  0  0  0  0  0  0
   22.3942   39.4039   66.5194 N   0  0  0  0  0  0  0  0  0  0  0  0
   26.1045   42.8570   64.7031 O   0  0  0  0  0  0  0  0  0  0  0  0
   28.3974   42.9609   65.8738 O   0  0  0  0  0  0  0  0  0  0  0  0
   23.6827   39.6595   66.5849 C   0  0  2  0  0  0  0  0  0  0  0  0
   24.5470   38.7764   66.0229 C   0  0  2  0  0  0  0  0  0  0  0  0
   26.0512   38.8126   65.9534 C   0  0  0  0  0  0  0  0  0  0  0  0
   26.5014   40.1034   65.2655 C   0  0  0  0  0  0  0  0  0  0  0  0
   25.6975   40.3297   64.1059 O   0  0  0  0  0  0  0  0  0  0  0  0
  1 11  1  0  0  0  0
  3 13  1  6  0  0  0
  3 17  1  0  0  0  0
  3 20  1  0  0  0  0
  3 26  1  0  0  0  0
  4 14  1  0  0  0  0
  4 18  1  1  0  0  0
  4 21  2  0  0  0  0
  4 20  1  0  0  0  0
  5 19  1  0  0  0  0
  5  7  1  0  0  0  0
  6  7  2  0  0  0  0
  6 12  1  0  0  0  0
  7  8  1  0  0  0  0
  8  9  1  0  0  0  0
  8 10  2  0  0  0  0
 10 11  1  0  0  0  0
 11 12  2  0  0  0  0
 14 17  1  0  0  0  0
 15 23  1  0  0  0  0
 15 16  1  0  0  0  0
 16 19  1  0  0  0  0
 19 22  1  0  0  0  0
 22  2  1  1  0  0  0
 22 23  1  0  0  0  0
 23 24  1  6  0  0  0
 24 25  1  0  0  0  0
 25 26  1  0  0  0  0
M  CHG  1  18  -1
M  END
>  <CHROM.1>
-36.07503170,74.49970359,122.30358976,-44.67089875,174.54101045,-170.06420168
23.86546978,41.00424490,65.05452447,2.79269805,-0.02078719,2.79558042

>  <Name>
ligand

>  <RI>
0

>  <Rbt.Current_Directory>
/home/itssahil/PROJECTS/Mol_Feturizer/New_Systems/rnas/2HOL

>  <Rbt.Executable>
rbdock ($Id: //depot/dev/client3/rdock/2013.1/src/exe/rbdock.cxx#4 $)

>  <Rbt.Library>
libRbt.so (2013.1, Build901 2013/11/27)

>  <Rbt.Parameter_File>
/export/apps/rDock/src/rDock_2013.1_src/data/scripts/dock_solv.prm

>  <Rbt.Receptor>
prm/pocket_docking_7.prm

>  <SCORE>
-19.972

>  <SCORE.INTER>
-18.138

>  <SCORE.INTER.CONST>
1

>  <SCORE.INTER.POLAR>
0

>  <SCORE.INTER.ROT>
6

>  <SCORE.INTER.SOLV>
12.9415

>  <SCORE.INTER.VDW>
-24.0059

>  <SCORE.INTER.norm>
-0.697617

>  <SCORE.INTRA>
-1.83392

>  <SCORE.INTRA.DIHEDRAL>
-3.62081

>  <SCORE.INTRA.DIHEDRAL.0>
9.33621

>  <SCORE.INTRA.POLAR>
0

>  <SCORE.INTRA.POLAR.0>
0

>  <SCORE.INTRA.REPUL>
0

>  <SCORE.INTRA.REPUL.0>
0

>  <SCORE.INTRA.SOLV>
1.53274

>  <SCORE.INTRA.SOLV.lig_0>
-65.9238

>  <SCORE.INTRA.VDW>
-0.789884

>  <SCORE.INTRA.VDW.0>
-0.405582

>  <SCORE.INTRA.norm>
-0.0705354

>  <SCORE.RESTR>
0

>  <SCORE.RESTR.CAVITY>
0

>  <SCORE.RESTR.norm>
0

>  <SCORE.SYSTEM>
0

>  <SCORE.SYSTEM.CONST>
0

>  <SCORE.SYSTEM.DIHEDRAL>
0

>  <SCORE.SYSTEM.SOLV>
0

>  <SCORE.SYSTEM.norm>
0

>  <SCORE.heavy>
26

>  <SCORE.norm>
-0.768152

>  <RMSD>
3.844

$$$$
ligand
 OpenBabel11021811443D
libRbt.so/2013.1/901 2013/11/27
 26 28  0  0  0  0  0  0  0  0999 V2000
   15.5213   39.4072   63.3779 C   0  0  0  0  0  0  0  0  0  0  0  0
   22.5297   40.3972   67.8984 C   0  0  0  0  0  0  0  0  0  0  0  0
   26.2898   41.1801   65.3057 P   0  0  1  0  0  0  0  0  0  0  0  0
   25.6115   43.1282   66.8650 P   0  0  1  0  0  0  0  0  0  0  0  0
   20.2976   40.6483   66.2179 C   0  0  0  0  0  0  0  0  0  0  0  0
   18.4985   39.0487   65.4991 C   0  0  0  0  0  0  0  0  0  0  0  0
   19.0333   40.3212   65.4656 C   0  0  0  0  0  0  0  0  0  0  0  0
   18.3729   41.2973   64.7175 C   0  0  0  0  0  0  0  0  0  0  0  0
   18.8696   42.5905   64.6512 N   0  0  0  0  0  0  0  0  0  0  0  0
   17.2629   40.9673   64.0639 N   0  0  0  0  0  0  0  0  0  0  0  0
   16.7846   39.7416   64.1273 C   0  0  0  0  0  0  0  0  0  0  0  0
   17.3846   38.7968   64.8247 N   0  0  0  0  0  0  0  0  0  0  0  0
   26.6267   41.4478   63.8892 O   0  0  0  0  0  0  0  0  0  0  0  0
   27.1545   43.1740   66.7938 O   0  0  0  0  0  0  0  0  0  0  0  0
   22.6365   37.9686   64.8272 S   0  0  0  0  0  0  0  0  0  0  0  0
   21.1972   38.9406   64.7963 C   0  0  0  0  0  0  0  0  0  0  0  0
   27.5643   41.5051   66.2319 O   0  0  0  0  0  0  0  0  0  0  0  0
   25.0162   44.5996   66.5989 O   0  5  0  0  0  0  0  0  0  0  0  0
   21.3350   39.6719   65.8781 N   0  0  0  0  0  0  0  0  0  0  0  0
   25.0529   42.1119   65.7479 O   0  0  0  0  0  0  0  0  0  0  0  0
   25.1766   42.6430   68.2661 O   0  0  0  0  0  0  0  0  0  0  0  0
   22.3853   39.5490   66.6600 C   0  0  2  0  0  0  0  0  0  0  0  0
   23.3336   38.6352   66.3310 C   0  0  2  0  0  0  0  0  0  0  0  0
   24.6178   38.2838   67.0354 C   0  0  0  0  0  0  0  0  0  0  0  0
   25.6229   39.4256   66.8680 C   0  0  0  0  0  0  0  0  0  0  0  0
   25.8812   39.6320   65.4778 O   0  0  0  0  0  0  0  0  0  0  0  0
  1 11  1  0  0  0  0
  3 13  1  6  0  0  0
  3 17  1  0  0  0  0
  3 20  1  0  0  0  0
  3 26  1  0  0  0  0
  4 14  1  0  0  0  0
  4 18  1  6  0  0  0
  4 21  2  0  0  0  0
  4 20  1  0  0  0  0
  5 19  1  0  0  0  0
  5  7  1  0  0  0  0
  6  7  2  0  0  0  0
  6 12  1  0  0  0  0
  7  8  1  0  0  0  0
  8  9  1  0  0  0  0
  8 10  2  0  0  0  0
 10 11  1  0  0  0  0
 11 12  2  0  0  0  0
 14 17  1  0  0  0  0
 15 23  1  0  0  0  0
 15 16  1  0  0  0  0
 16 19  1  0  0  0  0
 19 22  1  0  0  0  0
 22  2  1  1  0  0  0
 22 23  1  0  0  0  0
 23 24  1  6  0  0  0
 24 25  1  0  0  0  0
 25 26  1  0  0  0  0
M  CHG  1  18  -1
M  END
>  <CHROM.1>
17.87194877,51.33832464,108.38805245,-59.87748217,152.31951012,177.65176735
22.80776011,40.67639765,65.72645409,2.87947058,0.16894860,-3.01342338

>  <Name>
ligand

>  <RI>
0

>  <Rbt.Current_Directory>
/home/itssahil/PROJECTS/Mol_Feturizer/New_Systems/rnas/2HOL

>  <Rbt.Executable>
rbdock ($Id: //depot/dev/client3/rdock/2013.1/src/exe/rbdock.cxx#4 $)

>  <Rbt.Library>
libRbt.so (2013.1, Build901 2013/11/27)

>  <Rbt.Parameter_File>
/export/apps/rDock/src/rDock_2013.1_src/data/scripts/dock_solv.prm

>  <Rbt.Receptor>
prm/pocket_docking_5.prm

>  <SCORE>
-20.416

>  <SCORE.INTER>
-19.1215

>  <SCORE.INTER.CONST>
1

>  <SCORE.INTER.POLAR>
0

>  <SCORE.INTER.ROT>
6

>  <SCORE.INTER.SOLV>
21.07

>  <SCORE.INTER.VDW>
-27.371

>  <SCORE.INTER.norm>
-0.735444

>  <SCORE.INTRA>
-1.2945

>  <SCORE.INTRA.DIHEDRAL>
-1.56098

>  <SCORE.INTRA.DIHEDRAL.0>
9.33621

>  <SCORE.INTRA.POLAR>
0

>  <SCORE.INTRA.POLAR.0>
0

>  <SCORE.INTRA.REPUL>
0

>  <SCORE.INTRA.REPUL.0>
0

>  <SCORE.INTRA.SOLV>
1.38527

>  <SCORE.INTRA.SOLV.lig_0>
-65.9238

>  <SCORE.INTRA.VDW>
-1.20665

>  <SCORE.INTRA.VDW.0>
-0.405582

>  <SCORE.INTRA.norm>
-0.0497885

>  <SCORE.RESTR>
0

>  <SCORE.RESTR.CAVITY>
0

>  <SCORE.RESTR.norm>
0

>  <SCORE.SYSTEM>
0

>  <SCORE.SYSTEM.CONST>
0

>  <SCORE.SYSTEM.DIHEDRAL>
0

>  <SCORE.SYSTEM.SOLV>
0

>  <SCORE.SYSTEM.norm>
0

>  <SCORE.heavy>
26

>  <SCORE.norm>
-0.785233

>  <RMSD>
3.854

$$$$
ligand
 OpenBabel11021811443D
libRbt.so/2013.1/901 2013/11/27
 26 28  0  0  0  0  0  0  0  0999 V2000
   21.4250   45.1186   66.2012 C   0  0  0  0  0  0  0  0  0  0  0  0
   21.8226   38.9893   68.7526 C   0  0  0  0  0  0  0  0  0  0  0  0
   25.6449   40.4694   67.3861 P   0  0  1  0  0  0  0  0  0  0  0  0
   26.3717   39.9613   64.9571 P   0  0  1  0  0  0  0  0  0  0  0  0
   20.3019   39.5428   66.4612 C   0  0  0  0  0  0  0  0  0  0  0  0
   21.6846   41.5551   67.0533 C   0  0  0  0  0  0  0  0  0  0  0  0
   20.5979   41.0188   66.3916 C   0  0  0  0  0  0  0  0  0  0  0  0
   19.7805   41.8787   65.6560 C   0  0  0  0  0  0  0  0  0  0  0  0
   18.6764   41.3897   64.9738 N   0  0  0  0  0  0  0  0  0  0  0  0
   20.0727   43.1755   65.6236 N   0  0  0  0  0  0  0  0  0  0  0  0
   21.1227   43.6442   66.2662 C   0  0  0  0  0  0  0  0  0  0  0  0
   21.9144   42.8587   66.9700 N   0  0  0  0  0  0  0  0  0  0  0  0
   25.7096   41.8546   67.9043 O   0  0  0  0  0  0  0  0  0  0  0  0
   24.9371   40.5254   64.8496 O   0  0  0  0  0  0  0  0  0  0  0  0
   23.4130   37.5619   65.4700 S   0  0  0  0  0  0  0  0  0  0  0  0
   21.9249   38.3895   65.1264 C   0  0  0  0  0  0  0  0  0  0  0  0
   24.3000   40.2806   66.5239 O   0  0  0  0  0  0  0  0  0  0  0  0
   27.3288   40.7203   63.9092 O   0  5  0  0  0  0  0  0  0  0  0  0
   21.5484   38.7871   66.3197 N   0  0  0  0  0  0  0  0  0  0  0  0
   26.9259   40.1861   66.4521 O   0  0  0  0  0  0  0  0  0  0  0  0
   26.3542   38.4498   64.6363 O   0  0  0  0  0  0  0  0  0  0  0  0
   22.2679   38.5246   67.3889 C   0  0  2  0  0  0  0  0  0  0  0  0
   23.4175   37.8188   67.2381 C   0  0  2  0  0  0  0  0  0  0  0  0
   24.4198   37.3783   68.2725 C   0  0  0  0  0  0  0  0  0  0  0  0
   25.7392   38.1233   68.0573 C   0  0  0  0  0  0  0  0  0  0  0  0
   25.6426   39.4337   68.6192 O   0  0  0  0  0  0  0  0  0  0  0  0
  1 11  1  0  0  0  0
  3 13  1  1  0  0  0
  3 17  1  0  0  0  0
  3 20  1  0  0  0  0
  3 26  1  0  0  0  0
  4 14  1  0  0  0  0
  4 18  1  6  0  0  0
  4 21  2  0  0  0  0
  4 20  1  0  0  0  0
  5 19  1  0  0  0  0
  5  7  1  0  0  0  0
  6  7  2  0  0  0  0
  6 12  1  0  0  0  0
  7  8  1  0  0  0  0
  8  9  1  0  0  0  0
  8 10  2  0  0  0  0
 10 11  1  0  0  0  0
 11 12  2  0  0  0  0
 14 17  1  0  0  0  0
 15 23  1  0  0  0  0
 15 16  1  0  0  0  0
 16 19  1  0  0  0  0
 19 22  1  0  0  0  0
 22  2  1  1  0  0  0
 22 23  1  0  0  0  0
 23 24  1  6  0  0  0
 24 25  1  0  0  0  0
 25 26  1  0  0  0  0
M  CHG  1  18  -1
M  END
>  <CHROM.1>
-92.46173934,-42.74326951,67.18547241,79.98314322,-111.16152140,-173.29831242
23.57910509,40.17123166,66.37169509,-2.69272383,-0.07033130,2.96309671

>  <Name>
ligand

>  <RI>
0

>  <Rbt.Current_Directory>
/home/itssahil/PROJECTS/Mol_Feturizer/New_Systems/rnas/2HOL

>  <Rbt.Executable>
rbdock ($Id: //depot/dev/client3/rdock/2013.1/src/exe/rbdock.cxx#4 $)

>  <Rbt.Library>
libRbt.so (2013.1, Build901 2013/11/27)

>  <Rbt.Parameter_File>
/export/apps/rDock/src/rDock_2013.1_src/data/scripts/dock_solv.prm

>  <Rbt.Receptor>
prm/pocket_docking_4.prm

>  <SCORE>
-16.0691

>  <SCORE.INTER>
-14.2068

>  <SCORE.INTER.CONST>
1

>  <SCORE.INTER.POLAR>
0

>  <SCORE.INTER.ROT>
6

>  <SCORE.INTER.SOLV>
20.9591

>  <SCORE.INTER.VDW>
-24.0576

>  <SCORE.INTER.norm>
-0.546414

>  <SCORE.INTRA>
-1.86234

>  <SCORE.INTRA.DIHEDRAL>
4.06441

>  <SCORE.INTRA.DIHEDRAL.0>
9.33621

>  <SCORE.INTRA.POLAR>
0

>  <SCORE.INTRA.POLAR.0>
0

>  <SCORE.INTRA.REPUL>
0

>  <SCORE.INTRA.REPUL.0>
0

>  <SCORE.INTRA.SOLV>
1.46116

>  <SCORE.INTRA.SOLV.lig_0>
-65.9238

>  <SCORE.INTRA.VDW>
-4.62512

>  <SCORE.INTRA.VDW.0>
-0.405582

>  <SCORE.INTRA.norm>
-0.0716284

>  <SCORE.RESTR>
0

>  <SCORE.RESTR.CAVITY>
0

>  <SCORE.RESTR.norm>
0

>  <SCORE.SYSTEM>
0

>  <SCORE.SYSTEM.CONST>
0

>  <SCORE.SYSTEM.DIHEDRAL>
0

>  <SCORE.SYSTEM.SOLV>
0

>  <SCORE.SYSTEM.norm>
0

>  <SCORE.heavy>
26

>  <SCORE.norm>
-0.618043

>  <RMSD>
3.857

$$$$
ligand
 OpenBabel11021811443D
libRbt.so/2013.1/901 2013/11/27
 26 28  0  0  0  0  0  0  0  0999 V2000
   21.1347   45.1488   66.2382 C   0  0  0  0  0  0  0  0  0  0  0  0
   22.4629   39.1504   65.2800 C   0  0  0  0  0  0  0  0  0  0  0  0
   25.8402   40.0136   65.6846 P   0  0  1  0  0  0  0  0  0  0  0  0
   26.6656   42.1361   64.4597 P   0  0  1  0  0  0  0  0  0  0  0  0
   19.8732   39.5966   66.2619 C   0  0  0  0  0  0  0  0  0  0  0  0
   21.2397   41.5622   67.0241 C   0  0  0  0  0  0  0  0  0  0  0  0
   20.2060   41.0664   66.2547 C   0  0  0  0  0  0  0  0  0  0  0  0
   19.4770   41.9613   65.4696 C   0  0  0  0  0  0  0  0  0  0  0  0
   18.4288   41.5136   64.6794 N   0  0  0  0  0  0  0  0  0  0  0  0
   19.7988   43.2513   65.4949 N   0  0  0  0  0  0  0  0  0  0  0  0
   20.7962   43.6808   66.2403 C   0  0  0  0  0  0  0  0  0  0  0  0
   21.5040   42.8616   66.9932 N   0  0  0  0  0  0  0  0  0  0  0  0
   25.6572   38.7499   64.9356 O   0  0  0  0  0  0  0  0  0  0  0  0
   27.9334   41.2936   64.7263 O   0  0  0  0  0  0  0  0  0  0  0  0
   21.9115   37.7011   68.8769 S   0  0  0  0  0  0  0  0  0  0  0  0
   20.4659   38.4651   68.2903 C   0  0  0  0  0  0  0  0  0  0  0  0
   27.3941   40.1964   66.0585 O   0  0  0  0  0  0  0  0  0  0  0  0
   26.6424   42.6013   62.9191 O   0  5  0  0  0  0  0  0  0  0  0  0
   20.8368   38.8815   67.1017 N   0  0  0  0  0  0  0  0  0  0  0  0
   25.3576   41.2512   64.7741 O   0  0  0  0  0  0  0  0  0  0  0  0
   26.6761   43.3823   65.3732 O   0  0  0  0  0  0  0  0  0  0  0  0
   22.0525   38.6670   66.6481 C   0  0  2  0  0  0  0  0  0  0  0  0
   22.9326   38.0068   67.4431 C   0  0  2  0  0  0  0  0  0  0  0  0
   24.3689   37.6326   67.1865 C   0  0  0  0  0  0  0  0  0  0  0  0
   25.2874   38.7452   67.6968 C   0  0  0  0  0  0  0  0  0  0  0  0
   24.9641   39.9698   67.0351 O   0  0  0  0  0  0  0  0  0  0  0  0
  1 11  1  0  0  0  0
  3 13  1  6  0  0  0
  3 17  1  0  0  0  0
  3 20  1  0  0  0  0
  3 26  1  0  0  0  0
  4 14  1  0  0  0  0
  4 18  1  6  0  0  0
  4 21  2  0  0  0  0
  4 20  1  0  0  0  0
  5 19  1  0  0  0  0
  5  7  1  0  0  0  0
  6  7  2  0  0  0  0
  6 12  1  0  0  0  0
  7  8  1  0  0  0  0
  8  9  1  0  0  0  0
  8 10  2  0  0  0  0
 10 11  1  0  0  0  0
 11 12  2  0  0  0  0
 14 17  1  0  0  0  0
 15 23  1  0  0  0  0
 15 16  1  0  0  0  0
 16 19  1  0  0  0  0
 19 22  1  0  0  0  0
 22  2  1  1  0  0  0
 22 23  1  0  0  0  0
 23 24  1  6  0  0  0
 24 25  1  0  0  0  0
 25 26  1  0  0  0  0
M  CHG  1  18  -1
M  END
>  <CHROM.1>
105.00993757,-3.34788451,-88.87293174,-58.73542533,-88.13068175,51.19445457
23.45349659,40.60315326,66.09815668,2.92357719,-0.20123241,2.68583553

>  <Name>
ligand

>  <RI>
0

>  <Rbt.Current_Directory>
/home/itssahil/PROJECTS/Mol_Feturizer/New_Systems/rnas/2HOL

>  <Rbt.Executable>
rbdock ($Id: //depot/dev/client3/rdock/2013.1/src/exe/rbdock.cxx#4 $)

>  <Rbt.Library>
libRbt.so (2013.1, Build901 2013/11/27)

>  <Rbt.Parameter_File>
/export/apps/rDock/src/rDock_2013.1_src/data/scripts/dock_solv.prm

>  <Rbt.Receptor>
prm/pocket_docking_5.prm

>  <SCORE>
-14.42

>  <SCORE.INTER>
-13.6747

>  <SCORE.INTER.CONST>
1

>  <SCORE.INTER.POLAR>
0

>  <SCORE.INTER.ROT>
6

>  <SCORE.INTER.SOLV>
16.2782

>  <SCORE.INTER.VDW>
-22.1425

>  <SCORE.INTER.norm>
-0.525949

>  <SCORE.INTRA>
-0.745326

>  <SCORE.INTRA.DIHEDRAL>
-1.06128

>  <SCORE.INTRA.DIHEDRAL.0>
9.33621

>  <SCORE.INTRA.POLAR>
0

>  <SCORE.INTRA.POLAR.0>
0

>  <SCORE.INTRA.REPUL>
0

>  <SCORE.INTRA.REPUL.0>
0

>  <SCORE.INTRA.SOLV>
0.980032

>  <SCORE.INTRA.SOLV.lig_0>
-65.9238

>  <SCORE.INTRA.VDW>
-0.704701

>  <SCORE.INTRA.VDW.0>
-0.405582

>  <SCORE.INTRA.norm>
-0.0286664

>  <SCORE.RESTR>
0

>  <SCORE.RESTR.CAVITY>
0

>  <SCORE.RESTR.norm>
0

>  <SCORE.SYSTEM>
0

>  <SCORE.SYSTEM.CONST>
0

>  <SCORE.SYSTEM.DIHEDRAL>
0

>  <SCORE.SYSTEM.SOLV>
0

>  <SCORE.SYSTEM.norm>
0

>  <SCORE.heavy>
26

>  <SCORE.norm>
-0.554616

>  <RMSD>
3.865

$$$$
ligand
 OpenBabel11021811443D
libRbt.so/2013.1/901 2013/11/27
 26 28  0  0  0  0  0  0  0  0999 V2000
   17.7691   41.0866   64.8370 C   0  0  0  0  0  0  0  0  0  0  0  0
   25.0968   42.7258   68.1928 C   0  0  0  0  0  0  0  0  0  0  0  0
   29.3801   44.1584   65.8438 P   0  0  1  0  0  0  0  0  0  0  0  0
   31.9552   44.1972   65.6108 P   0  0  1  0  0  0  0  0  0  0  0  0
   22.7484   43.1167   66.7090 C   0  0  0  0  0  0  0  0  0  0  0  0
   20.5979   43.3530   65.4319 C   0  0  0  0  0  0  0  0  0  0  0  0
   21.4307   42.5781   66.2143 C   0  0  0  0  0  0  0  0  0  0  0  0
   21.0213   41.2827   66.5352 C   0  0  0  0  0  0  0  0  0  0  0  0
   21.8213   40.4644   67.3186 N   0  0  0  0  0  0  0  0  0  0  0  0
   19.8492   40.8465   66.0833 N   0  0  0  0  0  0  0  0  0  0  0  0
   19.0877   41.6182   65.3353 C   0  0  0  0  0  0  0  0  0  0  0  0
   19.4453   42.8463   65.0146 N   0  0  0  0  0  0  0  0  0  0  0  0
   28.6995   45.1491   66.7081 O   0  0  0  0  0  0  0  0  0  0  0  0
   31.4381   45.3053   64.6659 O   0  0  0  0  0  0  0  0  0  0  0  0
   25.2224   41.0623   64.6490 S   0  0  0  0  0  0  0  0  0  0  0  0
   23.7035   41.8666   64.9004 C   0  0  0  0  0  0  0  0  0  0  0  0
   29.7121   44.8268   64.4187 O   0  0  0  0  0  0  0  0  0  0  0  0
   33.1385   44.7831   66.5311 O   0  5  0  0  0  0  0  0  0  0  0  0
   23.8446   42.3498   66.1130 N   0  0  0  0  0  0  0  0  0  0  0  0
   30.7494   43.6847   66.5469 O   0  0  0  0  0  0  0  0  0  0  0  0
   32.4929   43.0166   64.7714 O   0  0  0  0  0  0  0  0  0  0  0  0
   24.9495   42.1632   66.8016 C   0  0  2  0  0  0  0  0  0  0  0  0
   25.9522   41.4457   66.2340 C   0  0  2  0  0  0  0  0  0  0  0  0
   27.3050   41.0783   66.7853 C   0  0  0  0  0  0  0  0  0  0  0  0
   28.1612   42.3391   66.9245 C   0  0  0  0  0  0  0  0  0  0  0  0
   28.4205   42.8833   65.6288 O   0  0  0  0  0  0  0  0  0  0  0  0
  1 11  1  0  0  0  0
  3 13  1  1  0  0  0
  3 17  1  0  0  0  0
  3 20  1  0  0  0  0
  3 26  1  0  0  0  0
  4 14  1  0  0  0  0
  4 18  1  1  0  0  0
  4 21  2  0  0  0  0
  4 20  1  0  0  0  0
  5 19  1  0  0  0  0
  5  7  1  0  0  0  0
  6  7  2  0  0  0  0
  6 12  1  0  0  0  0
  7  8  1  0  0  0  0
  8  9  1  0  0  0  0
  8 10  2  0  0  0  0
 10 11  1  0  0  0  0
 11 12  2  0  0  0  0
 14 17  1  0  0  0  0
 15 23  1  0  0  0  0
 15 16  1  0  0  0  0
 16 19  1  0  0  0  0
 19 22  1  0  0  0  0
 22  2  1  1  0  0  0
 22 23  1  0  0  0  0
 23 24  1  6  0  0  0
 24 25  1  0  0  0  0
 25 26  1  0  0  0  0
M  CHG  1  18  -1
M  END
>  <CHROM.1>
32.79797388,-115.12370884,112.04241191,-65.16866447,-177.29812496,-59.77596559
26.19668434,42.81929144,65.87180666,2.92933636,0.08458981,2.72804600

>  <Name>
ligand

>  <RI>
0

>  <Rbt.Current_Directory>
/home/itssahil/PROJECTS/Mol_Feturizer/New_Systems/rnas/2HOL

>  <Rbt.Executable>
rbdock ($Id: //depot/dev/client3/rdock/2013.1/src/exe/rbdock.cxx#4 $)

>  <Rbt.Library>
libRbt.so (2013.1, Build901 2013/11/27)

>  <Rbt.Parameter_File>
/export/apps/rDock/src/rDock_2013.1_src/data/scripts/dock_solv.prm

>  <Rbt.Receptor>
prm/pocket_docking_7.prm

>  <SCORE>
-17.546

>  <SCORE.INTER>
-15.0057

>  <SCORE.INTER.CONST>
1

>  <SCORE.INTER.POLAR>
0

>  <SCORE.INTER.ROT>
6

>  <SCORE.INTER.SOLV>
12.0624

>  <SCORE.INTER.VDW>
-21.6246

>  <SCORE.INTER.norm>
-0.57714

>  <SCORE.INTRA>
-2.5403

>  <SCORE.INTRA.DIHEDRAL>
-4.6249

>  <SCORE.INTRA.DIHEDRAL.0>
9.33621

>  <SCORE.INTRA.POLAR>
0

>  <SCORE.INTRA.POLAR.0>
0

>  <SCORE.INTRA.REPUL>
0

>  <SCORE.INTRA.REPUL.0>
0

>  <SCORE.INTRA.SOLV>
2.01788

>  <SCORE.INTRA.SOLV.lig_0>
-65.9238

>  <SCORE.INTRA.VDW>
-1.23679

>  <SCORE.INTRA.VDW.0>
-0.405582

>  <SCORE.INTRA.norm>
-0.0977038

>  <SCORE.RESTR>
0

>  <SCORE.RESTR.CAVITY>
0

>  <SCORE.RESTR.norm>
0

>  <SCORE.SYSTEM>
0

>  <SCORE.SYSTEM.CONST>
0

>  <SCORE.SYSTEM.DIHEDRAL>
0

>  <SCORE.SYSTEM.SOLV>
0

>  <SCORE.SYSTEM.norm>
0

>  <SCORE.heavy>
26

>  <SCORE.norm>
-0.674844

>  <RMSD>
3.873

$$$$
ligand
 OpenBabel11021811443D
libRbt.so/2013.1/901 2013/11/27
 26 28  0  0  0  0  0  0  0  0999 V2000
   21.7339   45.3647   66.4297 C   0  0  0  0  0  0  0  0  0  0  0  0
   22.0142   39.3566   64.8093 C   0  0  0  0  0  0  0  0  0  0  0  0
   27.1421   39.3035   65.4078 P   0  0  1  0  0  0  0  0  0  0  0  0
   26.3779   41.5923   64.4781 P   0  0  1  0  0  0  0  0  0  0  0  0
   19.6876   40.0559   66.2121 C   0  0  0  0  0  0  0  0  0  0  0  0
   21.3625   41.7550   66.9992 C   0  0  0  0  0  0  0  0  0  0  0  0
   20.2281   41.4615   66.2689 C   0  0  0  0  0  0  0  0  0  0  0  0
   19.5946   42.4999   65.5840 C   0  0  0  0  0  0  0  0  0  0  0  0
   18.4518   42.2574   64.8367 N   0  0  0  0  0  0  0  0  0  0  0  0
   20.1001   43.7273   65.6635 N   0  0  0  0  0  0  0  0  0  0  0  0
   21.1878   43.9621   66.3684 C   0  0  0  0  0  0  0  0  0  0  0  0
   21.8095   43.0035   67.0268 N   0  0  0  0  0  0  0  0  0  0  0  0
   28.5273   38.8351   65.1766 O   0  0  0  0  0  0  0  0  0  0  0  0
   27.1591   41.9122   65.7726 O   0  0  0  0  0  0  0  0  0  0  0  0
   21.7733   37.6588   68.3309 S   0  0  0  0  0  0  0  0  0  0  0  0
   20.3890   38.6653   68.0343 C   0  0  0  0  0  0  0  0  0  0  0  0
   27.1216   40.3297   66.6465 O   0  0  0  0  0  0  0  0  0  0  0  0
   26.9079   42.5315   63.2834 O   0  5  0  0  0  0  0  0  0  0  0  0
   20.6438   39.1390   66.8366 N   0  0  0  0  0  0  0  0  0  0  0  0
   26.5998   40.0465   64.0859 O   0  0  0  0  0  0  0  0  0  0  0  0
   24.8727   41.8541   64.7092 O   0  0  0  0  0  0  0  0  0  0  0  0
   21.7364   38.8051   66.1850 C   0  0  2  0  0  0  0  0  0  0  0  0
   22.6128   37.9580   66.7824 C   0  0  2  0  0  0  0  0  0  0  0  0
   23.9254   37.4177   66.2787 C   0  0  0  0  0  0  0  0  0  0  0  0
   24.9158   38.5694   66.0919 C   0  0  0  0  0  0  0  0  0  0  0  0
   26.1964   38.0429   65.7387 O   0  0  0  0  0  0  0  0  0  0  0  0
  1 11  1  0  0  0  0
  3 13  1  6  0  0  0
  3 17  1  0  0  0  0
  3 20  1  0  0  0  0
  3 26  1  0  0  0  0
  4 14  1  0  0  0  0
  4 18  1  6  0  0  0
  4 21  2  0  0  0  0
  4 20  1  0  0  0  0
  5 19  1  0  0  0  0
  5  7  1  0  0  0  0
  6  7  2  0  0  0  0
  6 12  1  0  0  0  0
  7  8  1  0  0  0  0
  8  9  1  0  0  0  0
  8 10  2  0  0  0  0
 10 11  1  0  0  0  0
 11 12  2  0  0  0  0
 14 17  1  0  0  0  0
 15 23  1  0  0  0  0
 15 16  1  0  0  0  0
 16 19  1  0  0  0  0
 19 22  1  0  0  0  0
 22  2  1  1  0  0  0
 22 23  1  0  0  0  0
 23 24  1  6  0  0  0
 24 25  1  0  0  0  0
 25 26  1  0  0  0  0
M  CHG  1  18  -1
M  END
>  <CHROM.1>
104.70586775,-8.67055805,-116.37576304,174.45231288,174.18317196,173.88451075
23.60838303,40.47857927,65.89574062,-3.01553787,-0.24362042,2.83758495

>  <Name>
ligand

>  <RI>
0

>  <Rbt.Current_Directory>
/home/itssahil/PROJECTS/Mol_Feturizer/New_Systems/rnas/2HOL

>  <Rbt.Executable>
rbdock ($Id: //depot/dev/client3/rdock/2013.1/src/exe/rbdock.cxx#4 $)

>  <Rbt.Library>
libRbt.so (2013.1, Build901 2013/11/27)

>  <Rbt.Parameter_File>
/export/apps/rDock/src/rDock_2013.1_src/data/scripts/dock_solv.prm

>  <Rbt.Receptor>
prm/pocket_docking_5.prm

>  <SCORE>
-16.8709

>  <SCORE.INTER>
-13.7518

>  <SCORE.INTER.CONST>
1

>  <SCORE.INTER.POLAR>
0

>  <SCORE.INTER.ROT>
6

>  <SCORE.INTER.SOLV>
20.2549

>  <SCORE.INTER.VDW>
-23.5195

>  <SCORE.INTER.norm>
-0.528916

>  <SCORE.INTRA>
-3.11905

>  <SCORE.INTRA.DIHEDRAL>
-4.42065

>  <SCORE.INTRA.DIHEDRAL.0>
9.33621

>  <SCORE.INTRA.POLAR>
0

>  <SCORE.INTRA.POLAR.0>
0

>  <SCORE.INTRA.REPUL>
0

>  <SCORE.INTRA.REPUL.0>
0

>  <SCORE.INTRA.SOLV>
0.770426

>  <SCORE.INTRA.SOLV.lig_0>
-65.9238

>  <SCORE.INTRA.VDW>
-1.29394

>  <SCORE.INTRA.VDW.0>
-0.405582

>  <SCORE.INTRA.norm>
-0.119964

>  <SCORE.RESTR>
0

>  <SCORE.RESTR.CAVITY>
0

>  <SCORE.RESTR.norm>
0

>  <SCORE.SYSTEM>
0

>  <SCORE.SYSTEM.CONST>
0

>  <SCORE.SYSTEM.DIHEDRAL>
0

>  <SCORE.SYSTEM.SOLV>
0

>  <SCORE.SYSTEM.norm>
0

>  <SCORE.heavy>
26

>  <SCORE.norm>
-0.648879

>  <RMSD>
3.876

$$$$
ligand
 OpenBabel11021811443D
libRbt.so/2013.1/901 2013/11/27
 26 28  0  0  0  0  0  0  0  0999 V2000
   16.8679   40.5792   63.9258 C   0  0  0  0  0  0  0  0  0  0  0  0
   23.2752   41.1130   65.3296 C   0  0  0  0  0  0  0  0  0  0  0  0
   27.1522   40.3042   64.8667 P   0  0  1  0  0  0  0  0  0  0  0  0
   26.2469   38.4426   66.4163 P   0  0  1  0  0  0  0  0  0  0  0  0
   21.3421   42.1584   67.0731 C   0  0  0  0  0  0  0  0  0  0  0  0
   19.3017   42.6792   65.7030 C   0  0  0  0  0  0  0  0  0  0  0  0
   20.1582   41.7390   66.2403 C   0  0  0  0  0  0  0  0  0  0  0  0
   19.8998   40.3898   65.9923 C   0  0  0  0  0  0  0  0  0  0  0  0
   20.7297   39.4065   66.5098 N   0  0  0  0  0  0  0  0  0  0  0  0
   18.8420   40.0606   65.2567 N   0  0  0  0  0  0  0  0  0  0  0  0
   18.0533   40.9909   64.7593 C   0  0  0  0  0  0  0  0  0  0  0  0
   18.2696   42.2737   64.9753 N   0  0  0  0  0  0  0  0  0  0  0  0
   28.3990   41.0204   65.2192 O   0  0  0  0  0  0  0  0  0  0  0  0
   27.3699   37.7799   65.5869 O   0  0  0  0  0  0  0  0  0  0  0  0
   23.1912   45.0289   65.3624 S   0  0  0  0  0  0  0  0  0  0  0  0
   22.0043   44.3764   66.4500 C   0  0  0  0  0  0  0  0  0  0  0  0
   27.5173   38.8989   64.1743 O   0  0  0  0  0  0  0  0  0  0  0  0
   26.4579   38.1042   67.9756 O   0  5  0  0  0  0  0  0  0  0  0  0
   22.1777   43.0831   66.3039 N   0  0  0  0  0  0  0  0  0  0  0  0
   26.2914   40.0378   66.2014 O   0  0  0  0  0  0  0  0  0  0  0  0
   24.8771   37.8985   65.9527 O   0  0  0  0  0  0  0  0  0  0  0  0
   23.0872   42.6011   65.4853 C   0  0  2  0  0  0  0  0  0  0  0  0
   23.8485   43.4740   64.7775 C   0  0  2  0  0  0  0  0  0  0  0  0
   24.9447   43.2063   63.7798 C   0  0  0  0  0  0  0  0  0  0  0  0
   26.0957   42.4696   64.4686 C   0  0  0  0  0  0  0  0  0  0  0  0
   26.2891   41.1992   63.8434 O   0  0  0  0  0  0  0  0  0  0  0  0
  1 11  1  0  0  0  0
  3 13  1  1  0  0  0
  3 17  1  0  0  0  0
  3 20  1  0  0  0  0
  3 26  1  0  0  0  0
  4 14  1  0  0  0  0
  4 18  1  1  0  0  0
  4 21  2  0  0  0  0
  4 20  1  0  0  0  0
  5 19  1  0  0  0  0
  5  7  1  0  0  0  0
  6  7  2  0  0  0  0
  6 12  1  0  0  0  0
  7  8  1  0  0  0  0
  8  9  1  0  0  0  0
  8 10  2  0  0  0  0
 10 11  1  0  0  0  0
 11 12  2  0  0  0  0
 14 17  1  0  0  0  0
 15 23  1  0  0  0  0
 15 16  1  0  0  0  0
 16 19  1  0  0  0  0
 19 22  1  0  0  0  0
 22  2  1  6  0  0  0
 22 23  1  0  0  0  0
 23 24  1  1  0  0  0
 24 25  1  0  0  0  0
 25 26  1  0  0  0  0
M  CHG  1  18  -1
M  END
>  <CHROM.1>
94.81014211,-56.08070631,117.47544738,119.29244491,-162.41149831,-55.07506129
23.64595910,41.05081413,65.48661069,2.83244609,0.04078326,-0.17202849

>  <Name>
ligand

>  <RI>
0

>  <Rbt.Current_Directory>
/home/itssahil/PROJECTS/Mol_Feturizer/New_Systems/rnas/2HOL

>  <Rbt.Executable>
rbdock ($Id: //depot/dev/client3/rdock/2013.1/src/exe/rbdock.cxx#4 $)

>  <Rbt.Library>
libRbt.so (2013.1, Build901 2013/11/27)

>  <Rbt.Parameter_File>
/export/apps/rDock/src/rDock_2013.1_src/data/scripts/dock_solv.prm

>  <Rbt.Receptor>
prm/pocket_docking_4.prm

>  <SCORE>
-18.5238

>  <SCORE.INTER>
-19.0563

>  <SCORE.INTER.CONST>
1

>  <SCORE.INTER.POLAR>
0

>  <SCORE.INTER.ROT>
6

>  <SCORE.INTER.SOLV>
14.7948

>  <SCORE.INTER.VDW>
-25.2358

>  <SCORE.INTER.norm>
-0.732935

>  <SCORE.INTRA>
0.532491

>  <SCORE.INTRA.DIHEDRAL>
2.20946

>  <SCORE.INTRA.DIHEDRAL.0>
9.33621

>  <SCORE.INTRA.POLAR>
0

>  <SCORE.INTRA.POLAR.0>
0

>  <SCORE.INTRA.REPUL>
0.000719607

>  <SCORE.INTRA.REPUL.0>
0

>  <SCORE.INTRA.SOLV>
2.68248

>  <SCORE.INTRA.SOLV.lig_0>
-65.9238

>  <SCORE.INTRA.VDW>
-1.91708

>  <SCORE.INTRA.VDW.0>
-0.405582

>  <SCORE.INTRA.norm>
0.0204804

>  <SCORE.RESTR>
0

>  <SCORE.RESTR.CAVITY>
0

>  <SCORE.RESTR.norm>
0

>  <SCORE.SYSTEM>
0

>  <SCORE.SYSTEM.CONST>
0

>  <SCORE.SYSTEM.DIHEDRAL>
0

>  <SCORE.SYSTEM.SOLV>
0

>  <SCORE.SYSTEM.norm>
0

>  <SCORE.heavy>
26

>  <SCORE.norm>
-0.712454

>  <RMSD>
3.895

$$$$
ligand
 OpenBabel11021811443D
libRbt.so/2013.1/901 2013/11/27
 26 28  0  0  0  0  0  0  0  0999 V2000
   17.5796   40.8196   64.6093 C   0  0  0  0  0  0  0  0  0  0  0  0
   24.0626   43.1287   67.3004 C   0  0  0  0  0  0  0  0  0  0  0  0
   25.3026   39.3735   65.6838 P   0  0  1  0  0  0  0  0  0  0  0  0
   27.4948   38.0541   65.3098 P   0  0  1  0  0  0  0  0  0  0  0  0
   21.7033   44.3283   66.3707 C   0  0  0  0  0  0  0  0  0  0  0  0
   19.6627   43.8201   64.9962 C   0  0  0  0  0  0  0  0  0  0  0  0
   20.6123   43.3985   65.9054 C   0  0  0  0  0  0  0  0  0  0  0  0
   20.5365   42.0889   66.3826 C   0  0  0  0  0  0  0  0  0  0  0  0
   21.4659   41.6171   67.2975 N   0  0  0  0  0  0  0  0  0  0  0  0
   19.5556   41.3014   65.9512 N   0  0  0  0  0  0  0  0  0  0  0  0
   18.6730   41.7433   65.0791 C   0  0  0  0  0  0  0  0  0  0  0  0
   18.7168   42.9747   64.6093 N   0  0  0  0  0  0  0  0  0  0  0  0
   23.9962   38.6858   65.5746 O   0  0  0  0  0  0  0  0  0  0  0  0
   27.0596   37.7305   66.7569 O   0  0  0  0  0  0  0  0  0  0  0  0
   24.3194   44.3523   63.5884 S   0  0  0  0  0  0  0  0  0  0  0  0
   22.7496   44.6995   64.2462 C   0  0  0  0  0  0  0  0  0  0  0  0
   25.9363   39.0956   67.1360 O   0  0  0  0  0  0  0  0  0  0  0  0
   27.8425   36.6877   64.5337 O   0  5  0  0  0  0  0  0  0  0  0  0
   22.8510   44.2262   65.4667 N   0  0  0  0  0  0  0  0  0  0  0  0
   26.2985   38.8161   64.5476 O   0  0  0  0  0  0  0  0  0  0  0  0
   28.7457   38.9607   65.3406 O   0  0  0  0  0  0  0  0  0  0  0  0
   23.9613   43.6664   65.8953 C   0  0  2  0  0  0  0  0  0  0  0  0
   25.0123   43.5766   65.0410 C   0  0  2  0  0  0  0  0  0  0  0  0
   26.3826   42.9901   65.2584 C   0  0  0  0  0  0  0  0  0  0  0  0
   26.3387   41.4803   65.0119 C   0  0  0  0  0  0  0  0  0  0  0  0
   25.0947   40.9576   65.4824 O   0  0  0  0  0  0  0  0  0  0  0  0
  1 11  1  0  0  0  0
  3 13  1  6  0  0  0
  3 17  1  0  0  0  0
  3 20  1  0  0  0  0
  3 26  1  0  0  0  0
  4 14  1  0  0  0  0
  4 18  1  6  0  0  0
  4 21  2  0  0  0  0
  4 20  1  0  0  0  0
  5 19  1  0  0  0  0
  5  7  1  0  0  0  0
  6  7  2  0  0  0  0
  6 12  1  0  0  0  0
  7  8  1  0  0  0  0
  8  9  1  0  0  0  0
  8 10  2  0  0  0  0
 10 11  1  0  0  0  0
 11 12  2  0  0  0  0
 14 17  1  0  0  0  0
 15 23  1  0  0  0  0
 15 16  1  0  0  0  0
 16 19  1  0  0  0  0
 19 22  1  0  0  0  0
 22  2  1  6  0  0  0
 22 23  1  0  0  0  0
 23 24  1  1  0  0  0
 24 25  1  0  0  0  0
 25 26  1  0  0  0  0
M  CHG  1  18  -1
M  END
>  <CHROM.1>
69.84906274,-88.76832969,-95.72072703,-36.59502769,-160.40152500,-154.92955554
23.95049098,41.23246077,65.44074422,2.55684563,0.06837187,-0.13987738

>  <Name>
ligand

>  <RI>
0

>  <Rbt.Current_Directory>
/home/itssahil/PROJECTS/Mol_Feturizer/New_Systems/rnas/2HOL

>  <Rbt.Executable>
rbdock ($Id: //depot/dev/client3/rdock/2013.1/src/exe/rbdock.cxx#4 $)

>  <Rbt.Library>
libRbt.so (2013.1, Build901 2013/11/27)

>  <Rbt.Parameter_File>
/export/apps/rDock/src/rDock_2013.1_src/data/scripts/dock_solv.prm

>  <Rbt.Receptor>
prm/pocket_docking_6.prm

>  <SCORE>
-19.4445

>  <SCORE.INTER>
-19.9667

>  <SCORE.INTER.CONST>
1

>  <SCORE.INTER.POLAR>
0

>  <SCORE.INTER.ROT>
6

>  <SCORE.INTER.SOLV>
17.037

>  <SCORE.INTER.VDW>
-26.5902

>  <SCORE.INTER.norm>
-0.767952

>  <SCORE.INTRA>
0.522211

>  <SCORE.INTRA.DIHEDRAL>
-0.099771

>  <SCORE.INTRA.DIHEDRAL.0>
9.33621

>  <SCORE.INTRA.POLAR>
0

>  <SCORE.INTRA.POLAR.0>
0

>  <SCORE.INTRA.REPUL>
0

>  <SCORE.INTRA.REPUL.0>
0

>  <SCORE.INTRA.SOLV>
3.82552

>  <SCORE.INTRA.SOLV.lig_0>
-65.9238

>  <SCORE.INTRA.VDW>
-1.34066

>  <SCORE.INTRA.VDW.0>
-0.405582

>  <SCORE.INTRA.norm>
0.020085

>  <SCORE.RESTR>
0

>  <SCORE.RESTR.CAVITY>
0

>  <SCORE.RESTR.norm>
0

>  <SCORE.SYSTEM>
0

>  <SCORE.SYSTEM.CONST>
0

>  <SCORE.SYSTEM.DIHEDRAL>
0

>  <SCORE.SYSTEM.SOLV>
0

>  <SCORE.SYSTEM.norm>
0

>  <SCORE.heavy>
26

>  <SCORE.norm>
-0.747867

>  <RMSD>
3.898

$$$$
ligand
 OpenBabel11021811443D
libRbt.so/2013.1/901 2013/11/27
 26 28  0  0  0  0  0  0  0  0999 V2000
   19.7609   41.9144   65.5914 C   0  0  0  0  0  0  0  0  0  0  0  0
   25.3622   38.1008   68.7594 C   0  0  0  0  0  0  0  0  0  0  0  0
   30.9081   40.8725   66.2365 P   0  0  1  0  0  0  0  0  0  0  0  0
   30.4031   43.3824   65.8728 P   0  0  1  0  0  0  0  0  0  0  0  0
   23.1973   37.6131   67.0432 C   0  0  0  0  0  0  0  0  0  0  0  0
   22.0601   39.8009   67.5250 C   0  0  0  0  0  0  0  0  0  0  0  0
   22.2874   38.7509   66.6577 C   0  0  0  0  0  0  0  0  0  0  0  0
   21.6533   38.7702   65.4142 C   0  0  0  0  0  0  0  0  0  0  0  0
   21.8484   37.7391   64.5075 N   0  0  0  0  0  0  0  0  0  0  0  0
   20.8541   39.7897   65.1139 N   0  0  0  0  0  0  0  0  0  0  0  0
   20.6690   40.7736   65.9699 C   0  0  0  0  0  0  0  0  0  0  0  0
   21.2529   40.7851   67.1523 N   0  0  0  0  0  0  0  0  0  0  0  0
   31.6071   40.0977   65.1864 O   0  0  0  0  0  0  0  0  0  0  0  0
   31.8855   43.3176   66.3046 O   0  0  0  0  0  0  0  0  0  0  0  0
   26.3700   38.1022   64.9743 S   0  0  0  0  0  0  0  0  0  0  0  0
   24.6702   37.7969   65.1609 C   0  0  0  0  0  0  0  0  0  0  0  0
   31.9844   41.6976   67.1016 O   0  0  0  0  0  0  0  0  0  0  0  0
   30.2646   44.3018   64.5591 O   0  5  0  0  0  0  0  0  0  0  0  0
   24.5252   37.8318   66.4654 N   0  0  0  0  0  0  0  0  0  0  0  0
   29.8736   41.8969   65.5478 O   0  0  0  0  0  0  0  0  0  0  0  0
   29.5614   43.9903   67.0171 O   0  0  0  0  0  0  0  0  0  0  0  0
   25.5451   38.0625   67.2631 C   0  0  2  0  0  0  0  0  0  0  0  0
   26.7687   38.2578   66.7089 C   0  0  2  0  0  0  0  0  0  0  0  0
   28.0931   38.5332   67.3715 C   0  0  0  0  0  0  0  0  0  0  0  0
   28.9077   39.4982   66.5070 C   0  0  0  0  0  0  0  0  0  0  0  0
   30.1018   39.8657   67.2006 O   0  0  0  0  0  0  0  0  0  0  0  0
  1 11  1  0  0  0  0
  3 13  1  6  0  0  0
  3 17  1  0  0  0  0
  3 20  1  0  0  0  0
  3 26  1  0  0  0  0
  4 14  1  0  0  0  0
  4 18  1  6  0  0  0
  4 21  2  0  0  0  0
  4 20  1  0  0  0  0
  5 19  1  0  0  0  0
  5  7  1  0  0  0  0
  6  7  2  0  0  0  0
  6 12  1  0  0  0  0
  7  8  1  0  0  0  0
  8  9  1  0  0  0  0
  8 10  2  0  0  0  0
 10 11  1  0  0  0  0
 11 12  2  0  0  0  0
 14 17  1  0  0  0  0
 15 23  1  0  0  0  0
 15 16  1  0  0  0  0
 16 19  1  0  0  0  0
 19 22  1  0  0  0  0
 22  2  1  1  0  0  0
 22 23  1  0  0  0  0
 23 24  1  6  0  0  0
 24 25  1  0  0  0  0
 25 26  1  0  0  0  0
M  CHG  1  18  -1
M  END
>  <CHROM.1>
-66.32870409,-97.98576149,35.67166419,174.07416872,179.81556314,-78.45392558
26.77085929,40.25163705,66.19909063,2.82728274,0.04433502,3.01472000

>  <Name>
ligand

>  <RI>
0

>  <Rbt.Current_Directory>
/home/itssahil/PROJECTS/Mol_Feturizer/New_Systems/rnas/2HOL

>  <Rbt.Executable>
rbdock ($Id: //depot/dev/client3/rdock/2013.1/src/exe/rbdock.cxx#4 $)

>  <Rbt.Library>
libRbt.so (2013.1, Build901 2013/11/27)

>  <Rbt.Parameter_File>
/export/apps/rDock/src/rDock_2013.1_src/data/scripts/dock_solv.prm

>  <Rbt.Receptor>
prm/pocket_docking_6.prm

>  <SCORE>
-12.843

>  <SCORE.INTER>
-10.5453

>  <SCORE.INTER.CONST>
1

>  <SCORE.INTER.POLAR>
0

>  <SCORE.INTER.ROT>
6

>  <SCORE.INTER.SOLV>
18.4246

>  <SCORE.INTER.VDW>
-20.7717

>  <SCORE.INTER.norm>
-0.405587

>  <SCORE.INTRA>
-2.39995

>  <SCORE.INTRA.DIHEDRAL>
-3.72718

>  <SCORE.INTRA.DIHEDRAL.0>
9.33621

>  <SCORE.INTRA.POLAR>
0

>  <SCORE.INTRA.POLAR.0>
0

>  <SCORE.INTRA.REPUL>
0

>  <SCORE.INTRA.REPUL.0>
0

>  <SCORE.INTRA.SOLV>
1.11424

>  <SCORE.INTRA.SOLV.lig_0>
-65.9238

>  <SCORE.INTRA.VDW>
-1.09347

>  <SCORE.INTRA.VDW.0>
-0.405582

>  <SCORE.INTRA.norm>
-0.0923056

>  <SCORE.RESTR>
0.102211

>  <SCORE.RESTR.CAVITY>
0.102211

>  <SCORE.RESTR.norm>
0.0039312

>  <SCORE.SYSTEM>
0

>  <SCORE.SYSTEM.CONST>
0

>  <SCORE.SYSTEM.DIHEDRAL>
0

>  <SCORE.SYSTEM.SOLV>
0

>  <SCORE.SYSTEM.norm>
0

>  <SCORE.heavy>
26

>  <SCORE.norm>
-0.493961

>  <RMSD>
3.948

$$$$
ligand
 OpenBabel11021811443D
libRbt.so/2013.1/901 2013/11/27
 26 28  0  0  0  0  0  0  0  0999 V2000
   16.2465   39.3556   63.9567 C   0  0  0  0  0  0  0  0  0  0  0  0
   22.8591   43.8188   66.7806 C   0  0  0  0  0  0  0  0  0  0  0  0
   26.2401   39.4001   67.8113 P   0  0  1  0  0  0  0  0  0  0  0  0
   24.2302   37.8240   68.2148 P   0  0  1  0  0  0  0  0  0  0  0  0
   20.4960   42.4431   66.1537 C   0  0  0  0  0  0  0  0  0  0  0  0
   18.4565   42.1916   64.7084 C   0  0  0  0  0  0  0  0  0  0  0  0
   19.3717   41.6247   65.5729 C   0  0  0  0  0  0  0  0  0  0  0  0
   19.2293   40.2740   65.8953 C   0  0  0  0  0  0  0  0  0  0  0  0
   20.1220   39.6577   66.7594 N   0  0  0  0  0  0  0  0  0  0  0  0
   18.2209   39.5877   65.3658 N   0  0  0  0  0  0  0  0  0  0  0  0
   17.3729   40.1674   64.5411 C   0  0  0  0  0  0  0  0  0  0  0  0
   17.4796   41.4411   64.2168 N   0  0  0  0  0  0  0  0  0  0  0  0
   27.0283   39.9042   68.9586 O   0  0  0  0  0  0  0  0  0  0  0  0
   25.4840   36.9247   68.3002 O   0  0  0  0  0  0  0  0  0  0  0  0
   23.4939   40.4816   64.8307 S   0  0  0  0  0  0  0  0  0  0  0  0
   21.7945   40.7337   65.0869 C   0  0  0  0  0  0  0  0  0  0  0  0
   26.7272   37.9135   67.4365 O   0  0  0  0  0  0  0  0  0  0  0  0
   23.2815   37.5474   69.4852 O   0  5  0  0  0  0  0  0  0  0  0  0
   21.7800   41.8721   65.7410 N   0  0  0  0  0  0  0  0  0  0  0  0
   24.6788   39.3704   68.2052 O   0  0  0  0  0  0  0  0  0  0  0  0
   23.4567   37.5042   66.9160 O   0  0  0  0  0  0  0  0  0  0  0  0
   22.8924   42.5115   66.0299 C   0  0  2  0  0  0  0  0  0  0  0  0
   24.0727   41.9637   65.6433 C   0  0  2  0  0  0  0  0  0  0  0  0
   25.4785   42.4672   65.8408 C   0  0  0  0  0  0  0  0  0  0  0  0
   26.1435   41.6953   66.9827 C   0  0  0  0  0  0  0  0  0  0  0  0
   26.4535   40.3710   66.5444 O   0  0  0  0  0  0  0  0  0  0  0  0
  1 11  1  0  0  0  0
  3 13  1  1  0  0  0
  3 17  1  0  0  0  0
  3 20  1  0  0  0  0
  3 26  1  0  0  0  0
  4 14  1  0  0  0  0
  4 18  1  1  0  0  0
  4 21  2  0  0  0  0
  4 20  1  0  0  0  0
  5 19  1  0  0  0  0
  5  7  1  0  0  0  0
  6  7  2  0  0  0  0
  6 12  1  0  0  0  0
  7  8  1  0  0  0  0
  8  9  1  0  0  0  0
  8 10  2  0  0  0  0
 10 11  1  0  0  0  0
 11 12  2  0  0  0  0
 14 17  1  0  0  0  0
 15 23  1  0  0  0  0
 15 16  1  0  0  0  0
 16 19  1  0  0  0  0
 19 22  1  0  0  0  0
 22  2  1  1  0  0  0
 22 23  1  0  0  0  0
 23 24  1  6  0  0  0
 24 25  1  0  0  0  0
 25 26  1  0  0  0  0
M  CHG  1  18  -1
M  END
>  <CHROM.1>
-6.49521793,-119.10238387,-77.86510617,73.06029318,-144.76843976,-53.71478982
22.84831087,40.12420381,66.53149517,2.79675654,-0.26547131,-0.39452182

>  <Name>
ligand

>  <RI>
0

>  <Rbt.Current_Directory>
/home/itssahil/PROJECTS/Mol_Feturizer/New_Systems/rnas/2HOL

>  <Rbt.Executable>
rbdock ($Id: //depot/dev/client3/rdock/2013.1/src/exe/rbdock.cxx#4 $)

>  <Rbt.Library>
libRbt.so (2013.1, Build901 2013/11/27)

>  <Rbt.Parameter_File>
/export/apps/rDock/src/rDock_2013.1_src/data/scripts/dock_solv.prm

>  <Rbt.Receptor>
prm/pocket_docking_4.prm

>  <SCORE>
-18.4661

>  <SCORE.INTER>
-19.9763

>  <SCORE.INTER.CONST>
1

>  <SCORE.INTER.POLAR>
0

>  <SCORE.INTER.ROT>
6

>  <SCORE.INTER.SOLV>
17.3045

>  <SCORE.INTER.VDW>
-26.6857

>  <SCORE.INTER.norm>
-0.76832

>  <SCORE.INTRA>
1.51022

>  <SCORE.INTRA.DIHEDRAL>
0.971256

>  <SCORE.INTRA.DIHEDRAL.0>
9.33621

>  <SCORE.INTRA.POLAR>
0

>  <SCORE.INTRA.POLAR.0>
0

>  <SCORE.INTRA.REPUL>
0

>  <SCORE.INTRA.REPUL.0>
0

>  <SCORE.INTRA.SOLV>
2.53985

>  <SCORE.INTRA.SOLV.lig_0>
-65.9238

>  <SCORE.INTRA.VDW>
-0.245335

>  <SCORE.INTRA.VDW.0>
-0.405582

>  <SCORE.INTRA.norm>
0.0580853

>  <SCORE.RESTR>
0

>  <SCORE.RESTR.CAVITY>
0

>  <SCORE.RESTR.norm>
0

>  <SCORE.SYSTEM>
0

>  <SCORE.SYSTEM.CONST>
0

>  <SCORE.SYSTEM.DIHEDRAL>
0

>  <SCORE.SYSTEM.SOLV>
0

>  <SCORE.SYSTEM.norm>
0

>  <SCORE.heavy>
26

>  <SCORE.norm>
-0.710235

>  <RMSD>
3.959

$$$$
ligand
 OpenBabel11021811443D
libRbt.so/2013.1/901 2013/11/27
 26 28  0  0  0  0  0  0  0  0999 V2000
   15.5092   39.4178   63.3488 C   0  0  0  0  0  0  0  0  0  0  0  0
   22.3910   40.2337   68.0405 C   0  0  0  0  0  0  0  0  0  0  0  0
   26.0459   40.7988   65.2357 P   0  0  1  0  0  0  0  0  0  0  0  0
   25.1367   42.7831   66.6222 P   0  0  1  0  0  0  0  0  0  0  0  0
   20.2549   40.6078   66.2611 C   0  0  0  0  0  0  0  0  0  0  0  0
   18.4264   39.0392   65.5486 C   0  0  0  0  0  0  0  0  0  0  0  0
   18.9988   40.2942   65.4896 C   0  0  0  0  0  0  0  0  0  0  0  0
   18.3843   41.2655   64.6975 C   0  0  0  0  0  0  0  0  0  0  0  0
   18.9200   42.5414   64.6043 N   0  0  0  0  0  0  0  0  0  0  0  0
   17.2799   40.9477   64.0284 N   0  0  0  0  0  0  0  0  0  0  0  0
   16.7647   39.7386   64.1171 C   0  0  0  0  0  0  0  0  0  0  0  0
   17.3210   38.7987   64.8562 N   0  0  0  0  0  0  0  0  0  0  0  0
   26.2450   40.9445   63.7760 O   0  0  0  0  0  0  0  0  0  0  0  0
   26.6413   43.0736   66.4227 O   0  0  0  0  0  0  0  0  0  0  0  0
   22.6108   37.9426   64.8712 S   0  0  0  0  0  0  0  0  0  0  0  0
   21.1942   38.9461   64.8111 C   0  0  0  0  0  0  0  0  0  0  0  0
   27.2988   41.4392   66.0154 O   0  0  0  0  0  0  0  0  0  0  0  0
   24.2808   44.0931   66.2455 O   0  5  0  0  0  0  0  0  0  0  0  0
   21.2895   39.6252   65.9307 N   0  0  0  0  0  0  0  0  0  0  0  0
   24.6957   41.5608   65.6713 O   0  0  0  0  0  0  0  0  0  0  0  0
   24.8779   42.4066   68.0983 O   0  0  0  0  0  0  0  0  0  0  0  0
   22.2950   39.4448   66.7590 C   0  0  2  0  0  0  0  0  0  0  0  0
   23.2413   38.5262   66.4377 C   0  0  2  0  0  0  0  0  0  0  0  0
   24.4800   38.1160   67.1901 C   0  0  0  0  0  0  0  0  0  0  0  0
   25.5722   39.1695   66.9920 C   0  0  0  0  0  0  0  0  0  0  0  0
   25.9225   39.2370   65.6082 O   0  0  0  0  0  0  0  0  0  0  0  0
  1 11  1  0  0  0  0
  3 13  1  6  0  0  0
  3 17  1  0  0  0  0
  3 20  1  0  0  0  0
  3 26  1  0  0  0  0
  4 14  1  0  0  0  0
  4 18  1  6  0  0  0
  4 21  2  0  0  0  0
  4 20  1  0  0  0  0
  5 19  1  0  0  0  0
  5  7  1  0  0  0  0
  6  7  2  0  0  0  0
  6 12  1  0  0  0  0
  7  8  1  0  0  0  0
  8  9  1  0  0  0  0
  8 10  2  0  0  0  0
 10 11  1  0  0  0  0
 11 12  2  0  0  0  0
 14 17  1  0  0  0  0
 15 23  1  0  0  0  0
 15 16  1  0  0  0  0
 16 19  1  0  0  0  0
 19 22  1  0  0  0  0
 22  2  1  1  0  0  0
 22 23  1  0  0  0  0
 23 24  1  6  0  0  0
 24 25  1  0  0  0  0
 25 26  1  0  0  0  0
M  CHG  1  18  -1
M  END
>  <CHROM.1>
21.11312322,53.75636551,101.88201351,-62.77602784,136.61930786,-173.14546869
22.63333318,40.49750955,65.68445985,2.94249813,0.17590232,-3.07053506

>  <Name>
ligand

>  <RI>
0

>  <Rbt.Current_Directory>
/home/itssahil/PROJECTS/Mol_Feturizer/New_Systems/rnas/2HOL

>  <Rbt.Executable>
rbdock ($Id: //depot/dev/client3/rdock/2013.1/src/exe/rbdock.cxx#4 $)

>  <Rbt.Library>
libRbt.so (2013.1, Build901 2013/11/27)

>  <Rbt.Parameter_File>
/export/apps/rDock/src/rDock_2013.1_src/data/scripts/dock_solv.prm

>  <Rbt.Receptor>
prm/pocket_docking_4.prm

>  <SCORE>
-19.8044

>  <SCORE.INTER>
-19.2541

>  <SCORE.INTER.CONST>
1

>  <SCORE.INTER.POLAR>
0

>  <SCORE.INTER.ROT>
6

>  <SCORE.INTER.SOLV>
19.8535

>  <SCORE.INTER.VDW>
-27.0539

>  <SCORE.INTER.norm>
-0.740542

>  <SCORE.INTRA>
-0.55029

>  <SCORE.INTRA.DIHEDRAL>
1.35908

>  <SCORE.INTRA.DIHEDRAL.0>
9.33621

>  <SCORE.INTRA.POLAR>
0

>  <SCORE.INTRA.POLAR.0>
0

>  <SCORE.INTRA.REPUL>
0

>  <SCORE.INTRA.REPUL.0>
0

>  <SCORE.INTRA.SOLV>
1.91955

>  <SCORE.INTRA.SOLV.lig_0>
-65.9238

>  <SCORE.INTRA.VDW>
-2.18961

>  <SCORE.INTRA.VDW.0>
-0.405582

>  <SCORE.INTRA.norm>
-0.021165

>  <SCORE.RESTR>
0

>  <SCORE.RESTR.CAVITY>
0

>  <SCORE.RESTR.norm>
0

>  <SCORE.SYSTEM>
0

>  <SCORE.SYSTEM.CONST>
0

>  <SCORE.SYSTEM.DIHEDRAL>
0

>  <SCORE.SYSTEM.SOLV>
0

>  <SCORE.SYSTEM.norm>
0

>  <SCORE.heavy>
26

>  <SCORE.norm>
-0.761707

>  <RMSD>
3.963

$$$$
ligand
 OpenBabel11021811443D
libRbt.so/2013.1/901 2013/11/27
 26 28  0  0  0  0  0  0  0  0999 V2000
   21.8734   45.6034   66.3919 C   0  0  0  0  0  0  0  0  0  0  0  0
   21.5670   39.4379   68.3776 C   0  0  0  0  0  0  0  0  0  0  0  0
   26.4907   39.9463   66.4442 P   0  0  1  0  0  0  0  0  0  0  0  0
   26.1739   41.1695   64.1881 P   0  0  1  0  0  0  0  0  0  0  0  0
   19.9391   40.2504   66.2423 C   0  0  0  0  0  0  0  0  0  0  0  0
   21.6680   41.9658   66.8587 C   0  0  0  0  0  0  0  0  0  0  0  0
   20.4498   41.6677   66.2813 C   0  0  0  0  0  0  0  0  0  0  0  0
   19.7032   42.7126   65.7341 C   0  0  0  0  0  0  0  0  0  0  0  0
   18.4730   42.4659   65.1432 N   0  0  0  0  0  0  0  0  0  0  0  0
   20.1865   43.9501   65.7931 N   0  0  0  0  0  0  0  0  0  0  0  0
   21.3564   44.1891   66.3494 C   0  0  0  0  0  0  0  0  0  0  0  0
   22.0858   43.2245   66.8753 N   0  0  0  0  0  0  0  0  0  0  0  0
   27.7326   39.1841   66.7057 O   0  0  0  0  0  0  0  0  0  0  0  0
   27.0732   42.0958   65.0375 O   0  0  0  0  0  0  0  0  0  0  0  0
   22.6486   37.8924   64.9449 S   0  0  0  0  0  0  0  0  0  0  0  0
   21.2636   38.9224   64.7496 C   0  0  0  0  0  0  0  0  0  0  0  0
   26.7522   41.5099   66.7176 O   0  0  0  0  0  0  0  0  0  0  0  0
   26.8237   40.9791   62.7280 O   0  5  0  0  0  0  0  0  0  0  0  0
   21.0526   39.3367   65.9775 N   0  0  0  0  0  0  0  0  0  0  0  0
   26.0457   39.7364   64.9108 O   0  0  0  0  0  0  0  0  0  0  0  0
   24.7715   41.8031   64.0483 O   0  0  0  0  0  0  0  0  0  0  0  0
   21.8214   38.9521   66.9729 C   0  0  2  0  0  0  0  0  0  0  0  0
   22.8453   38.1012   66.7083 C   0  0  2  0  0  0  0  0  0  0  0  0
   23.8657   37.5028   67.6409 C   0  0  0  0  0  0  0  0  0  0  0  0
   25.2620   37.9999   67.2597 C   0  0  0  0  0  0  0  0  0  0  0  0
   25.3212   39.4189   67.4174 O   0  0  0  0  0  0  0  0  0  0  0  0
  1 11  1  0  0  0  0
  3 13  1  1  0  0  0
  3 17  1  0  0  0  0
  3 20  1  0  0  0  0
  3 26  1  0  0  0  0
  4 14  1  0  0  0  0
  4 18  1  6  0  0  0
  4 21  2  0  0  0  0
  4 20  1  0  0  0  0
  5 19  1  0  0  0  0
  5  7  1  0  0  0  0
  6  7  2  0  0  0  0
  6 12  1  0  0  0  0
  7  8  1  0  0  0  0
  8  9  1  0  0  0  0
  8 10  2  0  0  0  0
 10 11  1  0  0  0  0
 11 12  2  0  0  0  0
 14 17  1  0  0  0  0
 15 23  1  0  0  0  0
 15 16  1  0  0  0  0
 16 19  1  0  0  0  0
 19 22  1  0  0  0  0
 22  2  1  1  0  0  0
 22 23  1  0  0  0  0
 23 24  1  6  0  0  0
 24 25  1  0  0  0  0
 25 26  1  0  0  0  0
M  CHG  1  18  -1
M  END
>  <CHROM.1>
-97.23491757,-38.68053196,63.66270886,62.55815897,-155.79876548,-52.18306544
23.59340117,40.62829599,65.89359559,-2.82227273,-0.16220004,2.92334553

>  <Name>
ligand

>  <RI>
0

>  <Rbt.Current_Directory>
/home/itssahil/PROJECTS/Mol_Feturizer/New_Systems/rnas/2HOL

>  <Rbt.Executable>
rbdock ($Id: //depot/dev/client3/rdock/2013.1/src/exe/rbdock.cxx#4 $)

>  <Rbt.Library>
libRbt.so (2013.1, Build901 2013/11/27)

>  <Rbt.Parameter_File>
/export/apps/rDock/src/rDock_2013.1_src/data/scripts/dock_solv.prm

>  <Rbt.Receptor>
prm/pocket_docking_5.prm

>  <SCORE>
-16.9349

>  <SCORE.INTER>
-14.6075

>  <SCORE.INTER.CONST>
1

>  <SCORE.INTER.POLAR>
0

>  <SCORE.INTER.ROT>
6

>  <SCORE.INTER.SOLV>
21.0358

>  <SCORE.INTER.VDW>
-24.3503

>  <SCORE.INTER.norm>
-0.561826

>  <SCORE.INTRA>
-2.32743

>  <SCORE.INTRA.DIHEDRAL>
-1.54251

>  <SCORE.INTRA.DIHEDRAL.0>
9.33621

>  <SCORE.INTRA.POLAR>
0

>  <SCORE.INTRA.POLAR.0>
0

>  <SCORE.INTRA.REPUL>
0

>  <SCORE.INTRA.REPUL.0>
0

>  <SCORE.INTRA.SOLV>
-0.385252

>  <SCORE.INTRA.SOLV.lig_0>
-65.9238

>  <SCORE.INTRA.VDW>
-1.36355

>  <SCORE.INTRA.VDW.0>
-0.405582

>  <SCORE.INTRA.norm>
-0.0895167

>  <SCORE.RESTR>
0

>  <SCORE.RESTR.CAVITY>
0

>  <SCORE.RESTR.norm>
0

>  <SCORE.SYSTEM>
0

>  <SCORE.SYSTEM.CONST>
0

>  <SCORE.SYSTEM.DIHEDRAL>
0

>  <SCORE.SYSTEM.SOLV>
0

>  <SCORE.SYSTEM.norm>
0

>  <SCORE.heavy>
26

>  <SCORE.norm>
-0.651343

>  <RMSD>
3.983

$$$$
ligand
 OpenBabel11021811443D
libRbt.so/2013.1/901 2013/11/27
 26 28  0  0  0  0  0  0  0  0999 V2000
   23.4798   46.6573   66.1642 C   0  0  0  0  0  0  0  0  0  0  0  0
   22.7307   38.5086   65.5592 C   0  0  0  0  0  0  0  0  0  0  0  0
   26.4700   37.4288   68.5367 P   0  0  1  0  0  0  0  0  0  0  0  0
   28.5233   38.8577   67.8820 P   0  0  1  0  0  0  0  0  0  0  0  0
   21.9888   41.2111   65.4333 C   0  0  0  0  0  0  0  0  0  0  0  0
   21.4514   43.5995   65.9973 C   0  0  0  0  0  0  0  0  0  0  0  0
   22.3849   42.6523   65.6263 C   0  0  0  0  0  0  0  0  0  0  0  0
   23.7051   43.0634   65.4349 C   0  0  0  0  0  0  0  0  0  0  0  0
   24.6804   42.1508   65.0615 N   0  0  0  0  0  0  0  0  0  0  0  0
   24.0131   44.3450   65.6104 N   0  0  0  0  0  0  0  0  0  0  0  0
   23.0913   45.2149   65.9693 C   0  0  0  0  0  0  0  0  0  0  0  0
   21.8357   44.8588   66.1578 N   0  0  0  0  0  0  0  0  0  0  0  0
   26.6608   36.0913   69.1419 O   0  0  0  0  0  0  0  0  0  0  0  0
   28.3551   39.0501   69.4060 O   0  0  0  0  0  0  0  0  0  0  0  0
   21.7505   39.9980   69.0467 S   0  0  0  0  0  0  0  0  0  0  0  0
   21.6097   41.1995   67.8002 C   0  0  0  0  0  0  0  0  0  0  0  0
   26.6349   38.5594   69.6691 O   0  0  0  0  0  0  0  0  0  0  0  0
   30.0571   38.5000   67.5503 O   0  5  0  0  0  0  0  0  0  0  0  0
   21.9725   40.5308   66.7301 N   0  0  0  0  0  0  0  0  0  0  0  0
   27.5716   37.6579   67.3845 O   0  0  0  0  0  0  0  0  0  0  0  0
   28.1303   40.1625   67.1535 O   0  0  0  0  0  0  0  0  0  0  0  0
   22.3176   39.2634   66.7975 C   0  0  2  0  0  0  0  0  0  0  0  0
   22.3009   38.6518   68.0091 C   0  0  2  0  0  0  0  0  0  0  0  0
   22.6463   37.2323   68.3761 C   0  0  0  0  0  0  0  0  0  0  0  0
   24.0726   37.1785   68.9284 C   0  0  0  0  0  0  0  0  0  0  0  0
   24.9964   37.5228   67.8940 O   0  0  0  0  0  0  0  0  0  0  0  0
  1 11  1  0  0  0  0
  3 13  1  1  0  0  0
  3 17  1  0  0  0  0
  3 20  1  0  0  0  0
  3 26  1  0  0  0  0
  4 14  1  0  0  0  0
  4 18  1  6  0  0  0
  4 21  2  0  0  0  0
  4 20  1  0  0  0  0
  5 19  1  0  0  0  0
  5  7  1  0  0  0  0
  6  7  2  0  0  0  0
  6 12  1  0  0  0  0
  7  8  1  0  0  0  0
  8  9  1  0  0  0  0
  8 10  2  0  0  0  0
 10 11  1  0  0  0  0
 11 12  2  0  0  0  0
 14 17  1  0  0  0  0
 15 23  1  0  0  0  0
 15 16  1  0  0  0  0
 16 19  1  0  0  0  0
 19 22  1  0  0  0  0
 22  2  1  1  0  0  0
 22 23  1  0  0  0  0
 23 24  1  6  0  0  0
 24 25  1  0  0  0  0
 25 26  1  0  0  0  0
M  CHG  1  18  -1
M  END
>  <CHROM.1>
34.03640440,-83.05217348,-81.27385774,-65.63126975,-179.32855453,54.29978742
24.66729842,40.07708068,67.41899869,-2.25249319,0.00603815,2.76469170

>  <Name>
ligand

>  <RI>
0

>  <Rbt.Current_Directory>
/home/itssahil/PROJECTS/Mol_Feturizer/New_Systems/rnas/2HOL

>  <Rbt.Executable>
rbdock ($Id: //depot/dev/client3/rdock/2013.1/src/exe/rbdock.cxx#4 $)

>  <Rbt.Library>
libRbt.so (2013.1, Build901 2013/11/27)

>  <Rbt.Parameter_File>
/export/apps/rDock/src/rDock_2013.1_src/data/scripts/dock_solv.prm

>  <Rbt.Receptor>
prm/pocket_docking_6.prm

>  <SCORE>
-12.5482

>  <SCORE.INTER>
-9.56654

>  <SCORE.INTER.CONST>
1

>  <SCORE.INTER.POLAR>
0

>  <SCORE.INTER.ROT>
6

>  <SCORE.INTER.SOLV>
12.348

>  <SCORE.INTER.VDW>
-18.0937

>  <SCORE.INTER.norm>
-0.367944

>  <SCORE.INTRA>
-2.98564

>  <SCORE.INTRA.DIHEDRAL>
-4.16428

>  <SCORE.INTRA.DIHEDRAL.0>
9.33621

>  <SCORE.INTRA.POLAR>
0

>  <SCORE.INTRA.POLAR.0>
0

>  <SCORE.INTRA.REPUL>
0

>  <SCORE.INTRA.REPUL.0>
0

>  <SCORE.INTRA.SOLV>
0.536261

>  <SCORE.INTRA.SOLV.lig_0>
-65.9238

>  <SCORE.INTRA.VDW>
-1.17163

>  <SCORE.INTRA.VDW.0>
-0.405582

>  <SCORE.INTRA.norm>
-0.114832

>  <SCORE.RESTR>
0.00401173

>  <SCORE.RESTR.CAVITY>
0.00401173

>  <SCORE.RESTR.norm>
0.000154297

>  <SCORE.SYSTEM>
0

>  <SCORE.SYSTEM.CONST>
0

>  <SCORE.SYSTEM.DIHEDRAL>
0

>  <SCORE.SYSTEM.SOLV>
0

>  <SCORE.SYSTEM.norm>
0

>  <SCORE.heavy>
26

>  <SCORE.norm>
-0.482622

>  <RMSD>
4.000

$$$$
ligand
 OpenBabel11021811443D
libRbt.so/2013.1/901 2013/11/27
 26 28  0  0  0  0  0  0  0  0999 V2000
   20.0041   44.4231   65.8071 C   0  0  0  0  0  0  0  0  0  0  0  0
   22.7941   39.2288   65.0446 C   0  0  0  0  0  0  0  0  0  0  0  0
   26.1332   41.8861   67.6326 P   0  0  1  0  0  0  0  0  0  0  0  0
   25.0659   43.6387   66.0592 P   0  0  1  0  0  0  0  0  0  0  0  0
   20.9392   38.9653   67.1325 C   0  0  0  0  0  0  0  0  0  0  0  0
   21.5048   41.4090   67.2752 C   0  0  0  0  0  0  0  0  0  0  0  0
   20.6905   40.4095   66.7809 C   0  0  0  0  0  0  0  0  0  0  0  0
   19.6310   40.7707   65.9469 C   0  0  0  0  0  0  0  0  0  0  0  0
   18.7838   39.8046   65.4250 N   0  0  0  0  0  0  0  0  0  0  0  0
   19.4421   42.0564   65.6646 N   0  0  0  0  0  0  0  0  0  0  0  0
   20.2466   42.9774   66.1543 C   0  0  0  0  0  0  0  0  0  0  0  0
   21.2559   42.6692   66.9450 N   0  0  0  0  0  0  0  0  0  0  0  0
   26.6771   42.3024   68.9450 O   0  0  0  0  0  0  0  0  0  0  0  0
   23.9756   43.3002   67.1007 O   0  0  0  0  0  0  0  0  0  0  0  0
   24.4595   38.3478   68.4786 S   0  0  0  0  0  0  0  0  0  0  0  0
   22.7349   38.4748   68.6429 C   0  0  0  0  0  0  0  0  0  0  0  0
   24.5385   41.7070   67.7442 O   0  0  0  0  0  0  0  0  0  0  0  0
   25.2078   45.2366   65.9281 O   0  5  0  0  0  0  0  0  0  0  0  0
   22.3621   38.7701   67.4190 N   0  0  0  0  0  0  0  0  0  0  0  0
   26.4716   43.0109   66.5309 O   0  0  0  0  0  0  0  0  0  0  0  0
   24.6697   43.0434   64.6895 O   0  0  0  0  0  0  0  0  0  0  0  0
   23.2381   38.8906   66.4454 C   0  0  2  0  0  0  0  0  0  0  0  0
   24.5527   38.7108   66.7317 C   0  0  2  0  0  0  0  0  0  0  0  0
   25.7549   38.7910   65.8278 C   0  0  0  0  0  0  0  0  0  0  0  0
   26.3354   40.2063   65.8716 C   0  0  0  0  0  0  0  0  0  0  0  0
   26.8014   40.4885   67.1927 O   0  0  0  0  0  0  0  0  0  0  0  0
  1 11  1  0  0  0  0
  3 13  1  1  0  0  0
  3 17  1  0  0  0  0
  3 20  1  0  0  0  0
  3 26  1  0  0  0  0
  4 14  1  0  0  0  0
  4 18  1  6  0  0  0
  4 21  2  0  0  0  0
  4 20  1  0  0  0  0
  5 19  1  0  0  0  0
  5  7  1  0  0  0  0
  6  7  2  0  0  0  0
  6 12  1  0  0  0  0
  7  8  1  0  0  0  0
  8  9  1  0  0  0  0
  8 10  2  0  0  0  0
 10 11  1  0  0  0  0
 11 12  2  0  0  0  0
 14 17  1  0  0  0  0
 15 23  1  0  0  0  0
 15 16  1  0  0  0  0
 16 19  1  0  0  0  0
 19 22  1  0  0  0  0
 22  2  1  1  0  0  0
 22 23  1  0  0  0  0
 23 24  1  6  0  0  0
 24 25  1  0  0  0  0
 25 26  1  0  0  0  0
M  CHG  1  18  -1
M  END
>  <CHROM.1>
112.65829224,-27.51513828,-87.28482309,63.57718106,-128.09156025,-174.64111795
23.59893265,41.23334929,66.75674836,2.99805497,0.17175114,2.90968603

>  <Name>
ligand

>  <RI>
0

>  <Rbt.Current_Directory>
/home/itssahil/PROJECTS/Mol_Feturizer/New_Systems/rnas/2HOL

>  <Rbt.Executable>
rbdock ($Id: //depot/dev/client3/rdock/2013.1/src/exe/rbdock.cxx#4 $)

>  <Rbt.Library>
libRbt.so (2013.1, Build901 2013/11/27)

>  <Rbt.Parameter_File>
/export/apps/rDock/src/rDock_2013.1_src/data/scripts/dock_solv.prm

>  <Rbt.Receptor>
prm/pocket_docking_6.prm

>  <SCORE>
-15.7887

>  <SCORE.INTER>
-13.5851

>  <SCORE.INTER.CONST>
1

>  <SCORE.INTER.POLAR>
0

>  <SCORE.INTER.ROT>
6

>  <SCORE.INTER.SOLV>
14.1412

>  <SCORE.INTER.VDW>
-21.3704

>  <SCORE.INTER.norm>
-0.522502

>  <SCORE.INTRA>
-2.20364

>  <SCORE.INTRA.DIHEDRAL>
2.55727

>  <SCORE.INTRA.DIHEDRAL.0>
9.33621

>  <SCORE.INTRA.POLAR>
0

>  <SCORE.INTRA.POLAR.0>
0

>  <SCORE.INTRA.REPUL>
0

>  <SCORE.INTRA.REPUL.0>
0

>  <SCORE.INTRA.SOLV>
1.37782

>  <SCORE.INTRA.SOLV.lig_0>
-65.9238

>  <SCORE.INTRA.VDW>
-4.17119

>  <SCORE.INTRA.VDW.0>
-0.405582

>  <SCORE.INTRA.norm>
-0.0847555

>  <SCORE.RESTR>
0

>  <SCORE.RESTR.CAVITY>
0

>  <SCORE.RESTR.norm>
0

>  <SCORE.SYSTEM>
0

>  <SCORE.SYSTEM.CONST>
0

>  <SCORE.SYSTEM.DIHEDRAL>
0

>  <SCORE.SYSTEM.SOLV>
0

>  <SCORE.SYSTEM.norm>
0

>  <SCORE.heavy>
26

>  <SCORE.norm>
-0.607258

>  <RMSD>
4.051

$$$$
ligand
 OpenBabel11021811443D
libRbt.so/2013.1/901 2013/11/27
 26 28  0  0  0  0  0  0  0  0999 V2000
   20.0414   44.4115   65.7396 C   0  0  0  0  0  0  0  0  0  0  0  0
   22.4867   38.7157   64.8890 C   0  0  0  0  0  0  0  0  0  0  0  0
   25.4692   41.8612   64.7797 P   0  0  1  0  0  0  0  0  0  0  0  0
   25.5866   42.7650   67.1996 P   0  0  1  0  0  0  0  0  0  0  0  0
   20.8364   38.9516   67.1453 C   0  0  0  0  0  0  0  0  0  0  0  0
   21.4932   41.3756   67.2120 C   0  0  0  0  0  0  0  0  0  0  0  0
   20.6247   40.3964   66.7725 C   0  0  0  0  0  0  0  0  0  0  0  0
   19.5456   40.7785   65.9737 C   0  0  0  0  0  0  0  0  0  0  0  0
   18.6445   39.8332   65.5071 N   0  0  0  0  0  0  0  0  0  0  0  0
   19.3909   42.0642   65.6712 N   0  0  0  0  0  0  0  0  0  0  0  0
   20.2465   42.9653   66.1082 C   0  0  0  0  0  0  0  0  0  0  0  0
   21.2757   42.6370   66.8646 N   0  0  0  0  0  0  0  0  0  0  0  0
   25.0094   42.7413   63.6817 O   0  0  0  0  0  0  0  0  0  0  0  0
   26.8651   43.2828   66.5027 O   0  0  0  0  0  0  0  0  0  0  0  0
   24.4302   38.3062   68.2650 S   0  0  0  0  0  0  0  0  0  0  0  0
   22.7411   38.5896   68.5550 C   0  0  0  0  0  0  0  0  0  0  0  0
   27.0184   42.1593   65.0943 O   0  0  0  0  0  0  0  0  0  0  0  0
   24.8578   43.9816   67.9605 O   0  5  0  0  0  0  0  0  0  0  0  0
   22.2667   38.7005   67.3358 N   0  0  0  0  0  0  0  0  0  0  0  0
   24.5891   42.1448   66.0982 O   0  0  0  0  0  0  0  0  0  0  0  0
   25.9670   41.6721   68.2235 O   0  0  0  0  0  0  0  0  0  0  0  0
   23.0469   38.5873   66.2831 C   0  0  2  0  0  0  0  0  0  0  0  0
   24.3705   38.3595   66.4802 C   0  0  2  0  0  0  0  0  0  0  0  0
   25.4794   38.1939   65.4744 C   0  0  0  0  0  0  0  0  0  0  0  0
   26.1346   39.5506   65.2060 C   0  0  0  0  0  0  0  0  0  0  0  0
   25.2964   40.3211   64.3424 O   0  0  0  0  0  0  0  0  0  0  0  0
  1 11  1  0  0  0  0
  3 13  1  6  0  0  0
  3 17  1  0  0  0  0
  3 20  1  0  0  0  0
  3 26  1  0  0  0  0
  4 14  1  0  0  0  0
  4 18  1  1  0  0  0
  4 21  2  0  0  0  0
  4 20  1  0  0  0  0
  5 19  1  0  0  0  0
  5  7  1  0  0  0  0
  6  7  2  0  0  0  0
  6 12  1  0  0  0  0
  7  8  1  0  0  0  0
  8  9  1  0  0  0  0
  8 10  2  0  0  0  0
 10 11  1  0  0  0  0
 11 12  2  0  0  0  0
 14 17  1  0  0  0  0
 15 23  1  0  0  0  0
 15 16  1  0  0  0  0
 16 19  1  0  0  0  0
 19 22  1  0  0  0  0
 22  2  1  1  0  0  0
 22 23  1  0  0  0  0
 23 24  1  6  0  0  0
 24 25  1  0  0  0  0
 25 26  1  0  0  0  0
M  CHG  1  18  -1
M  END
>  <CHROM.1>
103.96085624,-29.37467481,-87.89000957,-77.05797207,146.19012231,161.24523662
23.58106795,40.97655879,66.31404226,2.94807305,-0.01934897,2.95527417

>  <Name>
ligand

>  <RI>
0

>  <Rbt.Current_Directory>
/home/itssahil/PROJECTS/Mol_Feturizer/New_Systems/rnas/2HOL

>  <Rbt.Executable>
rbdock ($Id: //depot/dev/client3/rdock/2013.1/src/exe/rbdock.cxx#4 $)

>  <Rbt.Library>
libRbt.so (2013.1, Build901 2013/11/27)

>  <Rbt.Parameter_File>
/export/apps/rDock/src/rDock_2013.1_src/data/scripts/dock_solv.prm

>  <Rbt.Receptor>
prm/pocket_docking_5.prm

>  <SCORE>
-16.2192

>  <SCORE.INTER>
-14.1747

>  <SCORE.INTER.CONST>
1

>  <SCORE.INTER.POLAR>
0

>  <SCORE.INTER.ROT>
6

>  <SCORE.INTER.SOLV>
18.0429

>  <SCORE.INTER.VDW>
-23.0641

>  <SCORE.INTER.norm>
-0.54518

>  <SCORE.INTRA>
-2.04454

>  <SCORE.INTRA.DIHEDRAL>
1.45309

>  <SCORE.INTRA.DIHEDRAL.0>
9.33621

>  <SCORE.INTRA.POLAR>
0

>  <SCORE.INTRA.POLAR.0>
0

>  <SCORE.INTRA.REPUL>
0

>  <SCORE.INTRA.REPUL.0>
0

>  <SCORE.INTRA.SOLV>
1.56116

>  <SCORE.INTRA.SOLV.lig_0>
-65.9238

>  <SCORE.INTRA.VDW>
-3.55166

>  <SCORE.INTRA.VDW.0>
-0.405582

>  <SCORE.INTRA.norm>
-0.0786361

>  <SCORE.RESTR>
0

>  <SCORE.RESTR.CAVITY>
0

>  <SCORE.RESTR.norm>
0

>  <SCORE.SYSTEM>
0

>  <SCORE.SYSTEM.CONST>
0

>  <SCORE.SYSTEM.DIHEDRAL>
0

>  <SCORE.SYSTEM.SOLV>
0

>  <SCORE.SYSTEM.norm>
0

>  <SCORE.heavy>
26

>  <SCORE.norm>
-0.623816

>  <RMSD>
4.115

$$$$
ligand
 OpenBabel11021811443D
libRbt.so/2013.1/901 2013/11/27
 26 28  0  0  0  0  0  0  0  0999 V2000
   16.7877   40.7512   63.9686 C   0  0  0  0  0  0  0  0  0  0  0  0
   24.1257   41.0455   66.7839 C   0  0  0  0  0  0  0  0  0  0  0  0
   27.6247   41.6961   63.3767 P   0  0  1  0  0  0  0  0  0  0  0  0
   26.7628   44.0866   63.8552 P   0  0  1  0  0  0  0  0  0  0  0  0
   21.4626   40.2583   67.1812 C   0  0  0  0  0  0  0  0  0  0  0  0
   19.2670   39.3966   66.3160 C   0  0  0  0  0  0  0  0  0  0  0  0
   20.2257   40.3900   66.3303 C   0  0  0  0  0  0  0  0  0  0  0  0
   20.0201   41.5199   65.5368 C   0  0  0  0  0  0  0  0  0  0  0  0
   20.9534   42.5456   65.5155 N   0  0  0  0  0  0  0  0  0  0  0  0
   18.9181   41.5959   64.7964 N   0  0  0  0  0  0  0  0  0  0  0  0
   18.0266   40.6264   64.8165 C   0  0  0  0  0  0  0  0  0  0  0  0
   18.1912   39.5462   65.5548 N   0  0  0  0  0  0  0  0  0  0  0  0
   27.7674   41.2257   61.9803 O   0  0  0  0  0  0  0  0  0  0  0  0
   28.2578   44.2499   63.4997 O   0  0  0  0  0  0  0  0  0  0  0  0
   23.3883   37.4167   65.5072 S   0  0  0  0  0  0  0  0  0  0  0  0
   21.9588   38.1364   66.1826 C   0  0  0  0  0  0  0  0  0  0  0  0
   28.9044   42.5845   63.7778 O   0  0  0  0  0  0  0  0  0  0  0  0
   25.8890   45.1364   63.0038 O   0  5  0  0  0  0  0  0  0  0  0  0
   22.3928   39.3200   66.5493 N   0  0  0  0  0  0  0  0  0  0  0  0
   26.2897   42.5871   63.5084 O   0  0  0  0  0  0  0  0  0  0  0  0
   26.5618   44.3541   65.3637 O   0  0  0  0  0  0  0  0  0  0  0  0
   23.6428   39.6819   66.3583 C   0  0  2  0  0  0  0  0  0  0  0  0
   24.4909   38.7966   65.7756 C   0  0  2  0  0  0  0  0  0  0  0  0
   25.9532   38.9392   65.4441 C   0  0  0  0  0  0  0  0  0  0  0  0
   26.1398   40.0642   64.4234 C   0  0  0  0  0  0  0  0  0  0  0  0
   27.5205   40.4276   64.3633 O   0  0  0  0  0  0  0  0  0  0  0  0
  1 11  1  0  0  0  0
  3 13  1  6  0  0  0
  3 17  1  0  0  0  0
  3 20  1  0  0  0  0
  3 26  1  0  0  0  0
  4 14  1  0  0  0  0
  4 18  1  6  0  0  0
  4 21  2  0  0  0  0
  4 20  1  0  0  0  0
  5 19  1  0  0  0  0
  5  7  1  0  0  0  0
  6  7  2  0  0  0  0
  6 12  1  0  0  0  0
  7  8  1  0  0  0  0
  8  9  1  0  0  0  0
  8 10  2  0  0  0  0
 10 11  1  0  0  0  0
 11 12  2  0  0  0  0
 14 17  1  0  0  0  0
 15 23  1  0  0  0  0
 15 16  1  0  0  0  0
 16 19  1  0  0  0  0
 19 22  1  0  0  0  0
 22  2  1  1  0  0  0
 22 23  1  0  0  0  0
 23 24  1  6  0  0  0
 24 25  1  0  0  0  0
 25 26  1  0  0  0  0
M  CHG  1  18  -1
M  END
>  <CHROM.1>
-51.41709723,76.01740584,116.98128016,165.42215797,-175.01501176,-87.18212225
24.00522045,41.11575125,64.82841029,2.75192769,-0.12816384,2.83575716

>  <Name>
ligand

>  <RI>
0

>  <Rbt.Current_Directory>
/home/itssahil/PROJECTS/Mol_Feturizer/New_Systems/rnas/2HOL

>  <Rbt.Executable>
rbdock ($Id: //depot/dev/client3/rdock/2013.1/src/exe/rbdock.cxx#4 $)

>  <Rbt.Library>
libRbt.so (2013.1, Build901 2013/11/27)

>  <Rbt.Parameter_File>
/export/apps/rDock/src/rDock_2013.1_src/data/scripts/dock_solv.prm

>  <Rbt.Receptor>
prm/pocket_docking_6.prm

>  <SCORE>
-17.1959

>  <SCORE.INTER>
-16.0063

>  <SCORE.INTER.CONST>
1

>  <SCORE.INTER.POLAR>
0

>  <SCORE.INTER.ROT>
6

>  <SCORE.INTER.SOLV>
13.0161

>  <SCORE.INTER.VDW>
-22.6095

>  <SCORE.INTER.norm>
-0.615626

>  <SCORE.INTRA>
-1.22608

>  <SCORE.INTRA.DIHEDRAL>
-2.85692

>  <SCORE.INTRA.DIHEDRAL.0>
9.33621

>  <SCORE.INTRA.POLAR>
0

>  <SCORE.INTRA.POLAR.0>
0

>  <SCORE.INTRA.REPUL>
0

>  <SCORE.INTRA.REPUL.0>
0

>  <SCORE.INTRA.SOLV>
1.3908

>  <SCORE.INTRA.SOLV.lig_0>
-65.9238

>  <SCORE.INTRA.VDW>
-0.493021

>  <SCORE.INTRA.VDW.0>
-0.405582

>  <SCORE.INTRA.norm>
-0.047157

>  <SCORE.RESTR>
0.0364415

>  <SCORE.RESTR.CAVITY>
0.0364415

>  <SCORE.RESTR.norm>
0.0014016

>  <SCORE.SYSTEM>
0

>  <SCORE.SYSTEM.CONST>
0

>  <SCORE.SYSTEM.DIHEDRAL>
0

>  <SCORE.SYSTEM.SOLV>
0

>  <SCORE.SYSTEM.norm>
0

>  <SCORE.heavy>
26

>  <SCORE.norm>
-0.661381

>  <RMSD>
4.119

$$$$
ligand
 OpenBabel11021811443D
libRbt.so/2013.1/901 2013/11/27
 26 28  0  0  0  0  0  0  0  0999 V2000
   19.9160   40.9776   65.4918 C   0  0  0  0  0  0  0  0  0  0  0  0
   27.4345   37.7793   64.8585 C   0  0  0  0  0  0  0  0  0  0  0  0
   30.0263   42.1238   66.4317 P   0  0  1  0  0  0  0  0  0  0  0  0
   29.2953   43.6437   64.4716 P   0  0  1  0  0  0  0  0  0  0  0  0
   24.6550   37.8321   65.2337 C   0  0  0  0  0  0  0  0  0  0  0  0
   22.1548   38.0785   65.2175 C   0  0  0  0  0  0  0  0  0  0  0  0
   23.4014   38.6659   65.3021 C   0  0  0  0  0  0  0  0  0  0  0  0
   23.4713   40.0519   65.4530 C   0  0  0  0  0  0  0  0  0  0  0  0
   24.6993   40.6902   65.5423 N   0  0  0  0  0  0  0  0  0  0  0  0
   22.3422   40.7526   65.5041 N   0  0  0  0  0  0  0  0  0  0  0  0
   21.1733   40.1506   65.4241 C   0  0  0  0  0  0  0  0  0  0  0  0
   21.0732   38.8435   65.2810 N   0  0  0  0  0  0  0  0  0  0  0  0
   31.4650   41.9001   66.6990 O   0  0  0  0  0  0  0  0  0  0  0  0
   29.6710   44.6049   65.6218 O   0  0  0  0  0  0  0  0  0  0  0  0
   26.3930   38.7973   68.4946 S   0  0  0  0  0  0  0  0  0  0  0  0
   24.9926   38.4879   67.5145 C   0  0  0  0  0  0  0  0  0  0  0  0
   29.5730   43.5285   67.0713 O   0  0  0  0  0  0  0  0  0  0  0  0
   30.0178   44.1196   63.1144 O   0  5  0  0  0  0  0  0  0  0  0  0
   25.5291   38.1707   66.3590 N   0  0  0  0  0  0  0  0  0  0  0  0
   29.7745   42.1516   64.8413 O   0  0  0  0  0  0  0  0  0  0  0  0
   27.7632   43.6576   64.2708 O   0  0  0  0  0  0  0  0  0  0  0  0
   26.8334   38.1470   66.1917 C   0  0  2  0  0  0  0  0  0  0  0  0
   27.6269   38.4687   67.2450 C   0  0  2  0  0  0  0  0  0  0  0  0
   29.1292   38.5281   67.3361 C   0  0  0  0  0  0  0  0  0  0  0  0
   29.6458   39.7131   66.5170 C   0  0  0  0  0  0  0  0  0  0  0  0
   29.1657   40.9317   67.0886 O   0  0  0  0  0  0  0  0  0  0  0  0
  1 11  1  0  0  0  0
  3 13  1  1  0  0  0
  3 17  1  0  0  0  0
  3 20  1  0  0  0  0
  3 26  1  0  0  0  0
  4 14  1  0  0  0  0
  4 18  1  6  0  0  0
  4 21  2  0  0  0  0
  4 20  1  0  0  0  0
  5 19  1  0  0  0  0
  5  7  1  0  0  0  0
  6  7  2  0  0  0  0
  6 12  1  0  0  0  0
  7  8  1  0  0  0  0
  8  9  1  0  0  0  0
  8 10  2  0  0  0  0
 10 11  1  0  0  0  0
 11 12  2  0  0  0  0
 14 17  1  0  0  0  0
 15 23  1  0  0  0  0
 15 16  1  0  0  0  0
 16 19  1  0  0  0  0
 19 22  1  0  0  0  0
 22  2  1  6  0  0  0
 22 23  1  0  0  0  0
 23 24  1  1  0  0  0
 24 25  1  0  0  0  0
 25 26  1  0  0  0  0
M  CHG  1  18  -1
M  END
>  <CHROM.1>
34.70075932,-129.36025015,-110.26906171,64.06518183,165.95693317,-57.91007380
26.85871682,40.67785849,65.92716667,2.71954319,0.20522853,2.66018282

>  <Name>
ligand

>  <RI>
0

>  <Rbt.Current_Directory>
/home/itssahil/PROJECTS/Mol_Feturizer/New_Systems/rnas/2HOL

>  <Rbt.Executable>
rbdock ($Id: //depot/dev/client3/rdock/2013.1/src/exe/rbdock.cxx#4 $)

>  <Rbt.Library>
libRbt.so (2013.1, Build901 2013/11/27)

>  <Rbt.Parameter_File>
/export/apps/rDock/src/rDock_2013.1_src/data/scripts/dock_solv.prm

>  <Rbt.Receptor>
prm/pocket_docking_6.prm

>  <SCORE>
-11.0635

>  <SCORE.INTER>
-9.55664

>  <SCORE.INTER.CONST>
1

>  <SCORE.INTER.POLAR>
0

>  <SCORE.INTER.ROT>
6

>  <SCORE.INTER.SOLV>
6.90394

>  <SCORE.INTER.VDW>
-16.2724

>  <SCORE.INTER.norm>
-0.367563

>  <SCORE.INTRA>
-1.50955

>  <SCORE.INTRA.DIHEDRAL>
-3.73826

>  <SCORE.INTRA.DIHEDRAL.0>
9.33621

>  <SCORE.INTRA.POLAR>
0

>  <SCORE.INTRA.POLAR.0>
0

>  <SCORE.INTRA.REPUL>
0

>  <SCORE.INTRA.REPUL.0>
0

>  <SCORE.INTRA.SOLV>
2.83855

>  <SCORE.INTRA.SOLV.lig_0>
-65.9238

>  <SCORE.INTRA.VDW>
-1.05969

>  <SCORE.INTRA.VDW.0>
-0.405582

>  <SCORE.INTRA.norm>
-0.0580594

>  <SCORE.RESTR>
0.00266859

>  <SCORE.RESTR.CAVITY>
0.00266859

>  <SCORE.RESTR.norm>
0.000102638

>  <SCORE.SYSTEM>
0

>  <SCORE.SYSTEM.CONST>
0

>  <SCORE.SYSTEM.DIHEDRAL>
0

>  <SCORE.SYSTEM.SOLV>
0

>  <SCORE.SYSTEM.norm>
0

>  <SCORE.heavy>
26

>  <SCORE.norm>
-0.42552

>  <RMSD>
4.122

$$$$
ligand
 OpenBabel11021811443D
libRbt.so/2013.1/901 2013/11/27
 26 28  0  0  0  0  0  0  0  0999 V2000
   17.3583   40.2096   64.9768 C   0  0  0  0  0  0  0  0  0  0  0  0
   24.1836   43.7901   64.4024 C   0  0  0  0  0  0  0  0  0  0  0  0
   25.5803   38.6047   65.5394 P   0  0  1  0  0  0  0  0  0  0  0  0
   23.7287   38.0788   67.2661 P   0  0  1  0  0  0  0  0  0  0  0  0
   21.7297   43.7724   65.7617 C   0  0  0  0  0  0  0  0  0  0  0  0
   20.7857   41.5077   65.2214 C   0  0  0  0  0  0  0  0  0  0  0  0
   20.5717   42.8305   65.5542 C   0  0  0  0  0  0  0  0  0  0  0  0
   19.2552   43.2733   65.6939 C   0  0  0  0  0  0  0  0  0  0  0  0
   18.9869   44.5927   66.0266 N   0  0  0  0  0  0  0  0  0  0  0  0
   18.2612   42.4121   65.4975 N   0  0  0  0  0  0  0  0  0  0  0  0
   18.5108   41.1569   65.1857 C   0  0  0  0  0  0  0  0  0  0  0  0
   19.7427   40.7074   65.0460 N   0  0  0  0  0  0  0  0  0  0  0  0
   26.8079   37.7785   65.4948 O   0  0  0  0  0  0  0  0  0  0  0  0
   23.5214   37.0667   66.1169 O   0  0  0  0  0  0  0  0  0  0  0  0
   24.2758   41.7017   67.7148 S   0  0  0  0  0  0  0  0  0  0  0  0
   22.7003   42.3877   67.4607 C   0  0  0  0  0  0  0  0  0  0  0  0
   24.3988   37.8546   64.7463 O   0  0  0  0  0  0  0  0  0  0  0  0
   23.7217   37.3020   68.6757 O   0  5  0  0  0  0  0  0  0  0  0  0
   22.8613   43.0377   66.3313 N   0  0  0  0  0  0  0  0  0  0  0  0
   25.1404   38.8287   67.0723 O   0  0  0  0  0  0  0  0  0  0  0  0
   22.5861   39.1189   67.2463 O   0  0  0  0  0  0  0  0  0  0  0  0
   24.0148   43.0398   65.6995 C   0  0  2  0  0  0  0  0  0  0  0  0
   25.0531   42.3571   66.2458 C   0  0  2  0  0  0  0  0  0  0  0  0
   26.4660   42.1942   65.7496 C   0  0  0  0  0  0  0  0  0  0  0  0
   26.8163   40.7060   65.6807 C   0  0  0  0  0  0  0  0  0  0  0  0
   25.8676   40.0320   64.8514 O   0  0  0  0  0  0  0  0  0  0  0  0
  1 11  1  0  0  0  0
  3 13  1  6  0  0  0
  3 17  1  0  0  0  0
  3 20  1  0  0  0  0
  3 26  1  0  0  0  0
  4 14  1  0  0  0  0
  4 18  1  1  0  0  0
  4 21  2  0  0  0  0
  4 20  1  0  0  0  0
  5 19  1  0  0  0  0
  5  7  1  0  0  0  0
  6  7  2  0  0  0  0
  6 12  1  0  0  0  0
  7  8  1  0  0  0  0
  8  9  1  0  0  0  0
  8 10  2  0  0  0  0
 10 11  1  0  0  0  0
 11 12  2  0  0  0  0
 14 17  1  0  0  0  0
 15 23  1  0  0  0  0
 15 16  1  0  0  0  0
 16 19  1  0  0  0  0
 19 22  1  0  0  0  0
 22  2  1  1  0  0  0
 22 23  1  0  0  0  0
 23 24  1  6  0  0  0
 24 25  1  0  0  0  0
 25 26  1  0  0  0  0
M  CHG  1  18  -1
M  END
>  <CHROM.1>
-57.00142410,-33.11249143,53.19680966,56.38064139,-141.41385388,-66.06461631
23.10958317,40.62797156,66.09034357,2.56133619,-0.03524626,-0.11850003

>  <Name>
ligand

>  <RI>
0

>  <Rbt.Current_Directory>
/home/itssahil/PROJECTS/Mol_Feturizer/New_Systems/rnas/2HOL

>  <Rbt.Executable>
rbdock ($Id: //depot/dev/client3/rdock/2013.1/src/exe/rbdock.cxx#4 $)

>  <Rbt.Library>
libRbt.so (2013.1, Build901 2013/11/27)

>  <Rbt.Parameter_File>
/export/apps/rDock/src/rDock_2013.1_src/data/scripts/dock_solv.prm

>  <Rbt.Receptor>
prm/pocket_docking_4.prm

>  <SCORE>
-18.0866

>  <SCORE.INTER>
-15.8317

>  <SCORE.INTER.CONST>
1

>  <SCORE.INTER.POLAR>
0

>  <SCORE.INTER.ROT>
6

>  <SCORE.INTER.SOLV>
24.3828

>  <SCORE.INTER.VDW>
-26.282

>  <SCORE.INTER.norm>
-0.60891

>  <SCORE.INTRA>
-2.25494

>  <SCORE.INTRA.DIHEDRAL>
1.0856

>  <SCORE.INTRA.DIHEDRAL.0>
9.33621

>  <SCORE.INTRA.POLAR>
0

>  <SCORE.INTRA.POLAR.0>
0

>  <SCORE.INTRA.REPUL>
0

>  <SCORE.INTRA.REPUL.0>
0

>  <SCORE.INTRA.SOLV>
0.842505

>  <SCORE.INTRA.SOLV.lig_0>
-65.9238

>  <SCORE.INTRA.VDW>
-3.21899

>  <SCORE.INTRA.VDW.0>
-0.405582

>  <SCORE.INTRA.norm>
-0.0867283

>  <SCORE.RESTR>
0

>  <SCORE.RESTR.CAVITY>
0

>  <SCORE.RESTR.norm>
0

>  <SCORE.SYSTEM>
0

>  <SCORE.SYSTEM.CONST>
0

>  <SCORE.SYSTEM.DIHEDRAL>
0

>  <SCORE.SYSTEM.SOLV>
0

>  <SCORE.SYSTEM.norm>
0

>  <SCORE.heavy>
26

>  <SCORE.norm>
-0.695638

>  <RMSD>
4.156

$$$$
ligand
 OpenBabel11021811443D
libRbt.so/2013.1/901 2013/11/27
 26 28  0  0  0  0  0  0  0  0999 V2000
   17.6434   40.9208   64.7427 C   0  0  0  0  0  0  0  0  0  0  0  0
   24.3339   44.5393   67.4461 C   0  0  0  0  0  0  0  0  0  0  0  0
   27.0527   41.9008   65.0521 P   0  0  1  0  0  0  0  0  0  0  0  0
   29.1526   42.4448   66.4597 P   0  0  1  0  0  0  0  0  0  0  0  0
   21.6420   44.4931   66.6581 C   0  0  0  0  0  0  0  0  0  0  0  0
   19.3189   44.0006   65.8380 C   0  0  0  0  0  0  0  0  0  0  0  0
   20.5845   43.5464   66.1512 C   0  0  0  0  0  0  0  0  0  0  0  0
   20.8600   42.1879   65.9863 C   0  0  0  0  0  0  0  0  0  0  0  0
   22.1156   41.6817   66.2873 N   0  0  0  0  0  0  0  0  0  0  0  0
   19.8983   41.3845   65.5414 N   0  0  0  0  0  0  0  0  0  0  0  0
   18.7054   41.8611   65.2498 C   0  0  0  0  0  0  0  0  0  0  0  0
   18.4132   43.1389   65.3948 N   0  0  0  0  0  0  0  0  0  0  0  0
   26.6519   40.4926   64.8334 O   0  0  0  0  0  0  0  0  0  0  0  0
   28.0323   42.1551   67.4840 O   0  0  0  0  0  0  0  0  0  0  0  0
   23.8560   44.9556   63.5808 S   0  0  0  0  0  0  0  0  0  0  0  0
   22.3220   44.7892   64.3786 C   0  0  0  0  0  0  0  0  0  0  0  0
   26.5364   42.3884   66.4956 O   0  0  0  0  0  0  0  0  0  0  0  0
   30.4689   41.6046   66.8493 O   0  5  0  0  0  0  0  0  0  0  0  0
   22.6774   44.6617   65.6361 N   0  0  0  0  0  0  0  0  0  0  0  0
   28.6577   42.0174   64.9883 O   0  0  0  0  0  0  0  0  0  0  0  0
   29.4830   43.9542   66.4737 O   0  0  0  0  0  0  0  0  0  0  0  0
   23.9418   44.6857   65.9975 C   0  0  2  0  0  0  0  0  0  0  0  0
   24.8870   44.8379   65.0353 C   0  0  2  0  0  0  0  0  0  0  0  0
   26.3870   44.8956   65.1594 C   0  0  0  0  0  0  0  0  0  0  0  0
   27.0267   44.1102   64.0123 C   0  0  0  0  0  0  0  0  0  0  0  0
   26.4032   42.8287   63.9075 O   0  0  0  0  0  0  0  0  0  0  0  0
  1 11  1  0  0  0  0
  3 13  1  6  0  0  0
  3 17  1  0  0  0  0
  3 20  1  0  0  0  0
  3 26  1  0  0  0  0
  4 14  1  0  0  0  0
  4 18  1  1  0  0  0
  4 21  2  0  0  0  0
  4 20  1  0  0  0  0
  5 19  1  0  0  0  0
  5  7  1  0  0  0  0
  6  7  2  0  0  0  0
  6 12  1  0  0  0  0
  7  8  1  0  0  0  0
  8  9  1  0  0  0  0
  8 10  2  0  0  0  0
 10 11  1  0  0  0  0
 11 12  2  0  0  0  0
 14 17  1  0  0  0  0
 15 23  1  0  0  0  0
 15 16  1  0  0  0  0
 16 19  1  0  0  0  0
 19 22  1  0  0  0  0
 22  2  1  6  0  0  0
 22 23  1  0  0  0  0
 23 24  1  1  0  0  0
 24 25  1  0  0  0  0
 25 26  1  0  0  0  0
M  CHG  1  18  -1
M  END
>  <CHROM.1>
41.74480491,-110.29803087,-40.71290623,-48.71036767,-79.49445057,-168.92025906
24.63163812,43.04921855,65.54061977,3.08882271,-0.04677195,-0.26045365

>  <Name>
ligand

>  <RI>
0

>  <Rbt.Current_Directory>
/home/itssahil/PROJECTS/Mol_Feturizer/New_Systems/rnas/2HOL

>  <Rbt.Executable>
rbdock ($Id: //depot/dev/client3/rdock/2013.1/src/exe/rbdock.cxx#4 $)

>  <Rbt.Library>
libRbt.so (2013.1, Build901 2013/11/27)

>  <Rbt.Parameter_File>
/export/apps/rDock/src/rDock_2013.1_src/data/scripts/dock_solv.prm

>  <Rbt.Receptor>
prm/pocket_docking_6.prm

>  <SCORE>
-20.3316

>  <SCORE.INTER>
-19.6377

>  <SCORE.INTER.CONST>
1

>  <SCORE.INTER.POLAR>
0

>  <SCORE.INTER.ROT>
6

>  <SCORE.INTER.SOLV>
8.10598

>  <SCORE.INTER.VDW>
-23.3938

>  <SCORE.INTER.norm>
-0.755298

>  <SCORE.INTRA>
-0.693817

>  <SCORE.INTRA.DIHEDRAL>
-1.95094

>  <SCORE.INTRA.DIHEDRAL.0>
9.33621

>  <SCORE.INTRA.POLAR>
0

>  <SCORE.INTRA.POLAR.0>
0

>  <SCORE.INTRA.REPUL>
0

>  <SCORE.INTRA.REPUL.0>
0

>  <SCORE.INTRA.SOLV>
4.17278

>  <SCORE.INTRA.SOLV.lig_0>
-65.9238

>  <SCORE.INTRA.VDW>
-1.80474

>  <SCORE.INTRA.VDW.0>
-0.405582

>  <SCORE.INTRA.norm>
-0.0266853

>  <SCORE.RESTR>
0

>  <SCORE.RESTR.CAVITY>
0

>  <SCORE.RESTR.norm>
0

>  <SCORE.SYSTEM>
0

>  <SCORE.SYSTEM.CONST>
0

>  <SCORE.SYSTEM.DIHEDRAL>
0

>  <SCORE.SYSTEM.SOLV>
0

>  <SCORE.SYSTEM.norm>
0

>  <SCORE.heavy>
26

>  <SCORE.norm>
-0.781983

>  <RMSD>
4.181

$$$$
ligand
 OpenBabel11021811443D
libRbt.so/2013.1/901 2013/11/27
 26 28  0  0  0  0  0  0  0  0999 V2000
   24.1446   44.7082   67.0277 C   0  0  0  0  0  0  0  0  0  0  0  0
   21.3176   39.6838   68.1743 C   0  0  0  0  0  0  0  0  0  0  0  0
   26.1790   37.1198   70.3049 P   0  0  1  0  0  0  0  0  0  0  0  0
   27.6212   38.4218   68.5986 P   0  0  1  0  0  0  0  0  0  0  0  0
   20.8238   40.3452   65.4932 C   0  0  0  0  0  0  0  0  0  0  0  0
   21.2171   42.5144   66.6981 C   0  0  0  0  0  0  0  0  0  0  0  0
   21.7039   41.4995   65.8985 C   0  0  0  0  0  0  0  0  0  0  0  0
   23.0324   41.5695   65.4754 C   0  0  0  0  0  0  0  0  0  0  0  0
   23.5691   40.5755   64.6707 N   0  0  0  0  0  0  0  0  0  0  0  0
   23.7747   42.6070   65.8507 N   0  0  0  0  0  0  0  0  0  0  0  0
   23.2709   43.5513   66.6185 C   0  0  0  0  0  0  0  0  0  0  0  0
   22.0201   43.5148   67.0348 N   0  0  0  0  0  0  0  0  0  0  0  0
   26.8224   36.1975   71.2677 O   0  0  0  0  0  0  0  0  0  0  0  0
   27.7428   39.2051   69.9252 O   0  0  0  0  0  0  0  0  0  0  0  0
   22.6005   36.9686   65.6596 S   0  0  0  0  0  0  0  0  0  0  0  0
   21.8623   38.2943   64.8139 C   0  0  0  0  0  0  0  0  0  0  0  0
   26.2971   38.6300   70.8464 O   0  0  0  0  0  0  0  0  0  0  0  0
   29.0872   38.1800   67.9798 O   0  5  0  0  0  0  0  0  0  0  0  0
   21.5011   39.0832   65.7993 N   0  0  0  0  0  0  0  0  0  0  0  0
   26.9141   37.0022   68.8768 O   0  0  0  0  0  0  0  0  0  0  0  0
   26.7685   39.2348   67.5988 O   0  0  0  0  0  0  0  0  0  0  0  0
   21.7375   38.7664   67.0537 C   0  0  2  0  0  0  0  0  0  0  0  0
   22.3618   37.5903   67.3175 C   0  0  2  0  0  0  0  0  0  0  0  0
   22.7491   36.9809   68.6394 C   0  0  0  0  0  0  0  0  0  0  0  0
   24.1074   37.5320   69.0792 C   0  0  0  0  0  0  0  0  0  0  0  0
   24.6257   36.7278   70.1407 O   0  0  0  0  0  0  0  0  0  0  0  0
  1 11  1  0  0  0  0
  3 13  1  1  0  0  0
  3 17  1  0  0  0  0
  3 20  1  0  0  0  0
  3 26  1  0  0  0  0
  4 14  1  0  0  0  0
  4 18  1  6  0  0  0
  4 21  2  0  0  0  0
  4 20  1  0  0  0  0
  5 19  1  0  0  0  0
  5  7  1  0  0  0  0
  6  7  2  0  0  0  0
  6 12  1  0  0  0  0
  7  8  1  0  0  0  0
  8  9  1  0  0  0  0
  8 10  2  0  0  0  0
 10 11  1  0  0  0  0
 11 12  2  0  0  0  0
 14 17  1  0  0  0  0
 15 23  1  0  0  0  0
 15 16  1  0  0  0  0
 16 19  1  0  0  0  0
 19 22  1  0  0  0  0
 22  2  1  1  0  0  0
 22 23  1  0  0  0  0
 23 24  1  6  0  0  0
 24 25  1  0  0  0  0
 25 26  1  0  0  0  0
M  CHG  1  18  -1
M  END
>  <CHROM.1>
-114.29563917,-128.54423311,94.70409017,-165.79535682,166.24720370,-172.58970733
24.32115566,39.15819854,67.74968533,-2.43111316,0.50093419,2.89049013

>  <Name>
ligand

>  <RI>
0

>  <Rbt.Current_Directory>
/home/itssahil/PROJECTS/Mol_Feturizer/New_Systems/rnas/2HOL

>  <Rbt.Executable>
rbdock ($Id: //depot/dev/client3/rdock/2013.1/src/exe/rbdock.cxx#4 $)

>  <Rbt.Library>
libRbt.so (2013.1, Build901 2013/11/27)

>  <Rbt.Parameter_File>
/export/apps/rDock/src/rDock_2013.1_src/data/scripts/dock_solv.prm

>  <Rbt.Receptor>
prm/pocket_docking_5.prm

>  <SCORE>
-13.3865

>  <SCORE.INTER>
-12.2749

>  <SCORE.INTER.CONST>
1

>  <SCORE.INTER.POLAR>
0

>  <SCORE.INTER.ROT>
6

>  <SCORE.INTER.SOLV>
15.1201

>  <SCORE.INTER.VDW>
-20.8233

>  <SCORE.INTER.norm>
-0.472111

>  <SCORE.INTRA>
-1.11163

>  <SCORE.INTRA.DIHEDRAL>
-2.85178

>  <SCORE.INTRA.DIHEDRAL.0>
9.33621

>  <SCORE.INTRA.POLAR>
0

>  <SCORE.INTRA.POLAR.0>
0

>  <SCORE.INTRA.REPUL>
0

>  <SCORE.INTRA.REPUL.0>
0

>  <SCORE.INTRA.SOLV>
3.10667

>  <SCORE.INTRA.SOLV.lig_0>
-65.9238

>  <SCORE.INTRA.VDW>
-1.23907

>  <SCORE.INTRA.VDW.0>
-0.405582

>  <SCORE.INTRA.norm>
-0.0427548

>  <SCORE.RESTR>
0

>  <SCORE.RESTR.CAVITY>
0

>  <SCORE.RESTR.norm>
0

>  <SCORE.SYSTEM>
0

>  <SCORE.SYSTEM.CONST>
0

>  <SCORE.SYSTEM.DIHEDRAL>
0

>  <SCORE.SYSTEM.SOLV>
0

>  <SCORE.SYSTEM.norm>
0

>  <SCORE.heavy>
26

>  <SCORE.norm>
-0.514866

>  <RMSD>
4.241

$$$$
ligand
 OpenBabel11021811443D
libRbt.so/2013.1/901 2013/11/27
 26 28  0  0  0  0  0  0  0  0999 V2000
   17.4842   40.6379   64.5434 C   0  0  0  0  0  0  0  0  0  0  0  0
   24.0164   42.9903   67.2106 C   0  0  0  0  0  0  0  0  0  0  0  0
   27.3406   39.7853   65.7393 P   0  0  1  0  0  0  0  0  0  0  0  0
   25.1248   38.4949   66.0735 P   0  0  1  0  0  0  0  0  0  0  0  0
   21.5074   44.0941   66.6139 C   0  0  0  0  0  0  0  0  0  0  0  0
   19.4139   43.6727   65.2904 C   0  0  0  0  0  0  0  0  0  0  0  0
   20.4431   43.1782   66.0666 C   0  0  0  0  0  0  0  0  0  0  0  0
   20.4731   41.8079   66.3313 C   0  0  0  0  0  0  0  0  0  0  0  0
   21.4854   41.2617   67.1061 N   0  0  0  0  0  0  0  0  0  0  0  0
   19.5127   41.0341   65.8341 N   0  0  0  0  0  0  0  0  0  0  0  0
   18.5515   41.5474   65.0940 C   0  0  0  0  0  0  0  0  0  0  0  0
   18.4945   42.8373   64.8258 N   0  0  0  0  0  0  0  0  0  0  0  0
   28.5902   39.2832   66.3539 O   0  0  0  0  0  0  0  0  0  0  0  0
   25.8779   37.7399   64.9551 O   0  0  0  0  0  0  0  0  0  0  0  0
   23.9020   44.7464   63.7113 S   0  0  0  0  0  0  0  0  0  0  0  0
   22.3621   44.8551   64.5076 C   0  0  0  0  0  0  0  0  0  0  0  0
   27.0538   38.9844   64.3739 O   0  0  0  0  0  0  0  0  0  0  0  0
   24.6143   37.4458   67.1821 O   0  5  0  0  0  0  0  0  0  0  0  0
   22.5901   44.2243   65.6364 N   0  0  0  0  0  0  0  0  0  0  0  0
   26.1146   39.5636   66.7597 O   0  0  0  0  0  0  0  0  0  0  0  0
   23.9107   39.2333   65.4665 O   0  0  0  0  0  0  0  0  0  0  0  0
   23.7698   43.7108   65.9090 C   0  0  2  0  0  0  0  0  0  0  0  0
   24.7592   43.8374   64.9884 C   0  0  2  0  0  0  0  0  0  0  0  0
   26.1840   43.3508   65.0327 C   0  0  0  0  0  0  0  0  0  0  0  0
   26.2036   41.8207   65.0125 C   0  0  0  0  0  0  0  0  0  0  0  0
   27.4924   41.3562   65.4190 O   0  0  0  0  0  0  0  0  0  0  0  0
  1 11  1  0  0  0  0
  3 13  1  1  0  0  0
  3 17  1  0  0  0  0
  3 20  1  0  0  0  0
  3 26  1  0  0  0  0
  4 14  1  0  0  0  0
  4 18  1  1  0  0  0
  4 21  2  0  0  0  0
  4 20  1  0  0  0  0
  5 19  1  0  0  0  0
  5  7  1  0  0  0  0
  6  7  2  0  0  0  0
  6 12  1  0  0  0  0
  7  8  1  0  0  0  0
  8  9  1  0  0  0  0
  8 10  2  0  0  0  0
 10 11  1  0  0  0  0
 11 12  2  0  0  0  0
 14 17  1  0  0  0  0
 15 23  1  0  0  0  0
 15 16  1  0  0  0  0
 16 19  1  0  0  0  0
 19 22  1  0  0  0  0
 22  2  1  6  0  0  0
 22 23  1  0  0  0  0
 23 24  1  1  0  0  0
 24 25  1  0  0  0  0
 25 26  1  0  0  0  0
M  CHG  1  18  -1
M  END
>  <CHROM.1>
68.18411550,-88.07723167,-113.71092865,-164.21901925,165.83865671,-171.82254854
23.76240757,41.39565998,65.57040410,2.66094208,0.03504107,-0.19082277

>  <Name>
ligand

>  <RI>
0

>  <Rbt.Current_Directory>
/home/itssahil/PROJECTS/Mol_Feturizer/New_Systems/rnas/2HOL

>  <Rbt.Executable>
rbdock ($Id: //depot/dev/client3/rdock/2013.1/src/exe/rbdock.cxx#4 $)

>  <Rbt.Library>
libRbt.so (2013.1, Build901 2013/11/27)

>  <Rbt.Parameter_File>
/export/apps/rDock/src/rDock_2013.1_src/data/scripts/dock_solv.prm

>  <Rbt.Receptor>
prm/pocket_docking_5.prm

>  <SCORE>
-22.4353

>  <SCORE.INTER>
-21.1575

>  <SCORE.INTER.CONST>
1

>  <SCORE.INTER.POLAR>
0

>  <SCORE.INTER.ROT>
6

>  <SCORE.INTER.SOLV>
14.1555

>  <SCORE.INTER.VDW>
-26.4235

>  <SCORE.INTER.norm>
-0.813751

>  <SCORE.INTRA>
-1.27779

>  <SCORE.INTRA.DIHEDRAL>
-2.81252

>  <SCORE.INTRA.DIHEDRAL.0>
9.33621

>  <SCORE.INTRA.POLAR>
0

>  <SCORE.INTRA.POLAR.0>
0

>  <SCORE.INTRA.REPUL>
0

>  <SCORE.INTRA.REPUL.0>
0

>  <SCORE.INTRA.SOLV>
4.48554

>  <SCORE.INTRA.SOLV.lig_0>
-65.9238

>  <SCORE.INTRA.VDW>
-2.1143

>  <SCORE.INTRA.VDW.0>
-0.405582

>  <SCORE.INTRA.norm>
-0.0491459

>  <SCORE.RESTR>
0

>  <SCORE.RESTR.CAVITY>
0

>  <SCORE.RESTR.norm>
0

>  <SCORE.SYSTEM>
0

>  <SCORE.SYSTEM.CONST>
0

>  <SCORE.SYSTEM.DIHEDRAL>
0

>  <SCORE.SYSTEM.SOLV>
0

>  <SCORE.SYSTEM.norm>
0

>  <SCORE.heavy>
26

>  <SCORE.norm>
-0.862897

>  <RMSD>
4.247

$$$$
ligand
 OpenBabel11021811443D
libRbt.so/2013.1/901 2013/11/27
 26 28  0  0  0  0  0  0  0  0999 V2000
   16.9671   39.7630   64.1325 C   0  0  0  0  0  0  0  0  0  0  0  0
   22.2021   44.7634   65.8401 C   0  0  0  0  0  0  0  0  0  0  0  0
   27.4206   45.1658   65.3312 P   0  0  1  0  0  0  0  0  0  0  0  0
   29.4221   43.6374   65.9183 P   0  0  1  0  0  0  0  0  0  0  0  0
   21.3258   42.2765   66.7975 C   0  0  0  0  0  0  0  0  0  0  0  0
   20.1104   40.2384   65.9725 C   0  0  0  0  0  0  0  0  0  0  0  0
   20.1716   41.6125   66.0918 C   0  0  0  0  0  0  0  0  0  0  0  0
   19.1367   42.3714   65.5423 C   0  0  0  0  0  0  0  0  0  0  0  0
   19.1515   43.7551   65.6348 N   0  0  0  0  0  0  0  0  0  0  0  0
   18.1386   41.7479   64.9232 N   0  0  0  0  0  0  0  0  0  0  0  0
   18.1177   40.4337   64.8364 C   0  0  0  0  0  0  0  0  0  0  0  0
   19.0797   39.6884   65.3445 N   0  0  0  0  0  0  0  0  0  0  0  0
   27.6585   46.5202   64.7830 O   0  0  0  0  0  0  0  0  0  0  0  0
   29.2449   43.5165   64.3879 O   0  0  0  0  0  0  0  0  0  0  0  0
   24.3549   41.7656   64.5284 S   0  0  0  0  0  0  0  0  0  0  0  0
   23.0819   41.2037   65.5681 C   0  0  0  0  0  0  0  0  0  0  0  0
   27.5430   44.0794   64.1512 O   0  0  0  0  0  0  0  0  0  0  0  0
   30.9682   43.9253   66.2603 O   0  5  0  0  0  0  0  0  0  0  0  0
   22.4840   42.3238   65.9024 N   0  0  0  0  0  0  0  0  0  0  0  0
   28.5149   44.8483   66.4693 O   0  0  0  0  0  0  0  0  0  0  0  0
   28.9835   42.3176   66.5916 O   0  0  0  0  0  0  0  0  0  0  0  0
   22.9004   43.4857   65.4481 C   0  0  2  0  0  0  0  0  0  0  0  0
   23.9784   43.5095   64.6235 C   0  0  2  0  0  0  0  0  0  0  0  0
   24.6638   44.6797   63.9681 C   0  0  0  0  0  0  0  0  0  0  0  0
   25.0576   45.7053   65.0336 C   0  0  0  0  0  0  0  0  0  0  0  0
   25.9456   45.0974   65.9737 O   0  0  0  0  0  0  0  0  0  0  0  0
  1 11  1  0  0  0  0
  3 13  1  6  0  0  0
  3 17  1  0  0  0  0
  3 20  1  0  0  0  0
  3 26  1  0  0  0  0
  4 14  1  0  0  0  0
  4 18  1  1  0  0  0
  4 21  2  0  0  0  0
  4 20  1  0  0  0  0
  5 19  1  0  0  0  0
  5  7  1  0  0  0  0
  6  7  2  0  0  0  0
  6 12  1  0  0  0  0
  7  8  1  0  0  0  0
  8  9  1  0  0  0  0
  8 10  2  0  0  0  0
 10 11  1  0  0  0  0
 11 12  2  0  0  0  0
 14 17  1  0  0  0  0
 15 23  1  0  0  0  0
 15 16  1  0  0  0  0
 16 19  1  0  0  0  0
 19 22  1  0  0  0  0
 22  2  1  1  0  0  0
 22 23  1  0  0  0  0
 23 24  1  6  0  0  0
 24 25  1  0  0  0  0
 25 26  1  0  0  0  0
M  CHG  1  18  -1
M  END
>  <CHROM.1>
-67.92377760,78.83217102,-125.71257550,59.91595017,83.02131595,45.78907003
24.35013131,43.15463554,65.36953682,-2.83441477,-0.05118073,-0.06706330

>  <Name>
ligand

>  <RI>
0

>  <Rbt.Current_Directory>
/home/itssahil/PROJECTS/Mol_Feturizer/New_Systems/rnas/2HOL

>  <Rbt.Executable>
rbdock ($Id: //depot/dev/client3/rdock/2013.1/src/exe/rbdock.cxx#4 $)

>  <Rbt.Library>
libRbt.so (2013.1, Build901 2013/11/27)

>  <Rbt.Parameter_File>
/export/apps/rDock/src/rDock_2013.1_src/data/scripts/dock_solv.prm

>  <Rbt.Receptor>
prm/pocket_docking_7.prm

>  <SCORE>
-19.6749

>  <SCORE.INTER>
-19.4249

>  <SCORE.INTER.CONST>
1

>  <SCORE.INTER.POLAR>
0

>  <SCORE.INTER.ROT>
6

>  <SCORE.INTER.SOLV>
18.1818

>  <SCORE.INTER.VDW>
-26.6106

>  <SCORE.INTER.norm>
-0.747112

>  <SCORE.INTRA>
-0.249965

>  <SCORE.INTRA.DIHEDRAL>
-2.13524

>  <SCORE.INTRA.DIHEDRAL.0>
9.33621

>  <SCORE.INTRA.POLAR>
0

>  <SCORE.INTRA.POLAR.0>
0

>  <SCORE.INTRA.REPUL>
0

>  <SCORE.INTRA.REPUL.0>
0

>  <SCORE.INTRA.SOLV>
2.08255

>  <SCORE.INTRA.SOLV.lig_0>
-65.9238

>  <SCORE.INTRA.VDW>
-0.22362

>  <SCORE.INTRA.VDW.0>
-0.405582

>  <SCORE.INTRA.norm>
-0.00961404

>  <SCORE.RESTR>
0

>  <SCORE.RESTR.CAVITY>
0

>  <SCORE.RESTR.norm>
0

>  <SCORE.SYSTEM>
0

>  <SCORE.SYSTEM.CONST>
0

>  <SCORE.SYSTEM.DIHEDRAL>
0

>  <SCORE.SYSTEM.SOLV>
0

>  <SCORE.SYSTEM.norm>
0

>  <SCORE.heavy>
26

>  <SCORE.norm>
-0.756726

>  <RMSD>
4.255

$$$$
ligand
 OpenBabel11021811443D
libRbt.so/2013.1/901 2013/11/27
 26 28  0  0  0  0  0  0  0  0999 V2000
   17.6339   40.4994   64.8020 C   0  0  0  0  0  0  0  0  0  0  0  0
   23.8841   45.1564   67.5041 C   0  0  0  0  0  0  0  0  0  0  0  0
   28.7964   43.5603   66.8516 P   0  0  1  0  0  0  0  0  0  0  0  0
   27.7324   41.2829   67.4579 P   0  0  1  0  0  0  0  0  0  0  0  0
   21.3071   44.4297   66.6670 C   0  0  0  0  0  0  0  0  0  0  0  0
   19.0978   43.7513   65.6818 C   0  0  0  0  0  0  0  0  0  0  0  0
   20.3358   43.3883   66.1738 C   0  0  0  0  0  0  0  0  0  0  0  0
   20.6651   42.0321   66.2024 C   0  0  0  0  0  0  0  0  0  0  0  0
   21.8958   41.6157   66.6875 N   0  0  0  0  0  0  0  0  0  0  0  0
   19.7784   41.1440   65.7626 N   0  0  0  0  0  0  0  0  0  0  0  0
   18.6099   41.5347   65.2968 C   0  0  0  0  0  0  0  0  0  0  0  0
   18.2683   42.8078   65.2566 N   0  0  0  0  0  0  0  0  0  0  0  0
   30.0371   44.0018   67.5278 O   0  0  0  0  0  0  0  0  0  0  0  0
   28.8889   40.9532   66.4873 O   0  0  0  0  0  0  0  0  0  0  0  0
   23.5607   44.8503   63.6126 S   0  0  0  0  0  0  0  0  0  0  0  0
   22.0469   44.4974   64.3880 C   0  0  0  0  0  0  0  0  0  0  0  0
   29.1657   42.5393   65.6646 O   0  0  0  0  0  0  0  0  0  0  0  0
   27.8265   40.3294   68.7512 O   0  5  0  0  0  0  0  0  0  0  0  0
   22.3460   44.6461   65.6577 N   0  0  0  0  0  0  0  0  0  0  0  0
   27.8391   42.8228   67.9161 O   0  0  0  0  0  0  0  0  0  0  0  0
   26.3817   41.0502   66.7445 O   0  0  0  0  0  0  0  0  0  0  0  0
   23.5564   44.9883   66.0418 C   0  0  2  0  0  0  0  0  0  0  0  0
   24.5069   45.1796   65.0918 C   0  0  2  0  0  0  0  0  0  0  0  0
   25.9550   45.5657   65.2425 C   0  0  0  0  0  0  0  0  0  0  0  0
   26.7408   44.3897   65.8270 C   0  0  0  0  0  0  0  0  0  0  0  0
   28.0321   44.8397   66.2416 O   0  0  0  0  0  0  0  0  0  0  0  0
  1 11  1  0  0  0  0
  3 13  1  1  0  0  0
  3 17  1  0  0  0  0
  3 20  1  0  0  0  0
  3 26  1  0  0  0  0
  4 14  1  0  0  0  0
  4 18  1  1  0  0  0
  4 21  2  0  0  0  0
  4 20  1  0  0  0  0
  5 19  1  0  0  0  0
  5  7  1  0  0  0  0
  6  7  2  0  0  0  0
  6 12  1  0  0  0  0
  7  8  1  0  0  0  0
  8  9  1  0  0  0  0
  8 10  2  0  0  0  0
 10 11  1  0  0  0  0
 11 12  2  0  0  0  0
 14 17  1  0  0  0  0
 15 23  1  0  0  0  0
 15 16  1  0  0  0  0
 16 19  1  0  0  0  0
 19 22  1  0  0  0  0
 22  2  1  1  0  0  0
 22 23  1  0  0  0  0
 23 24  1  6  0  0  0
 24 25  1  0  0  0  0
 25 26  1  0  0  0  0
M  CHG  1  18  -1
M  END
>  <CHROM.1>
31.09744180,-102.88844391,-108.71778106,-167.38401904,179.65151089,-169.52448028
24.57624139,43.11935700,66.15972908,3.07622624,-0.16584262,-0.39303402

>  <Name>
ligand

>  <RI>
0

>  <Rbt.Current_Directory>
/home/itssahil/PROJECTS/Mol_Feturizer/New_Systems/rnas/2HOL

>  <Rbt.Executable>
rbdock ($Id: //depot/dev/client3/rdock/2013.1/src/exe/rbdock.cxx#4 $)

>  <Rbt.Library>
libRbt.so (2013.1, Build901 2013/11/27)

>  <Rbt.Parameter_File>
/export/apps/rDock/src/rDock_2013.1_src/data/scripts/dock_solv.prm

>  <Rbt.Receptor>
prm/pocket_docking_8.prm

>  <SCORE>
-23.4738

>  <SCORE.INTER>
-21.11

>  <SCORE.INTER.CONST>
1

>  <SCORE.INTER.POLAR>
0

>  <SCORE.INTER.ROT>
6

>  <SCORE.INTER.SOLV>
10.0959

>  <SCORE.INTER.VDW>
-25.0386

>  <SCORE.INTER.norm>
-0.811922

>  <SCORE.INTRA>
-2.36381

>  <SCORE.INTRA.DIHEDRAL>
-3.96946

>  <SCORE.INTRA.DIHEDRAL.0>
9.33621

>  <SCORE.INTRA.POLAR>
0

>  <SCORE.INTRA.POLAR.0>
0

>  <SCORE.INTRA.REPUL>
0

>  <SCORE.INTRA.REPUL.0>
0

>  <SCORE.INTRA.SOLV>
1.93069

>  <SCORE.INTRA.SOLV.lig_0>
-65.9238

>  <SCORE.INTRA.VDW>
-1.34442

>  <SCORE.INTRA.VDW.0>
-0.405582

>  <SCORE.INTRA.norm>
-0.0909159

>  <SCORE.RESTR>
1.23435e-05

>  <SCORE.RESTR.CAVITY>
1.23435e-05

>  <SCORE.RESTR.norm>
4.7475e-07

>  <SCORE.SYSTEM>
0

>  <SCORE.SYSTEM.CONST>
0

>  <SCORE.SYSTEM.DIHEDRAL>
0

>  <SCORE.SYSTEM.SOLV>
0

>  <SCORE.SYSTEM.norm>
0

>  <SCORE.heavy>
26

>  <SCORE.norm>
-0.902838

>  <RMSD>
4.263

$$$$
ligand
 OpenBabel11021811443D
libRbt.so/2013.1/901 2013/11/27
 26 28  0  0  0  0  0  0  0  0999 V2000
   16.7779   40.2999   63.9723 C   0  0  0  0  0  0  0  0  0  0  0  0
   21.6743   44.7541   66.1698 C   0  0  0  0  0  0  0  0  0  0  0  0
   27.5511   44.2642   65.0608 P   0  0  1  0  0  0  0  0  0  0  0  0
   28.2644   42.1388   66.3493 P   0  0  1  0  0  0  0  0  0  0  0  0
   21.2859   42.0890   66.9548 C   0  0  0  0  0  0  0  0  0  0  0  0
   19.2364   42.5155   65.5657 C   0  0  0  0  0  0  0  0  0  0  0  0
   20.0930   41.6141   66.1657 C   0  0  0  0  0  0  0  0  0  0  0  0
   19.8263   40.2513   66.0226 C   0  0  0  0  0  0  0  0  0  0  0  0
   20.6559   39.3056   66.6063 N   0  0  0  0  0  0  0  0  0  0  0  0
   18.7608   39.8730   65.3226 N   0  0  0  0  0  0  0  0  0  0  0  0
   17.9722   40.7672   64.7626 C   0  0  0  0  0  0  0  0  0  0  0  0
   18.1963   42.0615   64.8792 N   0  0  0  0  0  0  0  0  0  0  0  0
   28.5743   45.1187   64.4171 O   0  0  0  0  0  0  0  0  0  0  0  0
   28.2764   41.7403   64.8563 O   0  0  0  0  0  0  0  0  0  0  0  0
   24.2709   42.2893   64.5809 S   0  0  0  0  0  0  0  0  0  0  0  0
   23.1564   41.4368   65.6049 C   0  0  0  0  0  0  0  0  0  0  0  0
   27.2248   43.0080   64.1104 O   0  0  0  0  0  0  0  0  0  0  0  0
   29.6424   41.6771   67.0410 O   0  5  0  0  0  0  0  0  0  0  0  0
   22.3835   42.4057   66.0383 N   0  0  0  0  0  0  0  0  0  0  0  0
   28.1074   43.7362   66.4769 O   0  0  0  0  0  0  0  0  0  0  0  0
   27.0772   41.4466   67.0557 O   0  0  0  0  0  0  0  0  0  0  0  0
   22.5715   43.6526   65.6644 C   0  0  2  0  0  0  0  0  0  0  0  0
   23.5970   43.9268   64.8184 C   0  0  2  0  0  0  0  0  0  0  0  0
   24.0408   45.2441   64.2382 C   0  0  0  0  0  0  0  0  0  0  0  0
   25.5571   45.2283   64.0321 C   0  0  0  0  0  0  0  0  0  0  0  0
   26.2084   45.1206   65.2995 O   0  0  0  0  0  0  0  0  0  0  0  0
  1 11  1  0  0  0  0
  3 13  1  6  0  0  0
  3 17  1  0  0  0  0
  3 20  1  0  0  0  0
  3 26  1  0  0  0  0
  4 14  1  0  0  0  0
  4 18  1  1  0  0  0
  4 21  2  0  0  0  0
  4 20  1  0  0  0  0
  5 19  1  0  0  0  0
  5  7  1  0  0  0  0
  6  7  2  0  0  0  0
  6 12  1  0  0  0  0
  7  8  1  0  0  0  0
  8  9  1  0  0  0  0
  8 10  2  0  0  0  0
 10 11  1  0  0  0  0
 11 12  2  0  0  0  0
 14 17  1  0  0  0  0
 15 23  1  0  0  0  0
 15 16  1  0  0  0  0
 16 19  1  0  0  0  0
 19 22  1  0  0  0  0
 22  2  1  1  0  0  0
 22 23  1  0  0  0  0
 23 24  1  6  0  0  0
 24 25  1  0  0  0  0
 25 26  1  0  0  0  0
M  CHG  1  18  -1
M  END
>  <CHROM.1>
-82.85430703,-81.52264454,-31.91166372,-64.34603041,146.80874370,76.50878905
24.10127631,42.61714567,65.44662042,2.93099364,0.11049591,2.75830814

>  <Name>
ligand

>  <RI>
0

>  <Rbt.Current_Directory>
/home/itssahil/PROJECTS/Mol_Feturizer/New_Systems/rnas/2HOL

>  <Rbt.Executable>
rbdock ($Id: //depot/dev/client3/rdock/2013.1/src/exe/rbdock.cxx#4 $)

>  <Rbt.Library>
libRbt.so (2013.1, Build901 2013/11/27)

>  <Rbt.Parameter_File>
/export/apps/rDock/src/rDock_2013.1_src/data/scripts/dock_solv.prm

>  <Rbt.Receptor>
prm/pocket_docking_6.prm

>  <SCORE>
-20.6746

>  <SCORE.INTER>
-18.347

>  <SCORE.INTER.CONST>
1

>  <SCORE.INTER.POLAR>
0

>  <SCORE.INTER.ROT>
6

>  <SCORE.INTER.SOLV>
9.38326

>  <SCORE.INTER.VDW>
-22.9591

>  <SCORE.INTER.norm>
-0.705654

>  <SCORE.INTRA>
-2.33156

>  <SCORE.INTRA.DIHEDRAL>
0.224252

>  <SCORE.INTRA.DIHEDRAL.0>
9.33621

>  <SCORE.INTRA.POLAR>
0

>  <SCORE.INTRA.POLAR.0>
0

>  <SCORE.INTRA.REPUL>
0

>  <SCORE.INTRA.REPUL.0>
0

>  <SCORE.INTRA.SOLV>
0.42624

>  <SCORE.INTRA.SOLV.lig_0>
-65.9238

>  <SCORE.INTRA.VDW>
-2.65681

>  <SCORE.INTRA.VDW.0>
-0.405582

>  <SCORE.INTRA.norm>
-0.0896754

>  <SCORE.RESTR>
0.00395678

>  <SCORE.RESTR.CAVITY>
0.00395678

>  <SCORE.RESTR.norm>
0.000152184

>  <SCORE.SYSTEM>
0

>  <SCORE.SYSTEM.CONST>
0

>  <SCORE.SYSTEM.DIHEDRAL>
0

>  <SCORE.SYSTEM.SOLV>
0

>  <SCORE.SYSTEM.norm>
0

>  <SCORE.heavy>
26

>  <SCORE.norm>
-0.795178

>  <RMSD>
4.271

$$$$
ligand
 OpenBabel11021811443D
libRbt.so/2013.1/901 2013/11/27
 26 28  0  0  0  0  0  0  0  0999 V2000
   16.8924   40.7580   63.9971 C   0  0  0  0  0  0  0  0  0  0  0  0
   24.3000   41.2636   67.0560 C   0  0  0  0  0  0  0  0  0  0  0  0
   26.1178   42.3567   63.1867 P   0  0  1  0  0  0  0  0  0  0  0  0
   27.8164   41.9428   61.2815 P   0  0  1  0  0  0  0  0  0  0  0  0
   21.6252   40.4225   67.1446 C   0  0  0  0  0  0  0  0  0  0  0  0
   19.4617   39.4756   66.2877 C   0  0  0  0  0  0  0  0  0  0  0  0
   20.3729   40.5127   66.3110 C   0  0  0  0  0  0  0  0  0  0  0  0
   20.1046   41.6470   65.5430 C   0  0  0  0  0  0  0  0  0  0  0  0
   20.9885   42.7157   65.5316 N   0  0  0  0  0  0  0  0  0  0  0  0
   18.9911   41.6856   64.8171 N   0  0  0  0  0  0  0  0  0  0  0  0
   18.1463   40.6750   64.8279 C   0  0  0  0  0  0  0  0  0  0  0  0
   18.3705   39.5894   65.5422 N   0  0  0  0  0  0  0  0  0  0  0  0
   25.4768   43.6831   63.3325 O   0  0  0  0  0  0  0  0  0  0  0  0
   26.4223   41.8183   60.6263 O   0  0  0  0  0  0  0  0  0  0  0  0
   23.7015   37.8468   65.2368 S   0  0  0  0  0  0  0  0  0  0  0  0
   22.2183   38.4619   65.8996 C   0  0  0  0  0  0  0  0  0  0  0  0
   25.3526   41.5120   62.0515 O   0  0  0  0  0  0  0  0  0  0  0  0
   28.7422   42.9175   60.3964 O   0  5  0  0  0  0  0  0  0  0  0  0
   22.6101   39.5838   66.4580 N   0  0  0  0  0  0  0  0  0  0  0  0
   27.6599   42.5501   62.7645 O   0  0  0  0  0  0  0  0  0  0  0  0
   28.4715   40.5458   61.3636 O   0  0  0  0  0  0  0  0  0  0  0  0
   23.8659   39.9716   66.4108 C   0  0  2  0  0  0  0  0  0  0  0  0
   24.7647   39.1783   65.7743 C   0  0  2  0  0  0  0  0  0  0  0  0
   26.2452   39.3691   65.5733 C   0  0  0  0  0  0  0  0  0  0  0  0
   26.4869   40.2322   64.3329 C   0  0  0  0  0  0  0  0  0  0  0  0
   26.0420   41.5661   64.5876 O   0  0  0  0  0  0  0  0  0  0  0  0
  1 11  1  0  0  0  0
  3 13  1  1  0  0  0
  3 17  1  0  0  0  0
  3 20  1  0  0  0  0
  3 26  1  0  0  0  0
  4 14  1  0  0  0  0
  4 18  1  6  0  0  0
  4 21  2  0  0  0  0
  4 20  1  0  0  0  0
  5 19  1  0  0  0  0
  5  7  1  0  0  0  0
  6  7  2  0  0  0  0
  6 12  1  0  0  0  0
  7  8  1  0  0  0  0
  8  9  1  0  0  0  0
  8 10  2  0  0  0  0
 10 11  1  0  0  0  0
 11 12  2  0  0  0  0
 14 17  1  0  0  0  0
 15 23  1  0  0  0  0
 15 16  1  0  0  0  0
 16 19  1  0  0  0  0
 19 22  1  0  0  0  0
 22  2  1  1  0  0  0
 22 23  1  0  0  0  0
 23 24  1  6  0  0  0
 24 25  1  0  0  0  0
 25 26  1  0  0  0  0
M  CHG  1  18  -1
M  END
>  <CHROM.1>
-43.68187497,78.20730667,94.46705727,68.69138997,-171.68583190,171.39716968
23.97123918,40.90252020,64.20727188,2.68548858,-0.16851775,2.31851378

>  <Name>
ligand

>  <RI>
0

>  <Rbt.Current_Directory>
/home/itssahil/PROJECTS/Mol_Feturizer/New_Systems/rnas/2HOL

>  <Rbt.Executable>
rbdock ($Id: //depot/dev/client3/rdock/2013.1/src/exe/rbdock.cxx#4 $)

>  <Rbt.Library>
libRbt.so (2013.1, Build901 2013/11/27)

>  <Rbt.Parameter_File>
/export/apps/rDock/src/rDock_2013.1_src/data/scripts/dock_solv.prm

>  <Rbt.Receptor>
prm/pocket_docking_7.prm

>  <SCORE>
-21.7741

>  <SCORE.INTER>
-19.1212

>  <SCORE.INTER.CONST>
1

>  <SCORE.INTER.POLAR>
0

>  <SCORE.INTER.ROT>
6

>  <SCORE.INTER.SOLV>
13.8588

>  <SCORE.INTER.VDW>
-24.9671

>  <SCORE.INTER.norm>
-0.73543

>  <SCORE.INTRA>
-2.69275

>  <SCORE.INTRA.DIHEDRAL>
-3.8147

>  <SCORE.INTRA.DIHEDRAL.0>
9.33621

>  <SCORE.INTRA.POLAR>
0

>  <SCORE.INTRA.POLAR.0>
0

>  <SCORE.INTRA.REPUL>
0

>  <SCORE.INTRA.REPUL.0>
0

>  <SCORE.INTRA.SOLV>
1.77344

>  <SCORE.INTRA.SOLV.lig_0>
-65.9238

>  <SCORE.INTRA.VDW>
-1.67212

>  <SCORE.INTRA.VDW.0>
-0.405582

>  <SCORE.INTRA.norm>
-0.103567

>  <SCORE.RESTR>
0.039816

>  <SCORE.RESTR.CAVITY>
0.039816

>  <SCORE.RESTR.norm>
0.00153139

>  <SCORE.SYSTEM>
0

>  <SCORE.SYSTEM.CONST>
0

>  <SCORE.SYSTEM.DIHEDRAL>
0

>  <SCORE.SYSTEM.SOLV>
0

>  <SCORE.SYSTEM.norm>
0

>  <SCORE.heavy>
26

>  <SCORE.norm>
-0.837465

>  <RMSD>
4.338

$$$$
ligand
 OpenBabel11021811443D
libRbt.so/2013.1/901 2013/11/27
 26 28  0  0  0  0  0  0  0  0999 V2000
   19.9124   44.2695   65.7049 C   0  0  0  0  0  0  0  0  0  0  0  0
   24.9791   40.2558   67.5485 C   0  0  0  0  0  0  0  0  0  0  0  0
   26.0776   41.9081   63.4729 P   0  0  1  0  0  0  0  0  0  0  0  0
   27.5127   43.5921   64.8113 P   0  0  1  0  0  0  0  0  0  0  0  0
   22.2837   39.6430   68.0266 C   0  0  0  0  0  0  0  0  0  0  0  0
   22.1411   42.1286   67.6901 C   0  0  0  0  0  0  0  0  0  0  0  0
   21.6550   40.8667   67.4114 C   0  0  0  0  0  0  0  0  0  0  0  0
   20.5664   40.7531   66.5449 C   0  0  0  0  0  0  0  0  0  0  0  0
   20.0405   39.5082   66.2334 N   0  0  0  0  0  0  0  0  0  0  0  0
   20.0369   41.8574   66.0268 N   0  0  0  0  0  0  0  0  0  0  0  0
   20.5356   43.0418   66.3161 C   0  0  0  0  0  0  0  0  0  0  0  0
   21.5627   43.1831   67.1309 N   0  0  0  0  0  0  0  0  0  0  0  0
   25.0941   42.3974   62.4805 O   0  0  0  0  0  0  0  0  0  0  0  0
   28.1992   43.4686   63.4323 O   0  0  0  0  0  0  0  0  0  0  0  0
   23.6250   37.3844   65.2544 S   0  0  0  0  0  0  0  0  0  0  0  0
   22.3815   37.9610   66.3214 C   0  0  0  0  0  0  0  0  0  0  0  0
   27.5457   41.8997   62.8154 O   0  0  0  0  0  0  0  0  0  0  0  0
   27.3298   45.1470   65.1845 O   0  5  0  0  0  0  0  0  0  0  0  0
   23.0090   38.8960   66.9967 N   0  0  0  0  0  0  0  0  0  0  0  0
   26.0703   42.8784   64.7582 O   0  0  0  0  0  0  0  0  0  0  0  0
   28.3879   42.9052   65.8836 O   0  0  0  0  0  0  0  0  0  0  0  0
   24.2727   39.1781   66.7655 C   0  0  2  0  0  0  0  0  0  0  0  0
   24.9292   38.4715   65.8104 C   0  0  2  0  0  0  0  0  0  0  0  0
   26.3582   38.5771   65.3459 C   0  0  0  0  0  0  0  0  0  0  0  0
   26.6483   40.0132   64.9036 C   0  0  0  0  0  0  0  0  0  0  0  0
   25.6841   40.4145   63.9283 O   0  0  0  0  0  0  0  0  0  0  0  0
  1 11  1  0  0  0  0
  3 13  1  6  0  0  0
  3 17  1  0  0  0  0
  3 20  1  0  0  0  0
  3 26  1  0  0  0  0
  4 14  1  0  0  0  0
  4 18  1  1  0  0  0
  4 21  2  0  0  0  0
  4 20  1  0  0  0  0
  5 19  1  0  0  0  0
  5  7  1  0  0  0  0
  6  7  2  0  0  0  0
  6 12  1  0  0  0  0
  7  8  1  0  0  0  0
  8  9  1  0  0  0  0
  8 10  2  0  0  0  0
 10 11  1  0  0  0  0
 11 12  2  0  0  0  0
 14 17  1  0  0  0  0
 15 23  1  0  0  0  0
 15 16  1  0  0  0  0
 16 19  1  0  0  0  0
 19 22  1  0  0  0  0
 22  2  1  1  0  0  0
 22 23  1  0  0  0  0
 23 24  1  6  0  0  0
 24 25  1  0  0  0  0
 25 26  1  0  0  0  0
M  CHG  1  18  -1
M  END
>  <CHROM.1>
-90.41882667,-108.93361209,124.01951788,-54.07298806,-178.10612281,-178.70092010
24.44991028,41.22559581,65.42443205,2.72923841,-0.35997424,3.05263598

>  <Name>
ligand

>  <RI>
0

>  <Rbt.Current_Directory>
/home/itssahil/PROJECTS/Mol_Feturizer/New_Systems/rnas/2HOL

>  <Rbt.Executable>
rbdock ($Id: //depot/dev/client3/rdock/2013.1/src/exe/rbdock.cxx#4 $)

>  <Rbt.Library>
libRbt.so (2013.1, Build901 2013/11/27)

>  <Rbt.Parameter_File>
/export/apps/rDock/src/rDock_2013.1_src/data/scripts/dock_solv.prm

>  <Rbt.Receptor>
prm/pocket_docking_7.prm

>  <SCORE>
-16.8613

>  <SCORE.INTER>
-13.9455

>  <SCORE.INTER.CONST>
1

>  <SCORE.INTER.POLAR>
0

>  <SCORE.INTER.ROT>
6

>  <SCORE.INTER.SOLV>
13.7711

>  <SCORE.INTER.VDW>
-21.4873

>  <SCORE.INTER.norm>
-0.536364

>  <SCORE.INTRA>
-2.91584

>  <SCORE.INTRA.DIHEDRAL>
-4.62121

>  <SCORE.INTRA.DIHEDRAL.0>
9.33621

>  <SCORE.INTRA.POLAR>
0

>  <SCORE.INTRA.POLAR.0>
0

>  <SCORE.INTRA.REPUL>
0

>  <SCORE.INTRA.REPUL.0>
0

>  <SCORE.INTRA.SOLV>
2.25227

>  <SCORE.INTRA.SOLV.lig_0>
-65.9238

>  <SCORE.INTRA.VDW>
-1.73137

>  <SCORE.INTRA.VDW.0>
-0.405582

>  <SCORE.INTRA.norm>
-0.112148

>  <SCORE.RESTR>
0

>  <SCORE.RESTR.CAVITY>
0

>  <SCORE.RESTR.norm>
0

>  <SCORE.SYSTEM>
0

>  <SCORE.SYSTEM.CONST>
0

>  <SCORE.SYSTEM.DIHEDRAL>
0

>  <SCORE.SYSTEM.SOLV>
0

>  <SCORE.SYSTEM.norm>
0

>  <SCORE.heavy>
26

>  <SCORE.norm>
-0.648512

>  <RMSD>
4.356

$$$$
ligand
 OpenBabel11021811443D
libRbt.so/2013.1/901 2013/11/27
 26 28  0  0  0  0  0  0  0  0999 V2000
   17.6785   40.2248   64.7178 C   0  0  0  0  0  0  0  0  0  0  0  0
   24.1741   43.6962   64.3835 C   0  0  0  0  0  0  0  0  0  0  0  0
   25.4251   38.7035   65.6126 P   0  0  1  0  0  0  0  0  0  0  0  0
   22.8620   38.3655   65.5623 P   0  0  1  0  0  0  0  0  0  0  0  0
   21.9491   43.7308   66.0917 C   0  0  0  0  0  0  0  0  0  0  0  0
   21.0566   41.4760   65.4354 C   0  0  0  0  0  0  0  0  0  0  0  0
   20.8178   42.8040   65.7281 C   0  0  0  0  0  0  0  0  0  0  0  0
   19.5015   43.2663   65.6791 C   0  0  0  0  0  0  0  0  0  0  0  0
   19.2090   44.5917   65.9640 N   0  0  0  0  0  0  0  0  0  0  0  0
   18.5321   42.4180   65.3492 N   0  0  0  0  0  0  0  0  0  0  0  0
   18.8043   41.1572   65.0819 C   0  0  0  0  0  0  0  0  0  0  0  0
   20.0366   40.6893   65.1191 N   0  0  0  0  0  0  0  0  0  0  0  0
   26.1837   38.4339   66.8550 O   0  0  0  0  0  0  0  0  0  0  0  0
   23.4682   36.9539   65.3953 O   0  0  0  0  0  0  0  0  0  0  0  0
   24.6743   41.5239   67.6043 S   0  0  0  0  0  0  0  0  0  0  0  0
   23.1061   42.2710   67.6004 C   0  0  0  0  0  0  0  0  0  0  0  0
   25.1496   37.3196   64.8402 O   0  0  0  0  0  0  0  0  0  0  0  0
   21.7297   38.3335   66.7058 O   0  5  0  0  0  0  0  0  0  0  0  0
   23.1234   42.9428   66.4725 N   0  0  0  0  0  0  0  0  0  0  0  0
   24.0213   39.4009   65.9823 O   0  0  0  0  0  0  0  0  0  0  0  0
   22.2303   38.8143   64.2254 O   0  0  0  0  0  0  0  0  0  0  0  0
   24.1702   42.9202   65.6765 C   0  0  2  0  0  0  0  0  0  0  0  0
   25.2507   42.1880   66.0491 C   0  0  2  0  0  0  0  0  0  0  0  0
   26.5674   41.9879   65.3455 C   0  0  0  0  0  0  0  0  0  0  0  0
   27.0313   40.5411   65.5283 C   0  0  0  0  0  0  0  0  0  0  0  0
   26.2778   39.6874   64.6649 O   0  0  0  0  0  0  0  0  0  0  0  0
  1 11  1  0  0  0  0
  3 13  1  1  0  0  0
  3 17  1  0  0  0  0
  3 20  1  0  0  0  0
  3 26  1  0  0  0  0
  4 14  1  0  0  0  0
  4 18  1  1  0  0  0
  4 21  2  0  0  0  0
  4 20  1  0  0  0  0
  5 19  1  0  0  0  0
  5  7  1  0  0  0  0
  6  7  2  0  0  0  0
  6 12  1  0  0  0  0
  7  8  1  0  0  0  0
  8  9  1  0  0  0  0
  8 10  2  0  0  0  0
 10 11  1  0  0  0  0
 11 12  2  0  0  0  0
 14 17  1  0  0  0  0
 15 23  1  0  0  0  0
 15 16  1  0  0  0  0
 16 19  1  0  0  0  0
 19 22  1  0  0  0  0
 22  2  1  1  0  0  0
 22 23  1  0  0  0  0
 23 24  1  6  0  0  0
 24 25  1  0  0  0  0
 25 26  1  0  0  0  0
M  CHG  1  18  -1
M  END
>  <CHROM.1>
-70.08606962,-17.39796004,37.92236643,76.27463956,-115.68602666,-32.06915671
23.06673110,40.64590366,65.73734636,2.65196886,-0.10737959,0.13096103

>  <Name>
ligand

>  <RI>
0

>  <Rbt.Current_Directory>
/home/itssahil/PROJECTS/Mol_Feturizer/New_Systems/rnas/2HOL

>  <Rbt.Executable>
rbdock ($Id: //depot/dev/client3/rdock/2013.1/src/exe/rbdock.cxx#4 $)

>  <Rbt.Library>
libRbt.so (2013.1, Build901 2013/11/27)

>  <Rbt.Parameter_File>
/export/apps/rDock/src/rDock_2013.1_src/data/scripts/dock_solv.prm

>  <Rbt.Receptor>
prm/pocket_docking_5.prm

>  <SCORE>
-16.7653

>  <SCORE.INTER>
-17.2924

>  <SCORE.INTER.CONST>
1

>  <SCORE.INTER.POLAR>
0

>  <SCORE.INTER.ROT>
6

>  <SCORE.INTER.SOLV>
26.0128

>  <SCORE.INTER.VDW>
-27.7992

>  <SCORE.INTER.norm>
-0.665091

>  <SCORE.INTRA>
0.527083

>  <SCORE.INTRA.DIHEDRAL>
4.77196

>  <SCORE.INTRA.DIHEDRAL.0>
9.33621

>  <SCORE.INTRA.POLAR>
0

>  <SCORE.INTRA.POLAR.0>
0

>  <SCORE.INTRA.REPUL>
0

>  <SCORE.INTRA.REPUL.0>
0

>  <SCORE.INTRA.SOLV>
1.7186

>  <SCORE.INTRA.SOLV.lig_0>
-65.9238

>  <SCORE.INTRA.VDW>
-2.7182

>  <SCORE.INTRA.VDW.0>
-0.405582

>  <SCORE.INTRA.norm>
0.0202724

>  <SCORE.RESTR>
0

>  <SCORE.RESTR.CAVITY>
0

>  <SCORE.RESTR.norm>
0

>  <SCORE.SYSTEM>
0

>  <SCORE.SYSTEM.CONST>
0

>  <SCORE.SYSTEM.DIHEDRAL>
0

>  <SCORE.SYSTEM.SOLV>
0

>  <SCORE.SYSTEM.norm>
0

>  <SCORE.heavy>
26

>  <SCORE.norm>
-0.644819

>  <RMSD>
4.412

$$$$
ligand
 OpenBabel11021811443D
libRbt.so/2013.1/901 2013/11/27
 26 28  0  0  0  0  0  0  0  0999 V2000
   16.1048   39.4793   63.7670 C   0  0  0  0  0  0  0  0  0  0  0  0
   23.4972   41.3957   65.5879 C   0  0  0  0  0  0  0  0  0  0  0  0
   25.5490   37.0412   70.0768 P   0  0  1  0  0  0  0  0  0  0  0  0
   24.1431   35.1045   71.0562 P   0  0  1  0  0  0  0  0  0  0  0  0
   20.7786   41.5706   66.2571 C   0  0  0  0  0  0  0  0  0  0  0  0
   19.4284   39.6709   65.3190 C   0  0  0  0  0  0  0  0  0  0  0  0
   19.5409   41.0185   65.5979 C   0  0  0  0  0  0  0  0  0  0  0  0
   18.4788   41.8565   65.2539 C   0  0  0  0  0  0  0  0  0  0  0  0
   18.5428   43.2177   65.5123 N   0  0  0  0  0  0  0  0  0  0  0  0
   17.4063   41.3312   64.6692 N   0  0  0  0  0  0  0  0  0  0  0  0
   17.3389   40.0384   64.4256 C   0  0  0  0  0  0  0  0  0  0  0  0
   18.3247   39.2201   64.7378 N   0  0  0  0  0  0  0  0  0  0  0  0
   26.7797   37.4868   70.7686 O   0  0  0  0  0  0  0  0  0  0  0  0
   25.3187   34.4281   70.3156 O   0  0  0  0  0  0  0  0  0  0  0  0
   22.3111   38.5187   67.9665 S   0  0  0  0  0  0  0  0  0  0  0  0
   20.9968   39.5903   67.5900 C   0  0  0  0  0  0  0  0  0  0  0  0
   25.8714   35.7350   69.1949 O   0  0  0  0  0  0  0  0  0  0  0  0
   24.0040   34.4774   72.5319 O   0  5  0  0  0  0  0  0  0  0  0  0
   21.5741   40.4691   66.8036 N   0  0  0  0  0  0  0  0  0  0  0  0
   24.4190   36.6869   71.1682 O   0  0  0  0  0  0  0  0  0  0  0  0
   22.8348   34.8643   70.2699 O   0  0  0  0  0  0  0  0  0  0  0  0
   22.8491   40.3792   66.4936 C   0  0  2  0  0  0  0  0  0  0  0  0
   23.5708   39.3540   67.0139 C   0  0  2  0  0  0  0  0  0  0  0  0
   25.0270   39.0133   66.8350 C   0  0  0  0  0  0  0  0  0  0  0  0
   25.4080   37.8769   67.7866 C   0  0  0  0  0  0  0  0  0  0  0  0
   25.0152   38.2191   69.1173 O   0  0  0  0  0  0  0  0  0  0  0  0
  1 11  1  0  0  0  0
  3 13  1  1  0  0  0
  3 17  1  0  0  0  0
  3 20  1  0  0  0  0
  3 26  1  0  0  0  0
  4 14  1  0  0  0  0
  4 18  1  1  0  0  0
  4 21  2  0  0  0  0
  4 20  1  0  0  0  0
  5 19  1  0  0  0  0
  5  7  1  0  0  0  0
  6  7  2  0  0  0  0
  6 12  1  0  0  0  0
  7  8  1  0  0  0  0
  8  9  1  0  0  0  0
  8 10  2  0  0  0  0
 10 11  1  0  0  0  0
 11 12  2  0  0  0  0
 14 17  1  0  0  0  0
 15 23  1  0  0  0  0
 15 16  1  0  0  0  0
 16 19  1  0  0  0  0
 19 22  1  0  0  0  0
 22  2  1  1  0  0  0
 22 23  1  0  0  0  0
 23 24  1  6  0  0  0
 24 25  1  0  0  0  0
 25 26  1  0  0  0  0
M  CHG  1  18  -1
M  END
>  <CHROM.1>
-51.94292973,-13.88473216,-8.22048162,-52.41175392,-175.55049204,101.65552674
22.49077310,38.40634832,67.94334528,2.31173885,-0.25904649,-0.60418294

>  <Name>
ligand

>  <RI>
0

>  <Rbt.Current_Directory>
/home/itssahil/PROJECTS/Mol_Feturizer/New_Systems/rnas/2HOL

>  <Rbt.Executable>
rbdock ($Id: //depot/dev/client3/rdock/2013.1/src/exe/rbdock.cxx#4 $)

>  <Rbt.Library>
libRbt.so (2013.1, Build901 2013/11/27)

>  <Rbt.Parameter_File>
/export/apps/rDock/src/rDock_2013.1_src/data/scripts/dock_solv.prm

>  <Rbt.Receptor>
prm/pocket_docking_7.prm

>  <SCORE>
-22.2013

>  <SCORE.INTER>
-21.6741

>  <SCORE.INTER.CONST>
1

>  <SCORE.INTER.POLAR>
0

>  <SCORE.INTER.ROT>
6

>  <SCORE.INTER.SOLV>
21.4342

>  <SCORE.INTER.VDW>
-29.1942

>  <SCORE.INTER.norm>
-0.83362

>  <SCORE.INTRA>
-0.527172

>  <SCORE.INTRA.DIHEDRAL>
-2.55345

>  <SCORE.INTRA.DIHEDRAL.0>
9.33621

>  <SCORE.INTRA.POLAR>
0

>  <SCORE.INTRA.POLAR.0>
0

>  <SCORE.INTRA.REPUL>
0

>  <SCORE.INTRA.REPUL.0>
0

>  <SCORE.INTRA.SOLV>
-0.548967

>  <SCORE.INTRA.SOLV.lig_0>
-65.9238

>  <SCORE.INTRA.VDW>
1.02404

>  <SCORE.INTRA.VDW.0>
-0.405582

>  <SCORE.INTRA.norm>
-0.0202758

>  <SCORE.RESTR>
0

>  <SCORE.RESTR.CAVITY>
0

>  <SCORE.RESTR.norm>
0

>  <SCORE.SYSTEM>
0

>  <SCORE.SYSTEM.CONST>
0

>  <SCORE.SYSTEM.DIHEDRAL>
0

>  <SCORE.SYSTEM.SOLV>
0

>  <SCORE.SYSTEM.norm>
0

>  <SCORE.heavy>
26

>  <SCORE.norm>
-0.853896

>  <RMSD>
4.466

$$$$
ligand
 OpenBabel11021811443D
libRbt.so/2013.1/901 2013/11/27
 26 28  0  0  0  0  0  0  0  0999 V2000
   16.4287   39.6193   63.9149 C   0  0  0  0  0  0  0  0  0  0  0  0
   23.6942   40.3017   65.2066 C   0  0  0  0  0  0  0  0  0  0  0  0
   25.7049   37.0773   70.6911 P   0  0  1  0  0  0  0  0  0  0  0  0
   24.2592   35.0260   71.3147 P   0  0  1  0  0  0  0  0  0  0  0  0
   21.3342   41.5532   66.0631 C   0  0  0  0  0  0  0  0  0  0  0  0
   19.8503   39.6968   65.2485 C   0  0  0  0  0  0  0  0  0  0  0  0
   20.0353   41.0427   65.4944 C   0  0  0  0  0  0  0  0  0  0  0  0
   18.9882   41.9189   65.2032 C   0  0  0  0  0  0  0  0  0  0  0  0
   19.1240   43.2801   65.4315 N   0  0  0  0  0  0  0  0  0  0  0  0
   17.8598   41.4295   64.6977 N   0  0  0  0  0  0  0  0  0  0  0  0
   17.7243   40.1369   64.4832 C   0  0  0  0  0  0  0  0  0  0  0  0
   18.6941   39.2832   64.7472 N   0  0  0  0  0  0  0  0  0  0  0  0
   26.4987   37.7683   71.7323 O   0  0  0  0  0  0  0  0  0  0  0  0
   25.7019   34.4889   71.1793 O   0  0  0  0  0  0  0  0  0  0  0  0
   22.4168   38.9737   68.6630 S   0  0  0  0  0  0  0  0  0  0  0  0
   21.3581   40.2041   68.0444 C   0  0  0  0  0  0  0  0  0  0  0  0
   26.4997   35.7727   70.1870 O   0  0  0  0  0  0  0  0  0  0  0  0
   23.6184   34.5057   72.6964 O   0  5  0  0  0  0  0  0  0  0  0  0
   21.9367   40.5206   66.9090 N   0  0  0  0  0  0  0  0  0  0  0  0
   24.2832   36.6360   71.3057 O   0  0  0  0  0  0  0  0  0  0  0  0
   23.4087   34.5170   70.1294 O   0  0  0  0  0  0  0  0  0  0  0  0
   23.0424   39.9281   66.5140 C   0  0  2  0  0  0  0  0  0  0  0  0
   23.5883   38.9771   67.3141 C   0  0  2  0  0  0  0  0  0  0  0  0
   24.8329   38.1517   67.1177 C   0  0  0  0  0  0  0  0  0  0  0  0
   25.0578   37.2640   68.3438 C   0  0  0  0  0  0  0  0  0  0  0  0
   25.4645   38.0735   69.4490 O   0  0  0  0  0  0  0  0  0  0  0  0
  1 11  1  0  0  0  0
  3 13  1  1  0  0  0
  3 17  1  0  0  0  0
  3 20  1  0  0  0  0
  3 26  1  0  0  0  0
  4 14  1  0  0  0  0
  4 18  1  1  0  0  0
  4 21  2  0  0  0  0
  4 20  1  0  0  0  0
  5 19  1  0  0  0  0
  5  7  1  0  0  0  0
  6  7  2  0  0  0  0
  6 12  1  0  0  0  0
  7  8  1  0  0  0  0
  8  9  1  0  0  0  0
  8 10  2  0  0  0  0
 10 11  1  0  0  0  0
 11 12  2  0  0  0  0
 14 17  1  0  0  0  0
 15 23  1  0  0  0  0
 15 16  1  0  0  0  0
 16 19  1  0  0  0  0
 19 22  1  0  0  0  0
 22  2  1  1  0  0  0
 22 23  1  0  0  0  0
 23 24  1  6  0  0  0
 24 25  1  0  0  0  0
 25 26  1  0  0  0  0
M  CHG  1  18  -1
M  END
>  <CHROM.1>
-68.76133057,-30.04647362,-2.98380720,-71.11841603,-179.11621772,163.32734577
22.71286188,38.35771651,68.22091695,2.27038218,-0.30501097,-0.62001263

>  <Name>
ligand

>  <RI>
0

>  <Rbt.Current_Directory>
/home/itssahil/PROJECTS/Mol_Feturizer/New_Systems/rnas/2HOL

>  <Rbt.Executable>
rbdock ($Id: //depot/dev/client3/rdock/2013.1/src/exe/rbdock.cxx#4 $)

>  <Rbt.Library>
libRbt.so (2013.1, Build901 2013/11/27)

>  <Rbt.Parameter_File>
/export/apps/rDock/src/rDock_2013.1_src/data/scripts/dock_solv.prm

>  <Rbt.Receptor>
prm/pocket_docking_8.prm

>  <SCORE>
-24.019

>  <SCORE.INTER>
-20.4865

>  <SCORE.INTER.CONST>
1

>  <SCORE.INTER.POLAR>
0

>  <SCORE.INTER.ROT>
6

>  <SCORE.INTER.SOLV>
20.7205

>  <SCORE.INTER.VDW>
-28.1645

>  <SCORE.INTER.norm>
-0.787941

>  <SCORE.INTRA>
-3.53255

>  <SCORE.INTRA.DIHEDRAL>
-3.88644

>  <SCORE.INTRA.DIHEDRAL.0>
9.33621

>  <SCORE.INTRA.POLAR>
0

>  <SCORE.INTRA.POLAR.0>
0

>  <SCORE.INTRA.REPUL>
0

>  <SCORE.INTRA.REPUL.0>
0

>  <SCORE.INTRA.SOLV>
0.0401001

>  <SCORE.INTRA.SOLV.lig_0>
-65.9238

>  <SCORE.INTRA.VDW>
-1.60938

>  <SCORE.INTRA.VDW.0>
-0.405582

>  <SCORE.INTRA.norm>
-0.135867

>  <SCORE.RESTR>
0

>  <SCORE.RESTR.CAVITY>
0

>  <SCORE.RESTR.norm>
0

>  <SCORE.SYSTEM>
0

>  <SCORE.SYSTEM.CONST>
0

>  <SCORE.SYSTEM.DIHEDRAL>
0

>  <SCORE.SYSTEM.SOLV>
0

>  <SCORE.SYSTEM.norm>
0

>  <SCORE.heavy>
26

>  <SCORE.norm>
-0.923809

>  <RMSD>
4.480

$$$$
ligand
 OpenBabel11021811443D
libRbt.so/2013.1/901 2013/11/27
 26 28  0  0  0  0  0  0  0  0999 V2000
   27.3596   42.0685   64.6673 C   0  0  0  0  0  0  0  0  0  0  0  0
   22.7179   37.3597   66.2590 C   0  0  0  0  0  0  0  0  0  0  0  0
   26.1488   37.2346   69.3743 P   0  0  1  0  0  0  0  0  0  0  0  0
   27.6014   39.3626   69.1550 P   0  0  1  0  0  0  0  0  0  0  0  0
   22.1247   40.0039   65.5338 C   0  0  0  0  0  0  0  0  0  0  0  0
   24.5728   39.7072   65.0539 C   0  0  0  0  0  0  0  0  0  0  0  0
   23.5098   40.5518   65.3047 C   0  0  0  0  0  0  0  0  0  0  0  0
   23.7506   41.9264   65.3403 C   0  0  0  0  0  0  0  0  0  0  0  0
   22.7167   42.8168   65.5888 N   0  0  0  0  0  0  0  0  0  0  0  0
   24.9879   42.3696   65.1381 N   0  0  0  0  0  0  0  0  0  0  0  0
   25.9724   41.5282   64.8973 C   0  0  0  0  0  0  0  0  0  0  0  0
   25.7782   40.2245   64.8573 N   0  0  0  0  0  0  0  0  0  0  0  0
   26.7852   35.9301   69.6657 O   0  0  0  0  0  0  0  0  0  0  0  0
   27.4310   39.1335   70.6737 O   0  0  0  0  0  0  0  0  0  0  0  0
   21.5720   39.5643   69.2870 S   0  0  0  0  0  0  0  0  0  0  0  0
   21.5802   40.4899   67.8171 C   0  0  0  0  0  0  0  0  0  0  0  0
   25.9743   38.0645   70.7413 O   0  0  0  0  0  0  0  0  0  0  0  0
   29.1560   39.6086   68.8185 O   0  5  0  0  0  0  0  0  0  0  0  0
   21.9829   39.6041   66.9355 N   0  0  0  0  0  0  0  0  0  0  0  0
   27.0763   38.0677   68.3549 O   0  0  0  0  0  0  0  0  0  0  0  0
   26.7805   40.6000   68.7274 O   0  0  0  0  0  0  0  0  0  0  0  0
   22.2577   38.3659   67.2835 C   0  0  2  0  0  0  0  0  0  0  0  0
   22.1250   38.0158   68.5882 C   0  0  2  0  0  0  0  0  0  0  0  0
   22.3714   36.6900   69.2594 C   0  0  0  0  0  0  0  0  0  0  0  0
   23.8147   36.6320   69.7648 C   0  0  0  0  0  0  0  0  0  0  0  0
   24.7044   36.9907   68.7056 O   0  0  0  0  0  0  0  0  0  0  0  0
  1 11  1  0  0  0  0
  3 13  1  1  0  0  0
  3 17  1  0  0  0  0
  3 20  1  0  0  0  0
  3 26  1  0  0  0  0
  4 14  1  0  0  0  0
  4 18  1  6  0  0  0
  4 21  2  0  0  0  0
  4 20  1  0  0  0  0
  5 19  1  0  0  0  0
  5  7  1  0  0  0  0
  6  7  2  0  0  0  0
  6 12  1  0  0  0  0
  7  8  1  0  0  0  0
  8  9  1  0  0  0  0
  8 10  2  0  0  0  0
 10 11  1  0  0  0  0
 11 12  2  0  0  0  0
 14 17  1  0  0  0  0
 15 23  1  0  0  0  0
 15 16  1  0  0  0  0
 16 19  1  0  0  0  0
 19 22  1  0  0  0  0
 22  2  1  1  0  0  0
 22 23  1  0  0  0  0
 23 24  1  6  0  0  0
 24 25  1  0  0  0  0
 25 26  1  0  0  0  0
M  CHG  1  18  -1
M  END
>  <CHROM.1>
88.31424121,83.63062966,-88.54555217,-50.86493528,167.46541189,77.46814955
24.81279908,39.21106206,67.83895850,-2.16394163,0.13832454,2.33119535

>  <Name>
ligand

>  <RI>
0

>  <Rbt.Current_Directory>
/home/itssahil/PROJECTS/Mol_Feturizer/New_Systems/rnas/2HOL

>  <Rbt.Executable>
rbdock ($Id: //depot/dev/client3/rdock/2013.1/src/exe/rbdock.cxx#4 $)

>  <Rbt.Library>
libRbt.so (2013.1, Build901 2013/11/27)

>  <Rbt.Parameter_File>
/export/apps/rDock/src/rDock_2013.1_src/data/scripts/dock_solv.prm

>  <Rbt.Receptor>
prm/pocket_docking_4.prm

>  <SCORE>
-11.9475

>  <SCORE.INTER>
-8.50456

>  <SCORE.INTER.CONST>
1

>  <SCORE.INTER.POLAR>
0

>  <SCORE.INTER.ROT>
6

>  <SCORE.INTER.SOLV>
13.4832

>  <SCORE.INTER.VDW>
-17.7641

>  <SCORE.INTER.norm>
-0.327099

>  <SCORE.INTRA>
-3.44295

>  <SCORE.INTRA.DIHEDRAL>
-2.91168

>  <SCORE.INTRA.DIHEDRAL.0>
9.33621

>  <SCORE.INTRA.POLAR>
0

>  <SCORE.INTRA.POLAR.0>
0

>  <SCORE.INTRA.REPUL>
0

>  <SCORE.INTRA.REPUL.0>
0

>  <SCORE.INTRA.SOLV>
0.777443

>  <SCORE.INTRA.SOLV.lig_0>
-65.9238

>  <SCORE.INTRA.VDW>
-2.37584

>  <SCORE.INTRA.VDW.0>
-0.405582

>  <SCORE.INTRA.norm>
-0.132421

>  <SCORE.RESTR>
0

>  <SCORE.RESTR.CAVITY>
0

>  <SCORE.RESTR.norm>
0

>  <SCORE.SYSTEM>
0

>  <SCORE.SYSTEM.CONST>
0

>  <SCORE.SYSTEM.DIHEDRAL>
0

>  <SCORE.SYSTEM.SOLV>
0

>  <SCORE.SYSTEM.norm>
0

>  <SCORE.heavy>
26

>  <SCORE.norm>
-0.45952

>  <RMSD>
4.631

$$$$
ligand
 OpenBabel11021811443D
libRbt.so/2013.1/901 2013/11/27
 26 28  0  0  0  0  0  0  0  0999 V2000
   16.7483   40.2417   64.0306 C   0  0  0  0  0  0  0  0  0  0  0  0
   24.2490   39.3149   65.9024 C   0  0  0  0  0  0  0  0  0  0  0  0
   26.0957   36.3667   70.9257 P   0  0  1  0  0  0  0  0  0  0  0  0
   24.6078   34.2600   71.1108 P   0  0  1  0  0  0  0  0  0  0  0  0
   22.0248   41.0202   66.0233 C   0  0  0  0  0  0  0  0  0  0  0  0
   20.1330   39.5455   65.2761 C   0  0  0  0  0  0  0  0  0  0  0  0
   20.6280   40.8156   65.4957 C   0  0  0  0  0  0  0  0  0  0  0  0
   19.8015   41.9055   65.2171 C   0  0  0  0  0  0  0  0  0  0  0  0
   20.2517   43.2015   65.4201 N   0  0  0  0  0  0  0  0  0  0  0  0
   18.5773   41.6830   64.7481 N   0  0  0  0  0  0  0  0  0  0  0  0
   18.1434   40.4540   64.5577 C   0  0  0  0  0  0  0  0  0  0  0  0
   18.8991   39.4033   64.8108 N   0  0  0  0  0  0  0  0  0  0  0  0
   26.0687   37.3891   71.9960 O   0  0  0  0  0  0  0  0  0  0  0  0
   25.8372   33.9771   72.0034 O   0  0  0  0  0  0  0  0  0  0  0  0
   22.1363   38.8572   69.1688 S   0  0  0  0  0  0  0  0  0  0  0  0
   21.4426   40.0820   68.1509 C   0  0  0  0  0  0  0  0  0  0  0  0
   27.0545   35.1526   71.3665 O   0  0  0  0  0  0  0  0  0  0  0  0
   23.2614   33.9272   71.9275 O   0  5  0  0  0  0  0  0  0  0  0  0
   22.2694   40.0939   67.1310 N   0  0  0  0  0  0  0  0  0  0  0  0
   24.6047   35.8108   70.6777 O   0  0  0  0  0  0  0  0  0  0  0  0
   24.6756   33.3726   69.8476 O   0  0  0  0  0  0  0  0  0  0  0  0
   23.3092   39.2901   67.0814 C   0  0  2  0  0  0  0  0  0  0  0  0
   23.5219   38.4424   68.1200 C   0  0  2  0  0  0  0  0  0  0  0  0
   24.6183   37.4308   68.3283 C   0  0  0  0  0  0  0  0  0  0  0  0
   25.7243   38.0440   69.1902 C   0  0  0  0  0  0  0  0  0  0  0  0
   26.6536   37.0259   69.5665 O   0  0  0  0  0  0  0  0  0  0  0  0
  1 11  1  0  0  0  0
  3 13  1  1  0  0  0
  3 17  1  0  0  0  0
  3 20  1  0  0  0  0
  3 26  1  0  0  0  0
  4 14  1  0  0  0  0
  4 18  1  1  0  0  0
  4 21  2  0  0  0  0
  4 20  1  0  0  0  0
  5 19  1  0  0  0  0
  5  7  1  0  0  0  0
  6  7  2  0  0  0  0
  6 12  1  0  0  0  0
  7  8  1  0  0  0  0
  8  9  1  0  0  0  0
  8 10  2  0  0  0  0
 10 11  1  0  0  0  0
 11 12  2  0  0  0  0
 14 17  1  0  0  0  0
 15 23  1  0  0  0  0
 15 16  1  0  0  0  0
 16 19  1  0  0  0  0
 19 22  1  0  0  0  0
 22  2  1  1  0  0  0
 22 23  1  0  0  0  0
 23 24  1  6  0  0  0
 24 25  1  0  0  0  0
 25 26  1  0  0  0  0
M  CHG  1  18  -1
M  END
>  <CHROM.1>
-54.66273434,-44.95339030,-83.88128700,170.70788934,-87.76845583,-62.99102576
23.06691556,37.97135144,68.44252260,2.25810627,-0.37954470,-0.50570740

>  <Name>
ligand

>  <RI>
0

>  <Rbt.Current_Directory>
/home/itssahil/PROJECTS/Mol_Feturizer/New_Systems/rnas/2HOL

>  <Rbt.Executable>
rbdock ($Id: //depot/dev/client3/rdock/2013.1/src/exe/rbdock.cxx#4 $)

>  <Rbt.Library>
libRbt.so (2013.1, Build901 2013/11/27)

>  <Rbt.Parameter_File>
/export/apps/rDock/src/rDock_2013.1_src/data/scripts/dock_solv.prm

>  <Rbt.Receptor>
prm/pocket_docking_8.prm

>  <SCORE>
-21.1367

>  <SCORE.INTER>
-19.8934

>  <SCORE.INTER.CONST>
1

>  <SCORE.INTER.POLAR>
0

>  <SCORE.INTER.ROT>
6

>  <SCORE.INTER.SOLV>
18.9126

>  <SCORE.INTER.VDW>
-27.1665

>  <SCORE.INTER.norm>
-0.765132

>  <SCORE.INTRA>
-1.24329

>  <SCORE.INTRA.DIHEDRAL>
-0.852424

>  <SCORE.INTRA.DIHEDRAL.0>
9.33621

>  <SCORE.INTRA.POLAR>
0

>  <SCORE.INTRA.POLAR.0>
0

>  <SCORE.INTRA.REPUL>
0

>  <SCORE.INTRA.REPUL.0>
0

>  <SCORE.INTRA.SOLV>
0.280304

>  <SCORE.INTRA.SOLV.lig_0>
-65.9238

>  <SCORE.INTRA.VDW>
-0.957233

>  <SCORE.INTRA.VDW.0>
-0.405582

>  <SCORE.INTRA.norm>
-0.0478189

>  <SCORE.RESTR>
0

>  <SCORE.RESTR.CAVITY>
0

>  <SCORE.RESTR.norm>
0

>  <SCORE.SYSTEM>
0

>  <SCORE.SYSTEM.CONST>
0

>  <SCORE.SYSTEM.DIHEDRAL>
0

>  <SCORE.SYSTEM.SOLV>
0

>  <SCORE.SYSTEM.norm>
0

>  <SCORE.heavy>
26

>  <SCORE.norm>
-0.812951

>  <RMSD>
4.658

$$$$
ligand
 OpenBabel11021811443D
libRbt.so/2013.1/901 2013/11/27
 26 28  0  0  0  0  0  0  0  0999 V2000
   17.0444   39.6842   65.1858 C   0  0  0  0  0  0  0  0  0  0  0  0
   24.1870   41.4666   67.4847 C   0  0  0  0  0  0  0  0  0  0  0  0
   25.7319   35.4404   69.8112 P   0  0  1  0  0  0  0  0  0  0  0  0
   25.7306   34.9813   72.3560 P   0  0  1  0  0  0  0  0  0  0  0  0
   22.5723   41.0477   65.2293 C   0  0  0  0  0  0  0  0  0  0  0  0
   20.6985   39.3986   64.9444 C   0  0  0  0  0  0  0  0  0  0  0  0
   21.1088   40.6882   65.2181 C   0  0  0  0  0  0  0  0  0  0  0  0
   20.1335   41.6507   65.4845 C   0  0  0  0  0  0  0  0  0  0  0  0
   20.4937   42.9604   65.7647 N   0  0  0  0  0  0  0  0  0  0  0  0
   18.8525   41.2945   65.4600 N   0  0  0  0  0  0  0  0  0  0  0  0
   18.5055   40.0510   65.1988 C   0  0  0  0  0  0  0  0  0  0  0  0
   19.4021   39.1184   64.9428 N   0  0  0  0  0  0  0  0  0  0  0  0
   26.7635   34.8228   68.9475 O   0  0  0  0  0  0  0  0  0  0  0  0
   25.0649   33.7439   71.7127 O   0  0  0  0  0  0  0  0  0  0  0  0
   24.3324   37.7863   66.1518 S   0  0  0  0  0  0  0  0  0  0  0  0
   23.2693   38.7547   65.1775 C   0  0  0  0  0  0  0  0  0  0  0  0
   24.5605   34.3749   70.0950 O   0  0  0  0  0  0  0  0  0  0  0  0
   26.8657   34.5042   73.3926 O   0  5  0  0  0  0  0  0  0  0  0  0
   23.3469   39.9262   65.7652 N   0  0  0  0  0  0  0  0  0  0  0  0
   26.3994   35.8891   71.2065 O   0  0  0  0  0  0  0  0  0  0  0  0
   24.6620   35.8066   73.1074 O   0  0  0  0  0  0  0  0  0  0  0  0
   24.1075   40.1147   66.8216 C   0  0  2  0  0  0  0  0  0  0  0  0
   24.8139   39.0619   67.3064 C   0  0  2  0  0  0  0  0  0  0  0  0
   25.7471   38.9900   68.4866 C   0  0  0  0  0  0  0  0  0  0  0  0
   26.2210   37.5475   68.6779 C   0  0  0  0  0  0  0  0  0  0  0  0
   25.1159   36.7323   69.0732 O   0  0  0  0  0  0  0  0  0  0  0  0
  1 11  1  0  0  0  0
  3 13  1  6  0  0  0
  3 17  1  0  0  0  0
  3 20  1  0  0  0  0
  3 26  1  0  0  0  0
  4 14  1  0  0  0  0
  4 18  1  1  0  0  0
  4 21  2  0  0  0  0
  4 20  1  0  0  0  0
  5 19  1  0  0  0  0
  5  7  1  0  0  0  0
  6  7  2  0  0  0  0
  6 12  1  0  0  0  0
  7  8  1  0  0  0  0
  8  9  1  0  0  0  0
  8 10  2  0  0  0  0
 10 11  1  0  0  0  0
 11 12  2  0  0  0  0
 14 17  1  0  0  0  0
 15 23  1  0  0  0  0
 15 16  1  0  0  0  0
 16 19  1  0  0  0  0
 19 22  1  0  0  0  0
 22  2  1  1  0  0  0
 22 23  1  0  0  0  0
 23 24  1  6  0  0  0
 24 25  1  0  0  0  0
 25 26  1  0  0  0  0
M  CHG  1  18  -1
M  END
>  <CHROM.1>
57.96020784,-35.76723566,-4.14908989,-67.04514671,-157.79514758,-51.75667021
23.65426316,37.87839183,68.17302540,2.16382258,-0.07493171,-0.77953252

>  <Name>
ligand

>  <RI>
0

>  <Rbt.Current_Directory>
/home/itssahil/PROJECTS/Mol_Feturizer/New_Systems/rnas/2HOL

>  <Rbt.Executable>
rbdock ($Id: //depot/dev/client3/rdock/2013.1/src/exe/rbdock.cxx#4 $)

>  <Rbt.Library>
libRbt.so (2013.1, Build901 2013/11/27)

>  <Rbt.Parameter_File>
/export/apps/rDock/src/rDock_2013.1_src/data/scripts/dock_solv.prm

>  <Rbt.Receptor>
prm/pocket_docking_7.prm

>  <SCORE>
-17.1731

>  <SCORE.INTER>
-16.2866

>  <SCORE.INTER.CONST>
1

>  <SCORE.INTER.POLAR>
0

>  <SCORE.INTER.ROT>
6

>  <SCORE.INTER.SOLV>
16.9015

>  <SCORE.INTER.VDW>
-24.0916

>  <SCORE.INTER.norm>
-0.626407

>  <SCORE.INTRA>
-0.886503

>  <SCORE.INTRA.DIHEDRAL>
-2.30605

>  <SCORE.INTRA.DIHEDRAL.0>
9.33621

>  <SCORE.INTRA.POLAR>
0

>  <SCORE.INTRA.POLAR.0>
0

>  <SCORE.INTRA.REPUL>
0

>  <SCORE.INTRA.REPUL.0>
0

>  <SCORE.INTRA.SOLV>
0.0463779

>  <SCORE.INTRA.SOLV.lig_0>
-65.9238

>  <SCORE.INTRA.VDW>
0.243335

>  <SCORE.INTRA.VDW.0>
-0.405582

>  <SCORE.INTRA.norm>
-0.0340963

>  <SCORE.RESTR>
0

>  <SCORE.RESTR.CAVITY>
0

>  <SCORE.RESTR.norm>
0

>  <SCORE.SYSTEM>
0

>  <SCORE.SYSTEM.CONST>
0

>  <SCORE.SYSTEM.DIHEDRAL>
0

>  <SCORE.SYSTEM.SOLV>
0

>  <SCORE.SYSTEM.norm>
0

>  <SCORE.heavy>
26

>  <SCORE.norm>
-0.660503

>  <RMSD>
4.718

$$$$
ligand
 OpenBabel11021811443D
libRbt.so/2013.1/901 2013/11/27
 26 28  0  0  0  0  0  0  0  0999 V2000
   17.6475   41.0240   64.7636 C   0  0  0  0  0  0  0  0  0  0  0  0
   24.4517   44.2624   67.4646 C   0  0  0  0  0  0  0  0  0  0  0  0
   26.2971   41.5709   63.2020 P   0  0  1  0  0  0  0  0  0  0  0  0
   27.0558   39.7411   64.8641 P   0  0  1  0  0  0  0  0  0  0  0  0
   21.7352   44.4328   66.7858 C   0  0  0  0  0  0  0  0  0  0  0  0
   19.4610   44.0490   65.7895 C   0  0  0  0  0  0  0  0  0  0  0  0
   20.6541   43.5293   66.2509 C   0  0  0  0  0  0  0  0  0  0  0  0
   20.8337   42.1456   66.2089 C   0  0  0  0  0  0  0  0  0  0  0  0
   22.0137   41.5740   66.6609 N   0  0  0  0  0  0  0  0  0  0  0  0
   19.8536   41.3824   65.7343 N   0  0  0  0  0  0  0  0  0  0  0  0
   18.7327   41.9208   65.2997 C   0  0  0  0  0  0  0  0  0  0  0  0
   18.5318   43.2239   65.3260 N   0  0  0  0  0  0  0  0  0  0  0  0
   26.0750   41.2322   61.7780 O   0  0  0  0  0  0  0  0  0  0  0  0
   25.5311   39.5469   64.7036 O   0  0  0  0  0  0  0  0  0  0  0  0
   23.8613   45.1142   63.6874 S   0  0  0  0  0  0  0  0  0  0  0  0
   22.3495   44.9384   64.5246 C   0  0  0  0  0  0  0  0  0  0  0  0
   25.0034   41.1528   64.0618 O   0  0  0  0  0  0  0  0  0  0  0  0
   27.8008   38.3258   64.6840 O   0  5  0  0  0  0  0  0  0  0  0  0
   22.7416   44.6593   65.7462 N   0  0  0  0  0  0  0  0  0  0  0  0
   27.5855   40.7736   63.7479 O   0  0  0  0  0  0  0  0  0  0  0  0
   27.3561   40.3050   66.2711 O   0  0  0  0  0  0  0  0  0  0  0  0
   24.0173   44.5826   66.0566 C   0  0  2  0  0  0  0  0  0  0  0  0
   24.9350   44.7908   65.0783 C   0  0  2  0  0  0  0  0  0  0  0  0
   26.4394   44.7614   65.1470 C   0  0  0  0  0  0  0  0  0  0  0  0
   26.9461   43.3891   64.6974 C   0  0  0  0  0  0  0  0  0  0  0  0
   26.5484   43.1550   63.3449 O   0  0  0  0  0  0  0  0  0  0  0  0
  1 11  1  0  0  0  0
  3 13  1  6  0  0  0
  3 17  1  0  0  0  0
  3 20  1  0  0  0  0
  3 26  1  0  0  0  0
  4 14  1  0  0  0  0
  4 18  1  6  0  0  0
  4 21  2  0  0  0  0
  4 20  1  0  0  0  0
  5 19  1  0  0  0  0
  5  7  1  0  0  0  0
  6  7  2  0  0  0  0
  6 12  1  0  0  0  0
  7  8  1  0  0  0  0
  8  9  1  0  0  0  0
  8 10  2  0  0  0  0
 10 11  1  0  0  0  0
 11 12  2  0  0  0  0
 14 17  1  0  0  0  0
 15 23  1  0  0  0  0
 15 16  1  0  0  0  0
 16 19  1  0  0  0  0
 19 22  1  0  0  0  0
 22  2  1  6  0  0  0
 22 23  1  0  0  0  0
 23 24  1  1  0  0  0
 24 25  1  0  0  0  0
 25 26  1  0  0  0  0
M  CHG  1  18  -1
M  END
>  <CHROM.1>
45.18193405,-99.04558159,-83.54719423,61.10851924,-147.38470635,-171.76044928
24.04377282,42.38137215,64.88275971,2.82161917,0.19032924,0.03204217

>  <Name>
ligand

>  <RI>
0

>  <Rbt.Current_Directory>
/home/itssahil/PROJECTS/Mol_Feturizer/New_Systems/rnas/2HOL

>  <Rbt.Executable>
rbdock ($Id: //depot/dev/client3/rdock/2013.1/src/exe/rbdock.cxx#4 $)

>  <Rbt.Library>
libRbt.so (2013.1, Build901 2013/11/27)

>  <Rbt.Parameter_File>
/export/apps/rDock/src/rDock_2013.1_src/data/scripts/dock_solv.prm

>  <Rbt.Receptor>
prm/pocket_docking_7.prm

>  <SCORE>
-23.6144

>  <SCORE.INTER>
-22.0902

>  <SCORE.INTER.CONST>
1

>  <SCORE.INTER.POLAR>
0

>  <SCORE.INTER.ROT>
6

>  <SCORE.INTER.SOLV>
14.8354

>  <SCORE.INTER.VDW>
-27.2719

>  <SCORE.INTER.norm>
-0.849622

>  <SCORE.INTRA>
-1.52418

>  <SCORE.INTRA.DIHEDRAL>
-0.165505

>  <SCORE.INTRA.DIHEDRAL.0>
9.33621

>  <SCORE.INTRA.POLAR>
0

>  <SCORE.INTRA.POLAR.0>
0

>  <SCORE.INTRA.REPUL>
0

>  <SCORE.INTRA.REPUL.0>
0

>  <SCORE.INTRA.SOLV>
2.65822

>  <SCORE.INTRA.SOLV.lig_0>
-65.9238

>  <SCORE.INTRA.VDW>
-2.77054

>  <SCORE.INTRA.VDW.0>
-0.405582

>  <SCORE.INTRA.norm>
-0.0586223

>  <SCORE.RESTR>
0

>  <SCORE.RESTR.CAVITY>
0

>  <SCORE.RESTR.norm>
0

>  <SCORE.SYSTEM>
0

>  <SCORE.SYSTEM.CONST>
0

>  <SCORE.SYSTEM.DIHEDRAL>
0

>  <SCORE.SYSTEM.SOLV>
0

>  <SCORE.SYSTEM.norm>
0

>  <SCORE.heavy>
26

>  <SCORE.norm>
-0.908244

>  <RMSD>
4.732

$$$$
ligand
 OpenBabel11021811443D
libRbt.so/2013.1/901 2013/11/27
 26 28  0  0  0  0  0  0  0  0999 V2000
   16.5122   40.4869   63.8263 C   0  0  0  0  0  0  0  0  0  0  0  0
   22.5212   37.4148   66.2872 C   0  0  0  0  0  0  0  0  0  0  0  0
   25.6098   35.2961   70.9631 P   0  0  1  0  0  0  0  0  0  0  0  0
   26.8503   36.3561   72.9692 P   0  0  1  0  0  0  0  0  0  0  0  0
   21.8479   40.0891   65.7733 C   0  0  0  0  0  0  0  0  0  0  0  0
   19.7240   39.0671   64.9037 C   0  0  0  0  0  0  0  0  0  0  0  0
   20.4357   40.1959   65.2580 C   0  0  0  0  0  0  0  0  0  0  0  0
   19.8137   41.4388   65.1272 C   0  0  0  0  0  0  0  0  0  0  0  0
   20.4859   42.6027   65.4692 N   0  0  0  0  0  0  0  0  0  0  0  0
   18.5683   41.4909   64.6640 N   0  0  0  0  0  0  0  0  0  0  0  0
   17.9242   40.3880   64.3421 C   0  0  0  0  0  0  0  0  0  0  0  0
   18.4833   39.1989   64.4536 N   0  0  0  0  0  0  0  0  0  0  0  0
   26.3430   34.9987   69.7119 O   0  0  0  0  0  0  0  0  0  0  0  0
   27.1917   34.8499   73.0214 O   0  0  0  0  0  0  0  0  0  0  0  0
   21.6187   39.4230   69.5268 S   0  0  0  0  0  0  0  0  0  0  0  0
   21.4951   40.4332   68.1192 C   0  0  0  0  0  0  0  0  0  0  0  0
   25.8678   34.1198   72.0297 O   0  0  0  0  0  0  0  0  0  0  0  0
   28.2022   37.2196   73.1003 O   0  5  0  0  0  0  0  0  0  0  0  0
   21.8285   39.6059   67.1557 N   0  0  0  0  0  0  0  0  0  0  0  0
   26.1296   36.6946   71.5696 O   0  0  0  0  0  0  0  0  0  0  0  0
   25.9001   36.7078   74.1359 O   0  0  0  0  0  0  0  0  0  0  0  0
   22.1416   38.3531   67.4050 C   0  0  2  0  0  0  0  0  0  0  0  0
   22.1227   37.9253   68.6930 C   0  0  2  0  0  0  0  0  0  0  0  0
   22.4354   36.5658   69.2610 C   0  0  0  0  0  0  0  0  0  0  0  0
   23.8503   36.5672   69.8441 C   0  0  0  0  0  0  0  0  0  0  0  0
   24.0336   35.4018   70.6505 O   0  0  0  0  0  0  0  0  0  0  0  0
  1 11  1  0  0  0  0
  3 13  1  6  0  0  0
  3 17  1  0  0  0  0
  3 20  1  0  0  0  0
  3 26  1  0  0  0  0
  4 14  1  0  0  0  0
  4 18  1  1  0  0  0
  4 21  2  0  0  0  0
  4 20  1  0  0  0  0
  5 19  1  0  0  0  0
  5  7  1  0  0  0  0
  6  7  2  0  0  0  0
  6 12  1  0  0  0  0
  7  8  1  0  0  0  0
  8  9  1  0  0  0  0
  8 10  2  0  0  0  0
 10 11  1  0  0  0  0
 11 12  2  0  0  0  0
 14 17  1  0  0  0  0
 15 23  1  0  0  0  0
 15 16  1  0  0  0  0
 16 19  1  0  0  0  0
 19 22  1  0  0  0  0
 22  2  1  1  0  0  0
 22 23  1  0  0  0  0
 23 24  1  6  0  0  0
 24 25  1  0  0  0  0
 25 26  1  0  0  0  0
M  CHG  1  18  -1
M  END
>  <CHROM.1>
-76.31450222,-75.29430302,-79.51643214,166.52379501,167.89736733,-67.46556536
23.03904368,37.92088998,68.90932361,2.91845370,-0.85401581,0.28741686

>  <Name>
ligand

>  <RI>
0

>  <Rbt.Current_Directory>
/home/itssahil/PROJECTS/Mol_Feturizer/New_Systems/rnas/2HOL

>  <Rbt.Executable>
rbdock ($Id: //depot/dev/client3/rdock/2013.1/src/exe/rbdock.cxx#4 $)

>  <Rbt.Library>
libRbt.so (2013.1, Build901 2013/11/27)

>  <Rbt.Parameter_File>
/export/apps/rDock/src/rDock_2013.1_src/data/scripts/dock_solv.prm

>  <Rbt.Receptor>
prm/blind_docking_100.prm

>  <SCORE>
-22.3575

>  <SCORE.INTER>
-19.2974

>  <SCORE.INTER.CONST>
1

>  <SCORE.INTER.POLAR>
0

>  <SCORE.INTER.ROT>
6

>  <SCORE.INTER.SOLV>
18.0863

>  <SCORE.INTER.VDW>
-26.4937

>  <SCORE.INTER.norm>
-0.742209

>  <SCORE.INTRA>
-3.06004

>  <SCORE.INTRA.DIHEDRAL>
-2.86477

>  <SCORE.INTRA.DIHEDRAL.0>
9.33621

>  <SCORE.INTRA.POLAR>
0

>  <SCORE.INTRA.POLAR.0>
0

>  <SCORE.INTRA.REPUL>
0

>  <SCORE.INTRA.REPUL.0>
0

>  <SCORE.INTRA.SOLV>
0.168232

>  <SCORE.INTRA.SOLV.lig_0>
-65.9238

>  <SCORE.INTRA.VDW>
-1.71177

>  <SCORE.INTRA.VDW.0>
-0.405582

>  <SCORE.INTRA.norm>
-0.117694

>  <SCORE.RESTR>
0

>  <SCORE.RESTR.CAVITY>
0

>  <SCORE.RESTR.norm>
0

>  <SCORE.SYSTEM>
0

>  <SCORE.SYSTEM.CONST>
0

>  <SCORE.SYSTEM.DIHEDRAL>
0

>  <SCORE.SYSTEM.SOLV>
0

>  <SCORE.SYSTEM.norm>
0

>  <SCORE.heavy>
26

>  <SCORE.norm>
-0.859902

>  <RMSD>
4.818

$$$$
ligand
 OpenBabel11021811443D
libRbt.so/2013.1/901 2013/11/27
 26 28  0  0  0  0  0  0  0  0999 V2000
   16.6832   40.1464   64.0284 C   0  0  0  0  0  0  0  0  0  0  0  0
   24.3772   39.2970   66.1148 C   0  0  0  0  0  0  0  0  0  0  0  0
   26.4243   36.7772   71.8774 P   0  0  1  0  0  0  0  0  0  0  0  0
   25.5711   35.3071   73.8262 P   0  0  1  0  0  0  0  0  0  0  0  0
   21.9837   40.7569   66.0162 C   0  0  0  0  0  0  0  0  0  0  0  0
   20.0874   39.3512   65.1560 C   0  0  0  0  0  0  0  0  0  0  0  0
   20.5805   40.5968   65.4901 C   0  0  0  0  0  0  0  0  0  0  0  0
   19.7462   41.7042   65.3286 C   0  0  0  0  0  0  0  0  0  0  0  0
   20.1942   42.9770   65.6492 N   0  0  0  0  0  0  0  0  0  0  0  0
   18.5164   41.5215   64.8567 N   0  0  0  0  0  0  0  0  0  0  0  0
   18.0847   40.3142   64.5548 C   0  0  0  0  0  0  0  0  0  0  0  0
   18.8478   39.2479   64.6956 N   0  0  0  0  0  0  0  0  0  0  0  0
   26.8196   38.1818   72.1271 O   0  0  0  0  0  0  0  0  0  0  0  0
   27.1115   35.3024   73.9489 O   0  0  0  0  0  0  0  0  0  0  0  0
   21.9717   38.5095   69.1040 S   0  0  0  0  0  0  0  0  0  0  0  0
   21.2697   39.6901   68.0406 C   0  0  0  0  0  0  0  0  0  0  0  0
   27.6320   35.7977   72.2897 O   0  0  0  0  0  0  0  0  0  0  0  0
   24.9178   35.6425   75.2584 O   0  5  0  0  0  0  0  0  0  0  0  0
   22.1999   39.8232   67.1236 N   0  0  0  0  0  0  0  0  0  0  0  0
   25.1217   36.4227   72.7556 O   0  0  0  0  0  0  0  0  0  0  0  0
   25.0896   33.9168   73.3541 O   0  0  0  0  0  0  0  0  0  0  0  0
   23.3188   39.1340   67.1764 C   0  0  2  0  0  0  0  0  0  0  0  0
   23.5029   38.2774   68.2132 C   0  0  2  0  0  0  0  0  0  0  0  0
   24.6709   37.3786   68.5240 C   0  0  0  0  0  0  0  0  0  0  0  0
   25.0095   37.4749   70.0134 C   0  0  0  0  0  0  0  0  0  0  0  0
   26.0850   36.5837   70.3152 O   0  0  0  0  0  0  0  0  0  0  0  0
  1 11  1  0  0  0  0
  3 13  1  1  0  0  0
  3 17  1  0  0  0  0
  3 20  1  0  0  0  0
  3 26  1  0  0  0  0
  4 14  1  0  0  0  0
  4 18  1  1  0  0  0
  4 21  2  0  0  0  0
  4 20  1  0  0  0  0
  5 19  1  0  0  0  0
  5  7  1  0  0  0  0
  6  7  2  0  0  0  0
  6 12  1  0  0  0  0
  7  8  1  0  0  0  0
  8  9  1  0  0  0  0
  8 10  2  0  0  0  0
 10 11  1  0  0  0  0
 11 12  2  0  0  0  0
 14 17  1  0  0  0  0
 15 23  1  0  0  0  0
 15 16  1  0  0  0  0
 16 19  1  0  0  0  0
 19 22  1  0  0  0  0
 22  2  1  1  0  0  0
 22 23  1  0  0  0  0
 23 24  1  6  0  0  0
 24 25  1  0  0  0  0
 25 26  1  0  0  0  0
M  CHG  1  18  -1
M  END
>  <CHROM.1>
-44.23313879,-50.88506296,-44.38984231,177.83739395,177.88881941,-59.98149827
23.28624541,38.14819703,69.24399116,2.19449817,-0.10439584,-0.94827545

>  <Name>
ligand

>  <RI>
0

>  <Rbt.Current_Directory>
/home/itssahil/PROJECTS/Mol_Feturizer/New_Systems/rnas/2HOL

>  <Rbt.Executable>
rbdock ($Id: //depot/dev/client3/rdock/2013.1/src/exe/rbdock.cxx#4 $)

>  <Rbt.Library>
libRbt.so (2013.1, Build901 2013/11/27)

>  <Rbt.Parameter_File>
/export/apps/rDock/src/rDock_2013.1_src/data/scripts/dock_solv.prm

>  <Rbt.Receptor>
prm/blind_docking_100.prm

>  <SCORE>
-22.4677

>  <SCORE.INTER>
-19.2792

>  <SCORE.INTER.CONST>
1

>  <SCORE.INTER.POLAR>
0

>  <SCORE.INTER.ROT>
6

>  <SCORE.INTER.SOLV>
15.1664

>  <SCORE.INTER.VDW>
-25.5082

>  <SCORE.INTER.norm>
-0.741506

>  <SCORE.INTRA>
-3.18849

>  <SCORE.INTRA.DIHEDRAL>
-4.23548

>  <SCORE.INTRA.DIHEDRAL.0>
9.33621

>  <SCORE.INTRA.POLAR>
0

>  <SCORE.INTRA.POLAR.0>
0

>  <SCORE.INTRA.REPUL>
0

>  <SCORE.INTRA.REPUL.0>
0

>  <SCORE.INTRA.SOLV>
-0.518819

>  <SCORE.INTRA.SOLV.lig_0>
-65.9238

>  <SCORE.INTRA.VDW>
-0.81134

>  <SCORE.INTRA.VDW.0>
-0.405582

>  <SCORE.INTRA.norm>
-0.122634

>  <SCORE.RESTR>
0

>  <SCORE.RESTR.CAVITY>
0

>  <SCORE.RESTR.norm>
0

>  <SCORE.SYSTEM>
0

>  <SCORE.SYSTEM.CONST>
0

>  <SCORE.SYSTEM.DIHEDRAL>
0

>  <SCORE.SYSTEM.SOLV>
0

>  <SCORE.SYSTEM.norm>
0

>  <SCORE.heavy>
26

>  <SCORE.norm>
-0.86414

>  <RMSD>
4.881

$$$$
ligand
 OpenBabel11021811443D
libRbt.so/2013.1/901 2013/11/27
 26 28  0  0  0  0  0  0  0  0999 V2000
   17.1298   40.9842   64.3558 C   0  0  0  0  0  0  0  0  0  0  0  0
   23.9708   42.4801   65.0358 C   0  0  0  0  0  0  0  0  0  0  0  0
   28.5113   46.0998   64.8215 P   0  0  1  0  0  0  0  0  0  0  0  0
   29.9805   44.1581   65.6923 P   0  0  1  0  0  0  0  0  0  0  0  0
   22.0075   42.2160   67.0221 C   0  0  0  0  0  0  0  0  0  0  0  0
   20.0066   42.8665   65.6492 C   0  0  0  0  0  0  0  0  0  0  0  0
   20.7165   41.8885   66.3169 C   0  0  0  0  0  0  0  0  0  0  0  0
   20.2083   40.5884   66.3218 C   0  0  0  0  0  0  0  0  0  0  0  0
   20.8832   39.5703   66.9785 N   0  0  0  0  0  0  0  0  0  0  0  0
   19.0635   40.3414   65.6919 N   0  0  0  0  0  0  0  0  0  0  0  0
   18.4209   41.3040   65.0630 C   0  0  0  0  0  0  0  0  0  0  0  0
   18.8741   42.5422   65.0398 N   0  0  0  0  0  0  0  0  0  0  0  0
   28.5962   47.4349   65.4555 O   0  0  0  0  0  0  0  0  0  0  0  0
   30.9059   45.0029   64.7878 O   0  0  0  0  0  0  0  0  0  0  0  0
   22.7410   45.9199   66.4492 S   0  0  0  0  0  0  0  0  0  0  0  0
   21.9186   44.6026   67.2275 C   0  0  0  0  0  0  0  0  0  0  0  0
   29.7221   45.9230   63.7772 O   0  0  0  0  0  0  0  0  0  0  0  0
   30.7141   43.8721   67.0959 O   0  5  0  0  0  0  0  0  0  0  0  0
   22.4491   43.5577   66.6353 N   0  0  0  0  0  0  0  0  0  0  0  0
   28.6096   44.9606   65.9556 O   0  0  0  0  0  0  0  0  0  0  0  0
   29.6656   42.8163   64.9937 O   0  0  0  0  0  0  0  0  0  0  0  0
   23.3701   43.6901   65.7058 C   0  0  2  0  0  0  0  0  0  0  0  0
   23.7627   44.9419   65.3575 C   0  0  2  0  0  0  0  0  0  0  0  0
   24.7793   45.3835   64.3376 C   0  0  0  0  0  0  0  0  0  0  0  0
   26.1252   45.6223   65.0258 C   0  0  0  0  0  0  0  0  0  0  0  0
   27.1074   45.9616   64.0450 O   0  0  0  0  0  0  0  0  0  0  0  0
  1 11  1  0  0  0  0
  3 13  1  1  0  0  0
  3 17  1  0  0  0  0
  3 20  1  0  0  0  0
  3 26  1  0  0  0  0
  4 14  1  0  0  0  0
  4 18  1  1  0  0  0
  4 21  2  0  0  0  0
  4 20  1  0  0  0  0
  5 19  1  0  0  0  0
  5  7  1  0  0  0  0
  6  7  2  0  0  0  0
  6 12  1  0  0  0  0
  7  8  1  0  0  0  0
  8  9  1  0  0  0  0
  8 10  2  0  0  0  0
 10 11  1  0  0  0  0
 11 12  2  0  0  0  0
 14 17  1  0  0  0  0
 15 23  1  0  0  0  0
 15 16  1  0  0  0  0
 16 19  1  0  0  0  0
 19 22  1  0  0  0  0
 22  2  1  6  0  0  0
 22 23  1  0  0  0  0
 23 24  1  1  0  0  0
 24 25  1  0  0  0  0
 25 26  1  0  0  0  0
M  CHG  1  18  -1
M  END
>  <CHROM.1>
81.26225628,-11.57132347,84.35045694,176.48701292,-176.24147172,-81.28282818
24.83465805,43.92962846,65.55245966,2.80097579,-0.00235727,2.98475435

>  <Name>
ligand

>  <RI>
0

>  <Rbt.Current_Directory>
/home/itssahil/PROJECTS/Mol_Feturizer/New_Systems/rnas/2HOL

>  <Rbt.Executable>
rbdock ($Id: //depot/dev/client3/rdock/2013.1/src/exe/rbdock.cxx#4 $)

>  <Rbt.Library>
libRbt.so (2013.1, Build901 2013/11/27)

>  <Rbt.Parameter_File>
/export/apps/rDock/src/rDock_2013.1_src/data/scripts/dock_solv.prm

>  <Rbt.Receptor>
prm/pocket_docking_8.prm

>  <SCORE>
-24.6363

>  <SCORE.INTER>
-21.8111

>  <SCORE.INTER.CONST>
1

>  <SCORE.INTER.POLAR>
0

>  <SCORE.INTER.ROT>
6

>  <SCORE.INTER.SOLV>
14.0526

>  <SCORE.INTER.VDW>
-26.8249

>  <SCORE.INTER.norm>
-0.838887

>  <SCORE.INTRA>
-2.8252

>  <SCORE.INTRA.DIHEDRAL>
-3.60469

>  <SCORE.INTRA.DIHEDRAL.0>
9.33621

>  <SCORE.INTRA.POLAR>
0

>  <SCORE.INTRA.POLAR.0>
0

>  <SCORE.INTRA.REPUL>
0

>  <SCORE.INTRA.REPUL.0>
0

>  <SCORE.INTRA.SOLV>
-0.232946

>  <SCORE.INTRA.SOLV.lig_0>
-65.9238

>  <SCORE.INTRA.VDW>
-0.906383

>  <SCORE.INTRA.VDW.0>
-0.405582

>  <SCORE.INTRA.norm>
-0.108662

>  <SCORE.RESTR>
0

>  <SCORE.RESTR.CAVITY>
0

>  <SCORE.RESTR.norm>
0

>  <SCORE.SYSTEM>
0

>  <SCORE.SYSTEM.CONST>
0

>  <SCORE.SYSTEM.DIHEDRAL>
0

>  <SCORE.SYSTEM.SOLV>
0

>  <SCORE.SYSTEM.norm>
0

>  <SCORE.heavy>
26

>  <SCORE.norm>
-0.947549

>  <RMSD>
4.896

$$$$
ligand
 OpenBabel11021811443D
libRbt.so/2013.1/901 2013/11/27
 26 28  0  0  0  0  0  0  0  0999 V2000
   17.6280   40.7493   64.6639 C   0  0  0  0  0  0  0  0  0  0  0  0
   24.2920   44.5481   67.4865 C   0  0  0  0  0  0  0  0  0  0  0  0
   27.6607   43.4221   63.0292 P   0  0  1  0  0  0  0  0  0  0  0  0
   29.7685   43.5588   64.5208 P   0  0  1  0  0  0  0  0  0  0  0  0
   21.6041   44.2575   66.7379 C   0  0  0  0  0  0  0  0  0  0  0  0
   19.3200   43.8077   65.7932 C   0  0  0  0  0  0  0  0  0  0  0  0
   20.5526   43.3278   66.1892 C   0  0  0  0  0  0  0  0  0  0  0  0
   20.8002   41.9593   66.0681 C   0  0  0  0  0  0  0  0  0  0  0  0
   22.0220   41.4274   66.4524 N   0  0  0  0  0  0  0  0  0  0  0  0
   19.8445   41.1716   65.5839 N   0  0  0  0  0  0  0  0  0  0  0  0
   18.6839   41.6726   65.2134 C   0  0  0  0  0  0  0  0  0  0  0  0
   18.4186   42.9603   65.3152 N   0  0  0  0  0  0  0  0  0  0  0  0
   27.6364   42.5108   61.8627 O   0  0  0  0  0  0  0  0  0  0  0  0
   29.0159   42.2911   64.9843 O   0  0  0  0  0  0  0  0  0  0  0  0
   23.7169   44.9514   63.6331 S   0  0  0  0  0  0  0  0  0  0  0  0
   22.2177   44.6356   64.4517 C   0  0  0  0  0  0  0  0  0  0  0  0
   27.3423   42.5895   64.3683 O   0  0  0  0  0  0  0  0  0  0  0  0
   31.3194   43.2050   64.2760 O   0  5  0  0  0  0  0  0  0  0  0  0
   22.6031   44.5309   65.7025 N   0  0  0  0  0  0  0  0  0  0  0  0
   29.1172   44.0985   63.1507 O   0  0  0  0  0  0  0  0  0  0  0  0
   29.6554   44.6495   65.6094 O   0  0  0  0  0  0  0  0  0  0  0  0
   23.8653   44.6698   66.0453 C   0  0  2  0  0  0  0  0  0  0  0  0
   24.7770   44.9179   65.0708 C   0  0  2  0  0  0  0  0  0  0  0  0
   26.2669   45.1144   65.1734 C   0  0  0  0  0  0  0  0  0  0  0  0
   26.8175   45.5728   63.8211 C   0  0  0  0  0  0  0  0  0  0  0  0
   26.5511   44.5730   62.8354 O   0  0  0  0  0  0  0  0  0  0  0  0
  1 11  1  0  0  0  0
  3 13  1  6  0  0  0
  3 17  1  0  0  0  0
  3 20  1  0  0  0  0
  3 26  1  0  0  0  0
  4 14  1  0  0  0  0
  4 18  1  6  0  0  0
  4 21  2  0  0  0  0
  4 20  1  0  0  0  0
  5 19  1  0  0  0  0
  5  7  1  0  0  0  0
  6  7  2  0  0  0  0
  6 12  1  0  0  0  0
  7  8  1  0  0  0  0
  8  9  1  0  0  0  0
  8 10  2  0  0  0  0
 10 11  1  0  0  0  0
 11 12  2  0  0  0  0
 14 17  1  0  0  0  0
 15 23  1  0  0  0  0
 15 16  1  0  0  0  0
 16 19  1  0  0  0  0
 19 22  1  0  0  0  0
 22  2  1  6  0  0  0
 22 23  1  0  0  0  0
 23 24  1  1  0  0  0
 24 25  1  0  0  0  0
 25 26  1  0  0  0  0
M  CHG  1  18  -1
M  END
>  <CHROM.1>
36.03142129,-102.13632415,8.20214445,-60.76264679,-79.24144086,-167.42075104
24.84690375,43.55857935,64.72524499,-3.13111470,0.20131098,0.54243071

>  <Name>
ligand

>  <RI>
0

>  <Rbt.Current_Directory>
/home/itssahil/PROJECTS/Mol_Feturizer/New_Systems/rnas/2HOL

>  <Rbt.Executable>
rbdock ($Id: //depot/dev/client3/rdock/2013.1/src/exe/rbdock.cxx#4 $)

>  <Rbt.Library>
libRbt.so (2013.1, Build901 2013/11/27)

>  <Rbt.Parameter_File>
/export/apps/rDock/src/rDock_2013.1_src/data/scripts/dock_solv.prm

>  <Rbt.Receptor>
prm/pocket_docking_7.prm

>  <SCORE>
-19.1278

>  <SCORE.INTER>
-18.6019

>  <SCORE.INTER.CONST>
1

>  <SCORE.INTER.POLAR>
0

>  <SCORE.INTER.ROT>
6

>  <SCORE.INTER.SOLV>
7.73435

>  <SCORE.INTER.VDW>
-22.5794

>  <SCORE.INTER.norm>
-0.715456

>  <SCORE.INTRA>
-0.525947

>  <SCORE.INTRA.DIHEDRAL>
-2.82115

>  <SCORE.INTRA.DIHEDRAL.0>
9.33621

>  <SCORE.INTRA.POLAR>
0

>  <SCORE.INTRA.POLAR.0>
0

>  <SCORE.INTRA.REPUL>
0

>  <SCORE.INTRA.REPUL.0>
0

>  <SCORE.INTRA.SOLV>
3.45331

>  <SCORE.INTRA.SOLV.lig_0>
-65.9238

>  <SCORE.INTRA.VDW>
-0.842029

>  <SCORE.INTRA.VDW.0>
-0.405582

>  <SCORE.INTRA.norm>
-0.0202287

>  <SCORE.RESTR>
0

>  <SCORE.RESTR.CAVITY>
0

>  <SCORE.RESTR.norm>
0

>  <SCORE.SYSTEM>
0

>  <SCORE.SYSTEM.CONST>
0

>  <SCORE.SYSTEM.DIHEDRAL>
0

>  <SCORE.SYSTEM.SOLV>
0

>  <SCORE.SYSTEM.norm>
0

>  <SCORE.heavy>
26

>  <SCORE.norm>
-0.735685

>  <RMSD>
4.972

$$$$
ligand
 OpenBabel11021811443D
libRbt.so/2013.1/901 2013/11/27
 26 28  0  0  0  0  0  0  0  0999 V2000
   17.9360   41.0137   65.0533 C   0  0  0  0  0  0  0  0  0  0  0  0
   24.7345   42.1870   67.9101 C   0  0  0  0  0  0  0  0  0  0  0  0
   24.3431   37.7238   68.4570 P   0  0  1  0  0  0  0  0  0  0  0  0
   21.8039   37.4767   68.8789 P   0  0  1  0  0  0  0  0  0  0  0  0
   23.0859   43.2814   65.9217 C   0  0  0  0  0  0  0  0  0  0  0  0
   21.5718   41.3281   65.4700 C   0  0  0  0  0  0  0  0  0  0  0  0
   21.7222   42.6825   65.6919 C   0  0  0  0  0  0  0  0  0  0  0  0
   20.5787   43.4832   65.6983 C   0  0  0  0  0  0  0  0  0  0  0  0
   20.6761   44.8494   65.9161 N   0  0  0  0  0  0  0  0  0  0  0  0
   19.3942   42.9172   65.4866 N   0  0  0  0  0  0  0  0  0  0  0  0
   19.2959   41.6194   65.2837 C   0  0  0  0  0  0  0  0  0  0  0  0
   20.3564   40.8358   65.2712 N   0  0  0  0  0  0  0  0  0  0  0  0
   25.2733   36.6564   68.8894 O   0  0  0  0  0  0  0  0  0  0  0  0
   22.0979   36.6300   67.6200 O   0  0  0  0  0  0  0  0  0  0  0  0
   25.5548   40.8456   64.3227 S   0  0  0  0  0  0  0  0  0  0  0  0
   24.2443   41.9846   64.2716 C   0  0  0  0  0  0  0  0  0  0  0  0
   23.6720   37.3156   67.0532 O   0  0  0  0  0  0  0  0  0  0  0  0
   20.9370   36.6091   69.9211 O   0  5  0  0  0  0  0  0  0  0  0  0
   24.1157   42.3141   65.5361 N   0  0  0  0  0  0  0  0  0  0  0  0
   23.1922   37.9141   69.5674 O   0  0  0  0  0  0  0  0  0  0  0  0
   21.0095   38.7388   68.4745 O   0  0  0  0  0  0  0  0  0  0  0  0
   24.8937   41.7974   66.4622 C   0  0  2  0  0  0  0  0  0  0  0  0
   25.8389   40.8989   66.0858 C   0  0  2  0  0  0  0  0  0  0  0  0
   26.8489   40.1566   66.9212 C   0  0  0  0  0  0  0  0  0  0  0  0
   26.2443   38.8355   67.4019 C   0  0  0  0  0  0  0  0  0  0  0  0
   25.1529   39.1050   68.2840 O   0  0  0  0  0  0  0  0  0  0  0  0
  1 11  1  0  0  0  0
  3 13  1  1  0  0  0
  3 17  1  0  0  0  0
  3 20  1  0  0  0  0
  3 26  1  0  0  0  0
  4 14  1  0  0  0  0
  4 18  1  1  0  0  0
  4 21  2  0  0  0  0
  4 20  1  0  0  0  0
  5 19  1  0  0  0  0
  5  7  1  0  0  0  0
  6  7  2  0  0  0  0
  6 12  1  0  0  0  0
  7  8  1  0  0  0  0
  8  9  1  0  0  0  0
  8 10  2  0  0  0  0
 10 11  1  0  0  0  0
 11 12  2  0  0  0  0
 14 17  1  0  0  0  0
 15 23  1  0  0  0  0
 15 16  1  0  0  0  0
 16 19  1  0  0  0  0
 19 22  1  0  0  0  0
 22  2  1  1  0  0  0
 22 23  1  0  0  0  0
 23 24  1  6  0  0  0
 24 25  1  0  0  0  0
 25 26  1  0  0  0  0
M  CHG  1  18  -1
M  END
>  <CHROM.1>
67.04734883,14.12678385,-90.58415246,-65.10192872,166.18748985,53.88444872
23.00888086,40.01089568,66.91062840,1.95273290,0.05338887,-0.58067171

>  <Name>
ligand

>  <RI>
0

>  <Rbt.Current_Directory>
/home/itssahil/PROJECTS/Mol_Feturizer/New_Systems/rnas/2HOL

>  <Rbt.Executable>
rbdock ($Id: //depot/dev/client3/rdock/2013.1/src/exe/rbdock.cxx#4 $)

>  <Rbt.Library>
libRbt.so (2013.1, Build901 2013/11/27)

>  <Rbt.Parameter_File>
/export/apps/rDock/src/rDock_2013.1_src/data/scripts/dock_solv.prm

>  <Rbt.Receptor>
prm/pocket_docking_5.prm

>  <SCORE>
-18.367

>  <SCORE.INTER>
-14.8305

>  <SCORE.INTER.CONST>
1

>  <SCORE.INTER.POLAR>
0

>  <SCORE.INTER.ROT>
6

>  <SCORE.INTER.SOLV>
22.5381

>  <SCORE.INTER.VDW>
-24.9997

>  <SCORE.INTER.norm>
-0.570403

>  <SCORE.INTRA>
-3.53651

>  <SCORE.INTRA.DIHEDRAL>
-3.41077

>  <SCORE.INTRA.DIHEDRAL.0>
9.33621

>  <SCORE.INTRA.POLAR>
0

>  <SCORE.INTRA.POLAR.0>
0

>  <SCORE.INTRA.REPUL>
0

>  <SCORE.INTRA.REPUL.0>
0

>  <SCORE.INTRA.SOLV>
-0.215192

>  <SCORE.INTRA.SOLV.lig_0>
-65.9238

>  <SCORE.INTRA.VDW>
-1.72353

>  <SCORE.INTRA.VDW.0>
-0.405582

>  <SCORE.INTRA.norm>
-0.13602

>  <SCORE.RESTR>
0

>  <SCORE.RESTR.CAVITY>
0

>  <SCORE.RESTR.norm>
0

>  <SCORE.SYSTEM>
0

>  <SCORE.SYSTEM.CONST>
0

>  <SCORE.SYSTEM.DIHEDRAL>
0

>  <SCORE.SYSTEM.SOLV>
0

>  <SCORE.SYSTEM.norm>
0

>  <SCORE.heavy>
26

>  <SCORE.norm>
-0.706422

>  <RMSD>
4.975

$$$$
ligand
 OpenBabel11021811443D
libRbt.so/2013.1/901 2013/11/27
 26 28  0  0  0  0  0  0  0  0999 V2000
   19.6943   44.4171   65.9383 C   0  0  0  0  0  0  0  0  0  0  0  0
   24.0278   38.1033   65.7670 C   0  0  0  0  0  0  0  0  0  0  0  0
   26.1287   36.2865   71.1688 P   0  0  1  0  0  0  0  0  0  0  0  0
   26.5747   36.1668   73.7131 P   0  0  1  0  0  0  0  0  0  0  0  0
   21.3874   39.0016   65.4653 C   0  0  0  0  0  0  0  0  0  0  0  0
   21.8557   41.4529   65.7540 C   0  0  0  0  0  0  0  0  0  0  0  0
   20.9378   40.4345   65.5904 C   0  0  0  0  0  0  0  0  0  0  0  0
   19.5826   40.7660   65.5436 C   0  0  0  0  0  0  0  0  0  0  0  0
   18.6210   39.7799   65.3814 N   0  0  0  0  0  0  0  0  0  0  0  0
   19.2265   42.0416   65.6627 N   0  0  0  0  0  0  0  0  0  0  0  0
   20.1362   42.9824   65.8126 C   0  0  0  0  0  0  0  0  0  0  0  0
   21.4239   42.7024   65.8610 N   0  0  0  0  0  0  0  0  0  0  0  0
   25.9239   35.0422   70.3932 O   0  0  0  0  0  0  0  0  0  0  0  0
   25.0457   36.0089   73.5538 O   0  0  0  0  0  0  0  0  0  0  0  0
   21.9320   37.8526   69.0665 S   0  0  0  0  0  0  0  0  0  0  0  0
   20.9713   38.4998   67.7721 C   0  0  0  0  0  0  0  0  0  0  0  0
   24.7572   36.6925   71.9050 O   0  0  0  0  0  0  0  0  0  0  0  0
   27.1372   35.0117   74.6824 O   0  5  0  0  0  0  0  0  0  0  0  0
   21.8243   38.5103   66.7740 N   0  0  0  0  0  0  0  0  0  0  0  0
   27.2793   36.0485   72.2701 O   0  0  0  0  0  0  0  0  0  0  0  0
   26.8866   37.5502   74.3266 O   0  0  0  0  0  0  0  0  0  0  0  0
   23.0603   38.0862   66.9234 C   0  0  2  0  0  0  0  0  0  0  0  0
   23.4478   37.6393   68.1452 C   0  0  2  0  0  0  0  0  0  0  0  0
   24.7827   37.1078   68.5973 C   0  0  0  0  0  0  0  0  0  0  0  0
   25.3774   38.0454   69.6505 C   0  0  0  0  0  0  0  0  0  0  0  0
   26.5765   37.4718   70.1751 O   0  0  0  0  0  0  0  0  0  0  0  0
  1 11  1  0  0  0  0
  3 13  1  6  0  0  0
  3 17  1  0  0  0  0
  3 20  1  0  0  0  0
  3 26  1  0  0  0  0
  4 14  1  0  0  0  0
  4 18  1  1  0  0  0
  4 21  2  0  0  0  0
  4 20  1  0  0  0  0
  5 19  1  0  0  0  0
  5  7  1  0  0  0  0
  6  7  2  0  0  0  0
  6 12  1  0  0  0  0
  7  8  1  0  0  0  0
  8  9  1  0  0  0  0
  8 10  2  0  0  0  0
 10 11  1  0  0  0  0
 11 12  2  0  0  0  0
 14 17  1  0  0  0  0
 15 23  1  0  0  0  0
 15 16  1  0  0  0  0
 16 19  1  0  0  0  0
 19 22  1  0  0  0  0
 22  2  1  1  0  0  0
 22 23  1  0  0  0  0
 23 24  1  6  0  0  0
 24 25  1  0  0  0  0
 25 26  1  0  0  0  0
M  CHG  1  18  -1
M  END
>  <CHROM.1>
59.93182827,73.64158883,-64.46322602,174.21375798,-75.21468734,85.72032919
23.60159651,38.26749460,69.19406510,2.95538496,0.95102026,-2.28698877

>  <Name>
ligand

>  <RI>
0

>  <Rbt.Current_Directory>
/home/itssahil/PROJECTS/Mol_Feturizer/New_Systems/rnas/2HOL

>  <Rbt.Executable>
rbdock ($Id: //depot/dev/client3/rdock/2013.1/src/exe/rbdock.cxx#4 $)

>  <Rbt.Library>
libRbt.so (2013.1, Build901 2013/11/27)

>  <Rbt.Parameter_File>
/export/apps/rDock/src/rDock_2013.1_src/data/scripts/dock_solv.prm

>  <Rbt.Receptor>
prm/pocket_docking_8.prm

>  <SCORE>
-17.9326

>  <SCORE.INTER>
-16.8627

>  <SCORE.INTER.CONST>
1

>  <SCORE.INTER.POLAR>
0

>  <SCORE.INTER.ROT>
6

>  <SCORE.INTER.SOLV>
16.4923

>  <SCORE.INTER.VDW>
-24.3392

>  <SCORE.INTER.norm>
-0.648567

>  <SCORE.INTRA>
-1.06984

>  <SCORE.INTRA.DIHEDRAL>
-2.04192

>  <SCORE.INTRA.DIHEDRAL.0>
9.33621

>  <SCORE.INTRA.POLAR>
0

>  <SCORE.INTRA.POLAR.0>
0

>  <SCORE.INTRA.REPUL>
0

>  <SCORE.INTRA.REPUL.0>
0

>  <SCORE.INTRA.SOLV>
0.408585

>  <SCORE.INTRA.SOLV.lig_0>
-65.9238

>  <SCORE.INTRA.VDW>
-0.25317

>  <SCORE.INTRA.VDW.0>
-0.405582

>  <SCORE.INTRA.norm>
-0.0411476

>  <SCORE.RESTR>
0

>  <SCORE.RESTR.CAVITY>
0

>  <SCORE.RESTR.norm>
0

>  <SCORE.SYSTEM>
0

>  <SCORE.SYSTEM.CONST>
0

>  <SCORE.SYSTEM.DIHEDRAL>
0

>  <SCORE.SYSTEM.SOLV>
0

>  <SCORE.SYSTEM.norm>
0

>  <SCORE.heavy>
26

>  <SCORE.norm>
-0.689715

>  <RMSD>
4.982

$$$$
ligand
 OpenBabel11021811443D
libRbt.so/2013.1/901 2013/11/27
 26 28  0  0  0  0  0  0  0  0999 V2000
   16.5293   39.8487   63.9066 C   0  0  0  0  0  0  0  0  0  0  0  0
   24.2812   39.8992   66.4057 C   0  0  0  0  0  0  0  0  0  0  0  0
   24.0333   35.1480   71.2642 P   0  0  1  0  0  0  0  0  0  0  0  0
   25.8901   35.5823   73.0107 P   0  0  1  0  0  0  0  0  0  0  0  0
   21.6340   40.8121   66.2374 C   0  0  0  0  0  0  0  0  0  0  0  0
   19.9185   39.2920   65.2088 C   0  0  0  0  0  0  0  0  0  0  0  0
   20.2825   40.5585   65.6206 C   0  0  0  0  0  0  0  0  0  0  0  0
   19.3667   41.5984   65.4513 C   0  0  0  0  0  0  0  0  0  0  0  0
   19.6843   42.8888   65.8480 N   0  0  0  0  0  0  0  0  0  0  0  0
   18.1866   41.3344   64.8983 N   0  0  0  0  0  0  0  0  0  0  0  0
   17.8785   40.1097   64.5239 C   0  0  0  0  0  0  0  0  0  0  0  0
   18.7210   39.1058   64.6697 N   0  0  0  0  0  0  0  0  0  0  0  0
   23.3003   33.8618   71.2664 O   0  0  0  0  0  0  0  0  0  0  0  0
   24.5586   35.8503   73.7479 O   0  0  0  0  0  0  0  0  0  0  0  0
   21.8477   38.0138   68.8276 S   0  0  0  0  0  0  0  0  0  0  0  0
   20.9959   39.2177   67.9098 C   0  0  0  0  0  0  0  0  0  0  0  0
   23.4087   36.1244   72.3797 O   0  0  0  0  0  0  0  0  0  0  0  0
   26.8145   34.6136   73.9036 O   0  5  0  0  0  0  0  0  0  0  0  0
   21.9538   39.7328   67.1743 N   0  0  0  0  0  0  0  0  0  0  0  0
   25.5868   34.8803   71.5937 O   0  0  0  0  0  0  0  0  0  0  0  0
   26.6248   36.9211   72.7753 O   0  0  0  0  0  0  0  0  0  0  0  0
   23.1923   39.2982   67.2583 C   0  0  2  0  0  0  0  0  0  0  0  0
   23.4699   38.3006   68.1360 C   0  0  2  0  0  0  0  0  0  0  0  0
   24.7798   37.6218   68.4395 C   0  0  0  0  0  0  0  0  0  0  0  0
   24.7258   37.0069   69.8399 C   0  0  0  0  0  0  0  0  0  0  0  0
   23.9053   35.8372   69.8144 O   0  0  0  0  0  0  0  0  0  0  0  0
  1 11  1  0  0  0  0
  3 13  1  1  0  0  0
  3 17  1  0  0  0  0
  3 20  1  0  0  0  0
  3 26  1  0  0  0  0
  4 14  1  0  0  0  0
  4 18  1  1  0  0  0
  4 21  2  0  0  0  0
  4 20  1  0  0  0  0
  5 19  1  0  0  0  0
  5  7  1  0  0  0  0
  6  7  2  0  0  0  0
  6 12  1  0  0  0  0
  7  8  1  0  0  0  0
  8  9  1  0  0  0  0
  8 10  2  0  0  0  0
 10 11  1  0  0  0  0
 11 12  2  0  0  0  0
 14 17  1  0  0  0  0
 15 23  1  0  0  0  0
 15 16  1  0  0  0  0
 16 19  1  0  0  0  0
 19 22  1  0  0  0  0
 22  2  1  1  0  0  0
 22 23  1  0  0  0  0
 23 24  1  6  0  0  0
 24 25  1  0  0  0  0
 25 26  1  0  0  0  0
M  CHG  1  18  -1
M  END
>  <CHROM.1>
-37.37007956,-42.27400743,-23.45324954,73.95970314,173.41478171,-174.99046199
22.68531783,37.83449920,68.96027325,2.23068871,-0.40608011,-0.65405746

>  <Name>
ligand

>  <RI>
0

>  <Rbt.Current_Directory>
/home/itssahil/PROJECTS/Mol_Feturizer/New_Systems/rnas/2HOL

>  <Rbt.Executable>
rbdock ($Id: //depot/dev/client3/rdock/2013.1/src/exe/rbdock.cxx#4 $)

>  <Rbt.Library>
libRbt.so (2013.1, Build901 2013/11/27)

>  <Rbt.Parameter_File>
/export/apps/rDock/src/rDock_2013.1_src/data/scripts/dock_solv.prm

>  <Rbt.Receptor>
prm/blind_docking_100.prm

>  <SCORE>
-23.5892

>  <SCORE.INTER>
-20.8906

>  <SCORE.INTER.CONST>
1

>  <SCORE.INTER.POLAR>
0

>  <SCORE.INTER.ROT>
6

>  <SCORE.INTER.SOLV>
15.3628

>  <SCORE.INTER.VDW>
-26.648

>  <SCORE.INTER.norm>
-0.803483

>  <SCORE.INTRA>
-2.69866

>  <SCORE.INTRA.DIHEDRAL>
-3.62514

>  <SCORE.INTRA.DIHEDRAL.0>
9.33621

>  <SCORE.INTRA.POLAR>
0

>  <SCORE.INTRA.POLAR.0>
0

>  <SCORE.INTRA.REPUL>
0

>  <SCORE.INTRA.REPUL.0>
0

>  <SCORE.INTRA.SOLV>
0.216786

>  <SCORE.INTRA.SOLV.lig_0>
-65.9238

>  <SCORE.INTRA.VDW>
-0.994483

>  <SCORE.INTRA.VDW.0>
-0.405582

>  <SCORE.INTRA.norm>
-0.103795

>  <SCORE.RESTR>
0

>  <SCORE.RESTR.CAVITY>
0

>  <SCORE.RESTR.norm>
0

>  <SCORE.SYSTEM>
0

>  <SCORE.SYSTEM.CONST>
0

>  <SCORE.SYSTEM.DIHEDRAL>
0

>  <SCORE.SYSTEM.SOLV>
0

>  <SCORE.SYSTEM.norm>
0

>  <SCORE.heavy>
26

>  <SCORE.norm>
-0.907278

>  <RMSD>
4.985

$$$$
ligand
 OpenBabel11021811443D
libRbt.so/2013.1/901 2013/11/27
 26 28  0  0  0  0  0  0  0  0999 V2000
   21.7788   39.4959   68.6485 C   0  0  0  0  0  0  0  0  0  0  0  0
   23.6491   44.7190   63.4430 C   0  0  0  0  0  0  0  0  0  0  0  0
   28.1566   44.3028   65.3623 P   0  0  1  0  0  0  0  0  0  0  0  0
   28.4703   41.9514   66.3913 P   0  0  1  0  0  0  0  0  0  0  0  0
   21.5274   43.9483   65.1086 C   0  0  0  0  0  0  0  0  0  0  0  0
   22.6213   42.6461   66.9578 C   0  0  0  0  0  0  0  0  0  0  0  0
   21.5927   42.7693   66.0449 C   0  0  0  0  0  0  0  0  0  0  0  0
   20.6146   41.7739   66.0115 C   0  0  0  0  0  0  0  0  0  0  0  0
   19.5611   41.8508   65.1127 N   0  0  0  0  0  0  0  0  0  0  0  0
   20.7108   40.7470   66.8509 N   0  0  0  0  0  0  0  0  0  0  0  0
   21.7069   40.6716   67.7094 C   0  0  0  0  0  0  0  0  0  0  0  0
   22.6469   41.5948   67.7661 N   0  0  0  0  0  0  0  0  0  0  0  0
   29.3344   45.0749   64.9058 O   0  0  0  0  0  0  0  0  0  0  0  0
   28.5489   41.7468   64.8616 O   0  0  0  0  0  0  0  0  0  0  0  0
   23.5678   46.6764   66.8348 S   0  0  0  0  0  0  0  0  0  0  0  0
   22.2612   45.5351   66.7487 C   0  0  0  0  0  0  0  0  0  0  0  0
   27.7417   43.2368   64.2313 O   0  0  0  0  0  0  0  0  0  0  0  0
   29.7130   41.2121   67.0981 O   0  5  0  0  0  0  0  0  0  0  0  0
   22.4484   44.9898   65.5691 N   0  0  0  0  0  0  0  0  0  0  0  0
   28.5204   43.5258   66.7251 O   0  0  0  0  0  0  0  0  0  0  0  0
   27.1474   41.3544   66.9216 O   0  0  0  0  0  0  0  0  0  0  0  0
   23.4465   45.3558   64.7948 C   0  0  2  0  0  0  0  0  0  0  0  0
   24.2865   46.3261   65.2370 C   0  0  2  0  0  0  0  0  0  0  0  0
   25.4912   46.9350   64.5688 C   0  0  0  0  0  0  0  0  0  0  0  0
   26.5620   45.8606   64.3653 C   0  0  0  0  0  0  0  0  0  0  0  0
   26.9269   45.3071   65.6312 O   0  0  0  0  0  0  0  0  0  0  0  0
  1 11  1  0  0  0  0
  3 13  1  6  0  0  0
  3 17  1  0  0  0  0
  3 20  1  0  0  0  0
  3 26  1  0  0  0  0
  4 14  1  0  0  0  0
  4 18  1  1  0  0  0
  4 21  2  0  0  0  0
  4 20  1  0  0  0  0
  5 19  1  0  0  0  0
  5  7  1  0  0  0  0
  6  7  2  0  0  0  0
  6 12  1  0  0  0  0
  7  8  1  0  0  0  0
  8  9  1  0  0  0  0
  8 10  2  0  0  0  0
 10 11  1  0  0  0  0
 11 12  2  0  0  0  0
 14 17  1  0  0  0  0
 15 23  1  0  0  0  0
 15 16  1  0  0  0  0
 16 19  1  0  0  0  0
 19 22  1  0  0  0  0
 22  2  1  6  0  0  0
 22 23  1  0  0  0  0
 23 24  1  1  0  0  0
 24 25  1  0  0  0  0
 25 26  1  0  0  0  0
M  CHG  1  18  -1
M  END
>  <CHROM.1>
-61.70701456,-14.33124119,116.55611466,-59.06434102,-174.20065570,65.91191737
25.02583614,43.53641984,65.94081614,-2.98342989,0.06437691,-0.34852258

>  <Name>
ligand

>  <RI>
0

>  <Rbt.Current_Directory>
/home/itssahil/PROJECTS/Mol_Feturizer/New_Systems/rnas/2HOL

>  <Rbt.Executable>
rbdock ($Id: //depot/dev/client3/rdock/2013.1/src/exe/rbdock.cxx#4 $)

>  <Rbt.Library>
libRbt.so (2013.1, Build901 2013/11/27)

>  <Rbt.Parameter_File>
/export/apps/rDock/src/rDock_2013.1_src/data/scripts/dock_solv.prm

>  <Rbt.Receptor>
prm/pocket_docking_7.prm

>  <SCORE>
-14.6703

>  <SCORE.INTER>
-11.2387

>  <SCORE.INTER.CONST>
1

>  <SCORE.INTER.POLAR>
0

>  <SCORE.INTER.ROT>
6

>  <SCORE.INTER.SOLV>
14.0168

>  <SCORE.INTER.VDW>
-19.7647

>  <SCORE.INTER.norm>
-0.432259

>  <SCORE.INTRA>
-3.43157

>  <SCORE.INTRA.DIHEDRAL>
-4.54935

>  <SCORE.INTRA.DIHEDRAL.0>
9.33621

>  <SCORE.INTRA.POLAR>
0

>  <SCORE.INTRA.POLAR.0>
0

>  <SCORE.INTRA.REPUL>
0

>  <SCORE.INTRA.REPUL.0>
0

>  <SCORE.INTRA.SOLV>
-0.600067

>  <SCORE.INTRA.SOLV.lig_0>
-65.9238

>  <SCORE.INTRA.VDW>
-0.856864

>  <SCORE.INTRA.VDW.0>
-0.405582

>  <SCORE.INTRA.norm>
-0.131984

>  <SCORE.RESTR>
0

>  <SCORE.RESTR.CAVITY>
0

>  <SCORE.RESTR.norm>
0

>  <SCORE.SYSTEM>
0

>  <SCORE.SYSTEM.CONST>
0

>  <SCORE.SYSTEM.DIHEDRAL>
0

>  <SCORE.SYSTEM.SOLV>
0

>  <SCORE.SYSTEM.norm>
0

>  <SCORE.heavy>
26

>  <SCORE.norm>
-0.564243

>  <RMSD>
5.008

$$$$
ligand
 OpenBabel11021811443D
libRbt.so/2013.1/901 2013/11/27
 26 28  0  0  0  0  0  0  0  0999 V2000
   20.1412   44.4653   65.8083 C   0  0  0  0  0  0  0  0  0  0  0  0
   22.4429   37.9979   69.2167 C   0  0  0  0  0  0  0  0  0  0  0  0
   26.1241   36.4749   71.2077 P   0  0  1  0  0  0  0  0  0  0  0  0
   26.1686   36.3589   73.7906 P   0  0  1  0  0  0  0  0  0  0  0  0
   20.8172   38.9731   67.1489 C   0  0  0  0  0  0  0  0  0  0  0  0
   21.5454   41.3767   67.2157 C   0  0  0  0  0  0  0  0  0  0  0  0
   20.6370   40.4265   66.7934 C   0  0  0  0  0  0  0  0  0  0  0  0
   19.5474   40.8462   66.0283 C   0  0  0  0  0  0  0  0  0  0  0  0
   18.6066   39.9311   65.5801 N   0  0  0  0  0  0  0  0  0  0  0  0
   19.4215   42.1383   65.7402 N   0  0  0  0  0  0  0  0  0  0  0  0
   20.3148   43.0108   66.1598 C   0  0  0  0  0  0  0  0  0  0  0  0
   21.3548   42.6467   66.8843 N   0  0  0  0  0  0  0  0  0  0  0  0
   26.0745   35.2282   70.4109 O   0  0  0  0  0  0  0  0  0  0  0  0
   24.6878   36.1638   73.3937 O   0  0  0  0  0  0  0  0  0  0  0  0
   24.2499   38.0659   65.7421 S   0  0  0  0  0  0  0  0  0  0  0  0
   22.6230   38.6587   65.6041 C   0  0  0  0  0  0  0  0  0  0  0  0
   24.6445   36.8448   71.7194 O   0  0  0  0  0  0  0  0  0  0  0  0
   26.6008   35.2153   74.8373 O   0  5  0  0  0  0  0  0  0  0  0  0
   22.1878   38.5605   66.8389 N   0  0  0  0  0  0  0  0  0  0  0  0
   27.0934   36.2623   72.4761 O   0  0  0  0  0  0  0  0  0  0  0  0
   26.3460   37.7479   74.4440 O   0  0  0  0  0  0  0  0  0  0  0  0
   22.9569   38.1034   67.8030 C   0  0  2  0  0  0  0  0  0  0  0  0
   24.2225   37.7213   67.4950 C   0  0  2  0  0  0  0  0  0  0  0  0
   25.3039   37.1655   68.3840 C   0  0  0  0  0  0  0  0  0  0  0  0
   25.5958   38.1541   69.5151 C   0  0  0  0  0  0  0  0  0  0  0  0
   26.6925   37.6739   70.2953 O   0  0  0  0  0  0  0  0  0  0  0  0
  1 11  1  0  0  0  0
  3 13  1  6  0  0  0
  3 17  1  0  0  0  0
  3 20  1  0  0  0  0
  3 26  1  0  0  0  0
  4 14  1  0  0  0  0
  4 18  1  1  0  0  0
  4 21  2  0  0  0  0
  4 20  1  0  0  0  0
  5 19  1  0  0  0  0
  5  7  1  0  0  0  0
  6  7  2  0  0  0  0
  6 12  1  0  0  0  0
  7  8  1  0  0  0  0
  8  9  1  0  0  0  0
  8 10  2  0  0  0  0
 10 11  1  0  0  0  0
 11 12  2  0  0  0  0
 14 17  1  0  0  0  0
 15 23  1  0  0  0  0
 15 16  1  0  0  0  0
 16 19  1  0  0  0  0
 19 22  1  0  0  0  0
 22  2  1  6  0  0  0
 22 23  1  0  0  0  0
 23 24  1  1  0  0  0
 24 25  1  0  0  0  0
 25 26  1  0  0  0  0
M  CHG  1  18  -1
M  END
>  <CHROM.1>
-59.52335335,-49.25407233,121.96456719,-175.49240001,-75.53054232,81.53060515
23.72668426,38.38093801,69.21275449,2.54250105,0.83179297,-1.76688909

>  <Name>
ligand

>  <RI>
0

>  <Rbt.Current_Directory>
/home/itssahil/PROJECTS/Mol_Feturizer/New_Systems/rnas/2HOL

>  <Rbt.Executable>
rbdock ($Id: //depot/dev/client3/rdock/2013.1/src/exe/rbdock.cxx#4 $)

>  <Rbt.Library>
libRbt.so (2013.1, Build901 2013/11/27)

>  <Rbt.Parameter_File>
/export/apps/rDock/src/rDock_2013.1_src/data/scripts/dock_solv.prm

>  <Rbt.Receptor>
prm/pocket_docking_8.prm

>  <SCORE>
-17.429

>  <SCORE.INTER>
-16.45

>  <SCORE.INTER.CONST>
1

>  <SCORE.INTER.POLAR>
0

>  <SCORE.INTER.ROT>
6

>  <SCORE.INTER.SOLV>
17.7676

>  <SCORE.INTER.VDW>
-24.4892

>  <SCORE.INTER.norm>
-0.632693

>  <SCORE.INTRA>
-0.978961

>  <SCORE.INTRA.DIHEDRAL>
-2.88781

>  <SCORE.INTRA.DIHEDRAL.0>
9.33621

>  <SCORE.INTRA.POLAR>
0

>  <SCORE.INTRA.POLAR.0>
0

>  <SCORE.INTRA.REPUL>
0

>  <SCORE.INTRA.REPUL.0>
0

>  <SCORE.INTRA.SOLV>
-0.00914683

>  <SCORE.INTRA.SOLV.lig_0>
-65.9238

>  <SCORE.INTRA.VDW>
0.469519

>  <SCORE.INTRA.VDW.0>
-0.405582

>  <SCORE.INTRA.norm>
-0.0376523

>  <SCORE.RESTR>
0

>  <SCORE.RESTR.CAVITY>
0

>  <SCORE.RESTR.norm>
0

>  <SCORE.SYSTEM>
0

>  <SCORE.SYSTEM.CONST>
0

>  <SCORE.SYSTEM.DIHEDRAL>
0

>  <SCORE.SYSTEM.SOLV>
0

>  <SCORE.SYSTEM.norm>
0

>  <SCORE.heavy>
26

>  <SCORE.norm>
-0.670345

>  <RMSD>
5.120

$$$$
ligand
 OpenBabel11021811443D
libRbt.so/2013.1/901 2013/11/27
 26 28  0  0  0  0  0  0  0  0999 V2000
   17.6978   40.7263   64.7584 C   0  0  0  0  0  0  0  0  0  0  0  0
   24.1906   44.7695   67.5014 C   0  0  0  0  0  0  0  0  0  0  0  0
   28.7390   43.7661   63.9963 P   0  0  1  0  0  0  0  0  0  0  0  0
   27.2458   42.8305   62.1038 P   0  0  1  0  0  0  0  0  0  0  0  0
   21.5269   44.4815   66.6701 C   0  0  0  0  0  0  0  0  0  0  0  0
   19.2827   43.9033   65.7000 C   0  0  0  0  0  0  0  0  0  0  0  0
   20.5143   43.4865   66.1645 C   0  0  0  0  0  0  0  0  0  0  0  0
   20.7979   42.1197   66.1535 C   0  0  0  0  0  0  0  0  0  0  0  0
   22.0204   41.6498   66.6099 N   0  0  0  0  0  0  0  0  0  0  0  0
   19.8759   41.2735   65.7040 N   0  0  0  0  0  0  0  0  0  0  0  0
   18.7150   41.7151   65.2654 C   0  0  0  0  0  0  0  0  0  0  0  0
   18.4161   42.9995   65.2627 N   0  0  0  0  0  0  0  0  0  0  0  0
   30.2129   43.6810   63.8876 O   0  0  0  0  0  0  0  0  0  0  0  0
   27.7188   44.2164   61.6099 O   0  0  0  0  0  0  0  0  0  0  0  0
   23.7653   44.9535   63.6120 S   0  0  0  0  0  0  0  0  0  0  0  0
   22.2312   44.7128   64.3905 C   0  0  0  0  0  0  0  0  0  0  0  0
   28.2097   45.0273   63.1496 O   0  0  0  0  0  0  0  0  0  0  0  0
   27.4843   41.7366   60.9475 O   0  5  0  0  0  0  0  0  0  0  0  0
   22.5684   44.6758   65.6589 N   0  0  0  0  0  0  0  0  0  0  0  0
   28.0799   42.4156   63.4171 O   0  0  0  0  0  0  0  0  0  0  0  0
   25.7409   42.8948   62.4485 O   0  0  0  0  0  0  0  0  0  0  0  0
   23.8195   44.8129   66.0405 C   0  0  2  0  0  0  0  0  0  0  0  0
   24.7710   44.9871   65.0883 C   0  0  2  0  0  0  0  0  0  0  0  0
   26.2597   45.1635   65.2353 C   0  0  0  0  0  0  0  0  0  0  0  0
   26.9006   43.8232   65.6027 C   0  0  0  0  0  0  0  0  0  0  0  0
   28.3232   43.9438   65.5418 O   0  0  0  0  0  0  0  0  0  0  0  0
  1 11  1  0  0  0  0
  3 13  1  6  0  0  0
  3 17  1  0  0  0  0
  3 20  1  0  0  0  0
  3 26  1  0  0  0  0
  4 14  1  0  0  0  0
  4 18  1  6  0  0  0
  4 21  2  0  0  0  0
  4 20  1  0  0  0  0
  5 19  1  0  0  0  0
  5  7  1  0  0  0  0
  6  7  2  0  0  0  0
  6 12  1  0  0  0  0
  7  8  1  0  0  0  0
  8  9  1  0  0  0  0
  8 10  2  0  0  0  0
 10 11  1  0  0  0  0
 11 12  2  0  0  0  0
 14 17  1  0  0  0  0
 15 23  1  0  0  0  0
 15 16  1  0  0  0  0
 16 19  1  0  0  0  0
 19 22  1  0  0  0  0
 22  2  1  6  0  0  0
 22 23  1  0  0  0  0
 23 24  1  1  0  0  0
 24 25  1  0  0  0  0
 25 26  1  0  0  0  0
M  CHG  1  18  -1
M  END
>  <CHROM.1>
38.82803045,-103.64327717,-106.32645080,171.22668780,-82.25255053,-171.72234680
24.55357537,43.52628021,64.45222983,2.97823696,0.24979443,0.94858396

>  <Name>
ligand

>  <RI>
0

>  <Rbt.Current_Directory>
/home/itssahil/PROJECTS/Mol_Feturizer/New_Systems/rnas/2HOL

>  <Rbt.Executable>
rbdock ($Id: //depot/dev/client3/rdock/2013.1/src/exe/rbdock.cxx#4 $)

>  <Rbt.Library>
libRbt.so (2013.1, Build901 2013/11/27)

>  <Rbt.Parameter_File>
/export/apps/rDock/src/rDock_2013.1_src/data/scripts/dock_solv.prm

>  <Rbt.Receptor>
prm/pocket_docking_7.prm

>  <SCORE>
-20.4388

>  <SCORE.INTER>
-19.5913

>  <SCORE.INTER.CONST>
1

>  <SCORE.INTER.POLAR>
0

>  <SCORE.INTER.ROT>
6

>  <SCORE.INTER.SOLV>
9.19355

>  <SCORE.INTER.VDW>
-23.7254

>  <SCORE.INTER.norm>
-0.753512

>  <SCORE.INTRA>
-0.847516

>  <SCORE.INTRA.DIHEDRAL>
-2.1253

>  <SCORE.INTRA.DIHEDRAL.0>
9.33621

>  <SCORE.INTRA.POLAR>
0

>  <SCORE.INTRA.POLAR.0>
0

>  <SCORE.INTRA.REPUL>
0

>  <SCORE.INTRA.REPUL.0>
0

>  <SCORE.INTRA.SOLV>
3.73385

>  <SCORE.INTRA.SOLV.lig_0>
-65.9238

>  <SCORE.INTRA.VDW>
-1.65179

>  <SCORE.INTRA.VDW.0>
-0.405582

>  <SCORE.INTRA.norm>
-0.0325968

>  <SCORE.RESTR>
0

>  <SCORE.RESTR.CAVITY>
0

>  <SCORE.RESTR.norm>
0

>  <SCORE.SYSTEM>
0

>  <SCORE.SYSTEM.CONST>
0

>  <SCORE.SYSTEM.DIHEDRAL>
0

>  <SCORE.SYSTEM.SOLV>
0

>  <SCORE.SYSTEM.norm>
0

>  <SCORE.heavy>
26

>  <SCORE.norm>
-0.786108

>  <RMSD>
5.250

$$$$
ligand
 OpenBabel11021811443D
libRbt.so/2013.1/901 2013/11/27
 26 28  0  0  0  0  0  0  0  0999 V2000
   16.4584   39.6222   63.9842 C   0  0  0  0  0  0  0  0  0  0  0  0
   24.3052   40.1461   66.3389 C   0  0  0  0  0  0  0  0  0  0  0  0
   25.5777   35.0067   70.6700 P   0  0  1  0  0  0  0  0  0  0  0  0
   23.2981   33.8005   70.8580 P   0  0  1  0  0  0  0  0  0  0  0  0
   21.6260   40.9058   66.0008 C   0  0  0  0  0  0  0  0  0  0  0  0
   19.9357   39.2720   65.1145 C   0  0  0  0  0  0  0  0  0  0  0  0
   20.2578   40.5675   65.4671 C   0  0  0  0  0  0  0  0  0  0  0  0
   19.2837   41.5560   65.3170 C   0  0  0  0  0  0  0  0  0  0  0  0
   19.5575   42.8726   65.6563 N   0  0  0  0  0  0  0  0  0  0  0  0
   18.0903   41.2177   64.8379 N   0  0  0  0  0  0  0  0  0  0  0  0
   17.8239   39.9679   64.5183 C   0  0  0  0  0  0  0  0  0  0  0  0
   18.7219   39.0109   64.6479 N   0  0  0  0  0  0  0  0  0  0  0  0
   26.6804   34.6546   71.5928 O   0  0  0  0  0  0  0  0  0  0  0  0
   24.2152   32.8315   70.0783 O   0  0  0  0  0  0  0  0  0  0  0  0
   21.8996   38.5059   68.9589 S   0  0  0  0  0  0  0  0  0  0  0  0
   21.0184   39.5312   67.8682 C   0  0  0  0  0  0  0  0  0  0  0  0
   25.5150   33.9333   69.4735 O   0  0  0  0  0  0  0  0  0  0  0  0
   22.5643   33.0059   72.0498 O   0  5  0  0  0  0  0  0  0  0  0  0
   21.9701   39.9824   67.0842 N   0  0  0  0  0  0  0  0  0  0  0  0
   24.1822   34.9970   71.4739 O   0  0  0  0  0  0  0  0  0  0  0  0
   22.2365   34.3854   69.8996 O   0  0  0  0  0  0  0  0  0  0  0  0
   23.2237   39.6202   67.2486 C   0  0  2  0  0  0  0  0  0  0  0  0
   23.5234   38.7675   68.2613 C   0  0  2  0  0  0  0  0  0  0  0  0
   24.8538   38.1975   68.6783 C   0  0  0  0  0  0  0  0  0  0  0  0
   24.6390   36.8515   69.3742 C   0  0  0  0  0  0  0  0  0  0  0  0
   25.8341   36.4754   70.0615 O   0  0  0  0  0  0  0  0  0  0  0  0
  1 11  1  0  0  0  0
  3 13  1  1  0  0  0
  3 17  1  0  0  0  0
  3 20  1  0  0  0  0
  3 26  1  0  0  0  0
  4 14  1  0  0  0  0
  4 18  1  1  0  0  0
  4 21  2  0  0  0  0
  4 20  1  0  0  0  0
  5 19  1  0  0  0  0
  5  7  1  0  0  0  0
  6  7  2  0  0  0  0
  6 12  1  0  0  0  0
  7  8  1  0  0  0  0
  8  9  1  0  0  0  0
  8 10  2  0  0  0  0
 10 11  1  0  0  0  0
 11 12  2  0  0  0  0
 14 17  1  0  0  0  0
 15 23  1  0  0  0  0
 15 16  1  0  0  0  0
 16 19  1  0  0  0  0
 19 22  1  0  0  0  0
 22  2  1  1  0  0  0
 22 23  1  0  0  0  0
 23 24  1  6  0  0  0
 24 25  1  0  0  0  0
 25 26  1  0  0  0  0
M  CHG  1  18  -1
M  END
>  <CHROM.1>
-33.43479391,-50.10511530,26.59959065,-165.43024854,-175.66696178,-170.07665767
22.48768719,37.47597216,68.31544893,2.18526286,-0.34509978,-0.48912486

>  <Name>
ligand

>  <RI>
0

>  <Rbt.Current_Directory>
/home/itssahil/PROJECTS/Mol_Feturizer/New_Systems/rnas/2HOL

>  <Rbt.Executable>
rbdock ($Id: //depot/dev/client3/rdock/2013.1/src/exe/rbdock.cxx#4 $)

>  <Rbt.Library>
libRbt.so (2013.1, Build901 2013/11/27)

>  <Rbt.Parameter_File>
/export/apps/rDock/src/rDock_2013.1_src/data/scripts/dock_solv.prm

>  <Rbt.Receptor>
prm/pocket_docking_8.prm

>  <SCORE>
-24.7049

>  <SCORE.INTER>
-22.2474

>  <SCORE.INTER.CONST>
1

>  <SCORE.INTER.POLAR>
0

>  <SCORE.INTER.ROT>
6

>  <SCORE.INTER.SOLV>
18.9628

>  <SCORE.INTER.VDW>
-28.7525

>  <SCORE.INTER.norm>
-0.855669

>  <SCORE.INTRA>
-2.45745

>  <SCORE.INTRA.DIHEDRAL>
-3.4973

>  <SCORE.INTRA.DIHEDRAL.0>
9.33621

>  <SCORE.INTRA.POLAR>
0

>  <SCORE.INTRA.POLAR.0>
0

>  <SCORE.INTRA.REPUL>
0

>  <SCORE.INTRA.REPUL.0>
0

>  <SCORE.INTRA.SOLV>
0.136358

>  <SCORE.INTRA.SOLV.lig_0>
-65.9238

>  <SCORE.INTRA.VDW>
-0.776978

>  <SCORE.INTRA.VDW.0>
-0.405582

>  <SCORE.INTRA.norm>
-0.0945172

>  <SCORE.RESTR>
0

>  <SCORE.RESTR.CAVITY>
0

>  <SCORE.RESTR.norm>
0

>  <SCORE.SYSTEM>
0

>  <SCORE.SYSTEM.CONST>
0

>  <SCORE.SYSTEM.DIHEDRAL>
0

>  <SCORE.SYSTEM.SOLV>
0

>  <SCORE.SYSTEM.norm>
0

>  <SCORE.heavy>
26

>  <SCORE.norm>
-0.950187

>  <RMSD>
5.321

$$$$
ligand
 OpenBabel11021811443D
libRbt.so/2013.1/901 2013/11/27
 26 28  0  0  0  0  0  0  0  0999 V2000
   25.1637   46.1754   63.9763 C   0  0  0  0  0  0  0  0  0  0  0  0
   21.9459   42.2193   66.9028 C   0  0  0  0  0  0  0  0  0  0  0  0
   24.5853   38.8527   65.5830 P   0  0  1  0  0  0  0  0  0  0  0  0
   26.0317   38.3208   67.6594 P   0  0  1  0  0  0  0  0  0  0  0  0
   20.3344   44.4736   66.4662 C   0  0  0  0  0  0  0  0  0  0  0  0
   21.9163   44.5458   64.5159 C   0  0  0  0  0  0  0  0  0  0  0  0
   21.6130   44.9247   65.8085 C   0  0  0  0  0  0  0  0  0  0  0  0
   22.5208   45.7367   66.4906 C   0  0  0  0  0  0  0  0  0  0  0  0
   22.2630   46.1443   67.7909 N   0  0  0  0  0  0  0  0  0  0  0  0
   23.6401   46.1092   65.8768 N   0  0  0  0  0  0  0  0  0  0  0  0
   23.8876   45.7283   64.6404 C   0  0  0  0  0  0  0  0  0  0  0  0
   23.0509   44.9614   63.9689 N   0  0  0  0  0  0  0  0  0  0  0  0
   24.9225   40.0085   64.7217 O   0  0  0  0  0  0  0  0  0  0  0  0
   26.8098   37.7441   66.4552 O   0  0  0  0  0  0  0  0  0  0  0  0
   18.7577   41.4394   64.7653 S   0  0  0  0  0  0  0  0  0  0  0  0
   18.8115   43.1193   65.2041 C   0  0  0  0  0  0  0  0  0  0  0  0
   25.5208   37.6027   65.1953 O   0  0  0  0  0  0  0  0  0  0  0  0
   27.0240   39.2028   68.5693 O   0  5  0  0  0  0  0  0  0  0  0  0
   19.9219   43.1867   65.9016 N   0  0  0  0  0  0  0  0  0  0  0  0
   24.8264   39.2457   67.1261 O   0  0  0  0  0  0  0  0  0  0  0  0
   25.4563   37.1604   68.5020 O   0  0  0  0  0  0  0  0  0  0  0  0
   20.6726   42.1253   66.1006 C   0  0  2  0  0  0  0  0  0  0  0  0
   20.2710   40.9407   65.5734 C   0  0  2  0  0  0  0  0  0  0  0  0
   20.9219   39.5843   65.6461 C   0  0  0  0  0  0  0  0  0  0  0  0
   22.3392   39.6648   65.0743 C   0  0  0  0  0  0  0  0  0  0  0  0
   23.0399   38.4545   65.3677 O   0  0  0  0  0  0  0  0  0  0  0  0
  1 11  1  0  0  0  0
  3 13  1  6  0  0  0
  3 17  1  0  0  0  0
  3 20  1  0  0  0  0
  3 26  1  0  0  0  0
  4 14  1  0  0  0  0
  4 18  1  1  0  0  0
  4 21  2  0  0  0  0
  4 20  1  0  0  0  0
  5 19  1  0  0  0  0
  5  7  1  0  0  0  0
  6  7  2  0  0  0  0
  6 12  1  0  0  0  0
  7  8  1  0  0  0  0
  8  9  1  0  0  0  0
  8 10  2  0  0  0  0
 10 11  1  0  0  0  0
 11 12  2  0  0  0  0
 14 17  1  0  0  0  0
 15 23  1  0  0  0  0
 15 16  1  0  0  0  0
 16 19  1  0  0  0  0
 19 22  1  0  0  0  0
 22  2  1  1  0  0  0
 22 23  1  0  0  0  0
 23 24  1  6  0  0  0
 24 25  1  0  0  0  0
 25 26  1  0  0  0  0
M  CHG  1  18  -1
M  END
>  <CHROM.1>
-114.26863119,28.48126464,122.25548832,169.29112747,-146.83182894,-31.98922721
23.08104706,41.38487220,65.95965467,-2.16197081,0.19408613,3.05656941

>  <Name>
ligand

>  <RI>
0

>  <Rbt.Current_Directory>
/home/itssahil/PROJECTS/Mol_Feturizer/New_Systems/rnas/2HOL

>  <Rbt.Executable>
rbdock ($Id: //depot/dev/client3/rdock/2013.1/src/exe/rbdock.cxx#4 $)

>  <Rbt.Library>
libRbt.so (2013.1, Build901 2013/11/27)

>  <Rbt.Parameter_File>
/export/apps/rDock/src/rDock_2013.1_src/data/scripts/dock_solv.prm

>  <Rbt.Receptor>
prm/pocket_docking_7.prm

>  <SCORE>
-21.1034

>  <SCORE.INTER>
-22.7302

>  <SCORE.INTER.CONST>
1

>  <SCORE.INTER.POLAR>
0

>  <SCORE.INTER.ROT>
6

>  <SCORE.INTER.SOLV>
22.353

>  <SCORE.INTER.VDW>
-30.2045

>  <SCORE.INTER.norm>
-0.874238

>  <SCORE.INTRA>
1.62678

>  <SCORE.INTRA.DIHEDRAL>
0.914143

>  <SCORE.INTRA.DIHEDRAL.0>
9.33621

>  <SCORE.INTRA.POLAR>
0

>  <SCORE.INTRA.POLAR.0>
0

>  <SCORE.INTRA.REPUL>
0

>  <SCORE.INTRA.REPUL.0>
0

>  <SCORE.INTRA.SOLV>
0.556881

>  <SCORE.INTRA.SOLV.lig_0>
-65.9238

>  <SCORE.INTRA.VDW>
0.89127

>  <SCORE.INTRA.VDW.0>
-0.405582

>  <SCORE.INTRA.norm>
0.0625685

>  <SCORE.RESTR>
0

>  <SCORE.RESTR.CAVITY>
0

>  <SCORE.RESTR.norm>
0

>  <SCORE.SYSTEM>
0

>  <SCORE.SYSTEM.CONST>
0

>  <SCORE.SYSTEM.DIHEDRAL>
0

>  <SCORE.SYSTEM.SOLV>
0

>  <SCORE.SYSTEM.norm>
0

>  <SCORE.heavy>
26

>  <SCORE.norm>
-0.81167

>  <RMSD>
5.487

$$$$
ligand
 OpenBabel11021811443D
libRbt.so/2013.1/901 2013/11/27
 26 28  0  0  0  0  0  0  0  0999 V2000
   16.5457   38.9285   64.2565 C   0  0  0  0  0  0  0  0  0  0  0  0
   22.2833   44.4984   67.0091 C   0  0  0  0  0  0  0  0  0  0  0  0
   25.5616   45.9267   63.7959 P   0  0  1  0  0  0  0  0  0  0  0  0
   27.9283   45.5208   62.8365 P   0  0  1  0  0  0  0  0  0  0  0  0
   20.1793   42.9667   65.9619 C   0  0  0  0  0  0  0  0  0  0  0  0
   18.2311   42.1754   64.5871 C   0  0  0  0  0  0  0  0  0  0  0  0
   19.2181   41.8969   65.5115 C   0  0  0  0  0  0  0  0  0  0  0  0
   19.3035   40.5989   66.0180 C   0  0  0  0  0  0  0  0  0  0  0  0
   20.2769   40.2682   66.9489 N   0  0  0  0  0  0  0  0  0  0  0  0
   18.4335   39.6848   65.5988 N   0  0  0  0  0  0  0  0  0  0  0  0
   17.5099   39.9927   64.7115 C   0  0  0  0  0  0  0  0  0  0  0  0
   17.4025   41.2093   64.2140 N   0  0  0  0  0  0  0  0  0  0  0  0
   24.8501   47.1914   63.5025 O   0  0  0  0  0  0  0  0  0  0  0  0
   26.9538   45.2046   61.6797 O   0  0  0  0  0  0  0  0  0  0  0  0
   23.4996   41.2267   65.2317 S   0  0  0  0  0  0  0  0  0  0  0  0
   21.7688   41.3587   65.1658 C   0  0  0  0  0  0  0  0  0  0  0  0
   25.3975   44.9173   62.5542 O   0  0  0  0  0  0  0  0  0  0  0  0
   29.0895   46.5027   62.3092 O   0  5  0  0  0  0  0  0  0  0  0  0
   21.5540   42.4888   65.7988 N   0  0  0  0  0  0  0  0  0  0  0  0
   27.1243   46.2340   64.0355 O   0  0  0  0  0  0  0  0  0  0  0  0
   28.5594   44.2070   63.3496 O   0  0  0  0  0  0  0  0  0  0  0  0
   22.5462   43.2017   66.2856 C   0  0  2  0  0  0  0  0  0  0  0  0
   23.8129   42.7398   66.1287 C   0  0  2  0  0  0  0  0  0  0  0  0
   25.1191   43.3380   66.5812 C   0  0  0  0  0  0  0  0  0  0  0  0
   25.7516   44.1197   65.4275 C   0  0  0  0  0  0  0  0  0  0  0  0
   24.9396   45.2548   65.1206 O   0  0  0  0  0  0  0  0  0  0  0  0
  1 11  1  0  0  0  0
  3 13  1  6  0  0  0
  3 17  1  0  0  0  0
  3 20  1  0  0  0  0
  3 26  1  0  0  0  0
  4 14  1  0  0  0  0
  4 18  1  6  0  0  0
  4 21  2  0  0  0  0
  4 20  1  0  0  0  0
  5 19  1  0  0  0  0
  5  7  1  0  0  0  0
  6  7  2  0  0  0  0
  6 12  1  0  0  0  0
  7  8  1  0  0  0  0
  8  9  1  0  0  0  0
  8 10  2  0  0  0  0
 10 11  1  0  0  0  0
 11 12  2  0  0  0  0
 14 17  1  0  0  0  0
 15 23  1  0  0  0  0
 15 16  1  0  0  0  0
 16 19  1  0  0  0  0
 19 22  1  0  0  0  0
 22  2  1  1  0  0  0
 22 23  1  0  0  0  0
 23 24  1  6  0  0  0
 24 25  1  0  0  0  0
 25 26  1  0  0  0  0
M  CHG  1  18  -1
M  END
>  <CHROM.1>
8.52682199,-127.37078025,83.06807439,66.57574154,-173.38083139,-174.18854415
23.38085302,43.39183936,64.62090349,2.67350436,0.33401342,2.16889468

>  <Name>
ligand

>  <RI>
0

>  <Rbt.Current_Directory>
/home/itssahil/PROJECTS/Mol_Feturizer/New_Systems/rnas/2HOL

>  <Rbt.Executable>
rbdock ($Id: //depot/dev/client3/rdock/2013.1/src/exe/rbdock.cxx#4 $)

>  <Rbt.Library>
libRbt.so (2013.1, Build901 2013/11/27)

>  <Rbt.Parameter_File>
/export/apps/rDock/src/rDock_2013.1_src/data/scripts/dock_solv.prm

>  <Rbt.Receptor>
prm/pocket_docking_8.prm

>  <SCORE>
-19.9687

>  <SCORE.INTER>
-19.979

>  <SCORE.INTER.CONST>
1

>  <SCORE.INTER.POLAR>
0

>  <SCORE.INTER.ROT>
6

>  <SCORE.INTER.SOLV>
11.3752

>  <SCORE.INTER.VDW>
-24.7111

>  <SCORE.INTER.norm>
-0.768422

>  <SCORE.INTRA>
0.0103118

>  <SCORE.INTRA.DIHEDRAL>
-3.95294

>  <SCORE.INTRA.DIHEDRAL.0>
9.33621

>  <SCORE.INTRA.POLAR>
0

>  <SCORE.INTRA.POLAR.0>
0

>  <SCORE.INTRA.REPUL>
0

>  <SCORE.INTRA.REPUL.0>
0

>  <SCORE.INTRA.SOLV>
3.00797

>  <SCORE.INTRA.SOLV.lig_0>
-65.9238

>  <SCORE.INTRA.VDW>
0.482797

>  <SCORE.INTRA.VDW.0>
-0.405582

>  <SCORE.INTRA.norm>
0.000396606

>  <SCORE.RESTR>
0

>  <SCORE.RESTR.CAVITY>
0

>  <SCORE.RESTR.norm>
0

>  <SCORE.SYSTEM>
0

>  <SCORE.SYSTEM.CONST>
0

>  <SCORE.SYSTEM.DIHEDRAL>
0

>  <SCORE.SYSTEM.SOLV>
0

>  <SCORE.SYSTEM.norm>
0

>  <SCORE.heavy>
26

>  <SCORE.norm>
-0.768025

>  <RMSD>
5.492

$$$$
ligand
 OpenBabel11021811443D
libRbt.so/2013.1/901 2013/11/27
 26 28  0  0  0  0  0  0  0  0999 V2000
   18.8824   42.9811   65.2924 C   0  0  0  0  0  0  0  0  0  0  0  0
   24.9616   38.2006   66.3895 C   0  0  0  0  0  0  0  0  0  0  0  0
   26.2674   36.4954   72.1287 P   0  0  1  0  0  0  0  0  0  0  0  0
   24.7899   35.4274   73.9626 P   0  0  1  0  0  0  0  0  0  0  0  0
   22.3074   38.4380   65.5128 C   0  0  0  0  0  0  0  0  0  0  0  0
   20.0627   39.5057   65.1479 C   0  0  0  0  0  0  0  0  0  0  0  0
   21.4020   39.6414   65.4548 C   0  0  0  0  0  0  0  0  0  0  0  0
   21.8962   40.9217   65.7103 C   0  0  0  0  0  0  0  0  0  0  0  0
   23.2341   41.1114   66.0226 N   0  0  0  0  0  0  0  0  0  0  0  0
   21.0659   41.9583   65.6441 N   0  0  0  0  0  0  0  0  0  0  0  0
   19.7935   41.7828   65.3522 C   0  0  0  0  0  0  0  0  0  0  0  0
   19.2956   40.5869   65.1054 N   0  0  0  0  0  0  0  0  0  0  0  0
   26.4529   37.9635   72.0885 O   0  0  0  0  0  0  0  0  0  0  0  0
   26.1515   35.7050   74.6387 O   0  0  0  0  0  0  0  0  0  0  0  0
   22.3407   37.5099   69.2173 S   0  0  0  0  0  0  0  0  0  0  0  0
   21.5476   37.8884   67.7189 C   0  0  0  0  0  0  0  0  0  0  0  0
   27.2622   35.8577   73.2202 O   0  0  0  0  0  0  0  0  0  0  0  0
   23.6025   35.9913   74.8914 O   0  5  0  0  0  0  0  0  0  0  0  0
   22.5637   38.0862   66.9112 N   0  0  0  0  0  0  0  0  0  0  0  0
   24.7442   36.1582   72.5285 O   0  0  0  0  0  0  0  0  0  0  0  0
   24.6133   33.9045   73.7703 O   0  0  0  0  0  0  0  0  0  0  0  0
   23.8052   37.9716   67.3299 C   0  0  2  0  0  0  0  0  0  0  0  0
   24.0224   37.6497   68.6305 C   0  0  2  0  0  0  0  0  0  0  0  0
   25.3198   37.4594   69.3718 C   0  0  0  0  0  0  0  0  0  0  0  0
   25.4062   36.0231   69.8929 C   0  0  0  0  0  0  0  0  0  0  0  0
   26.5900   35.8728   70.6790 O   0  0  0  0  0  0  0  0  0  0  0  0
  1 11  1  0  0  0  0
  3 13  1  6  0  0  0
  3 17  1  0  0  0  0
  3 20  1  0  0  0  0
  3 26  1  0  0  0  0
  4 14  1  0  0  0  0
  4 18  1  1  0  0  0
  4 21  2  0  0  0  0
  4 20  1  0  0  0  0
  5 19  1  0  0  0  0
  5  7  1  0  0  0  0
  6  7  2  0  0  0  0
  6 12  1  0  0  0  0
  7  8  1  0  0  0  0
  8  9  1  0  0  0  0
  8 10  2  0  0  0  0
 10 11  1  0  0  0  0
 11 12  2  0  0  0  0
 14 17  1  0  0  0  0
 15 23  1  0  0  0  0
 15 16  1  0  0  0  0
 16 19  1  0  0  0  0
 19 22  1  0  0  0  0
 22  2  1  1  0  0  0
 22 23  1  0  0  0  0
 23 24  1  6  0  0  0
 24 25  1  0  0  0  0
 25 26  1  0  0  0  0
M  CHG  1  18  -1
M  END
>  <CHROM.1>
53.98068098,-103.37681220,61.46735393,-175.74673620,79.55769290,-82.88664617
23.64739962,37.81565973,69.49706797,2.07075984,0.28599364,-1.15861346

>  <Name>
ligand

>  <RI>
0

>  <Rbt.Current_Directory>
/home/itssahil/PROJECTS/Mol_Feturizer/New_Systems/rnas/2HOL

>  <Rbt.Executable>
rbdock ($Id: //depot/dev/client3/rdock/2013.1/src/exe/rbdock.cxx#4 $)

>  <Rbt.Library>
libRbt.so (2013.1, Build901 2013/11/27)

>  <Rbt.Parameter_File>
/export/apps/rDock/src/rDock_2013.1_src/data/scripts/dock_solv.prm

>  <Rbt.Receptor>
prm/pocket_docking_8.prm

>  <SCORE>
-18.5474

>  <SCORE.INTER>
-18.3508

>  <SCORE.INTER.CONST>
1

>  <SCORE.INTER.POLAR>
0

>  <SCORE.INTER.ROT>
6

>  <SCORE.INTER.SOLV>
14.2576

>  <SCORE.INTER.VDW>
-24.5864

>  <SCORE.INTER.norm>
-0.705802

>  <SCORE.INTRA>
-0.196593

>  <SCORE.INTRA.DIHEDRAL>
-1.61792

>  <SCORE.INTRA.DIHEDRAL.0>
9.33621

>  <SCORE.INTRA.POLAR>
0

>  <SCORE.INTRA.POLAR.0>
0

>  <SCORE.INTRA.REPUL>
0

>  <SCORE.INTRA.REPUL.0>
0

>  <SCORE.INTRA.SOLV>
2.79551

>  <SCORE.INTRA.SOLV.lig_0>
-65.9238

>  <SCORE.INTRA.VDW>
-0.785386

>  <SCORE.INTRA.VDW.0>
-0.405582

>  <SCORE.INTRA.norm>
-0.00756127

>  <SCORE.RESTR>
0

>  <SCORE.RESTR.CAVITY>
0

>  <SCORE.RESTR.norm>
0

>  <SCORE.SYSTEM>
0

>  <SCORE.SYSTEM.CONST>
0

>  <SCORE.SYSTEM.DIHEDRAL>
0

>  <SCORE.SYSTEM.SOLV>
0

>  <SCORE.SYSTEM.norm>
0

>  <SCORE.heavy>
26

>  <SCORE.norm>
-0.713363

>  <RMSD>
5.505

$$$$
ligand
 OpenBabel11021811443D
libRbt.so/2013.1/901 2013/11/27
 26 28  0  0  0  0  0  0  0  0999 V2000
   17.0869   40.7845   63.9717 C   0  0  0  0  0  0  0  0  0  0  0  0
   24.3631   42.5273   67.7981 C   0  0  0  0  0  0  0  0  0  0  0  0
   28.4328   45.9220   63.6175 P   0  0  1  0  0  0  0  0  0  0  0  0
   28.3560   44.1488   61.7369 P   0  0  1  0  0  0  0  0  0  0  0  0
   21.6930   42.1154   67.0427 C   0  0  0  0  0  0  0  0  0  0  0  0
   19.5121   42.7105   65.9468 C   0  0  0  0  0  0  0  0  0  0  0  0
   20.4743   41.7617   66.2298 C   0  0  0  0  0  0  0  0  0  0  0  0
   20.2898   40.4663   65.7434 C   0  0  0  0  0  0  0  0  0  0  0  0
   21.2269   39.4767   66.0006 N   0  0  0  0  0  0  0  0  0  0  0  0
   19.1985   40.1932   65.0343 N   0  0  0  0  0  0  0  0  0  0  0  0
   18.3077   41.1306   64.7837 C   0  0  0  0  0  0  0  0  0  0  0  0
   18.4523   42.3635   65.2287 N   0  0  0  0  0  0  0  0  0  0  0  0
   29.5905   46.8383   63.7249 O   0  0  0  0  0  0  0  0  0  0  0  0
   27.9158   45.4735   61.0739 O   0  0  0  0  0  0  0  0  0  0  0  0
   23.2364   44.8136   64.8240 S   0  0  0  0  0  0  0  0  0  0  0  0
   21.9328   43.7908   65.3452 C   0  0  0  0  0  0  0  0  0  0  0  0
   27.4161   46.4697   62.4977 O   0  0  0  0  0  0  0  0  0  0  0  0
   29.4888   43.4458   60.8352 O   0  5  0  0  0  0  0  0  0  0  0  0
   22.4879   43.1129   66.3230 N   0  0  0  0  0  0  0  0  0  0  0  0
   28.9481   44.4535   63.2030 O   0  0  0  0  0  0  0  0  0  0  0  0
   27.1377   43.2064   61.8592 O   0  0  0  0  0  0  0  0  0  0  0  0
   23.7402   43.3130   66.6719 C   0  0  2  0  0  0  0  0  0  0  0  0
   24.4620   44.2383   65.9897 C   0  0  2  0  0  0  0  0  0  0  0  0
   25.8957   44.6642   66.1683 C   0  0  0  0  0  0  0  0  0  0  0  0
   26.4701   45.1078   64.8210 C   0  0  0  0  0  0  0  0  0  0  0  0
   27.6766   45.8424   65.0370 O   0  0  0  0  0  0  0  0  0  0  0  0
  1 11  1  0  0  0  0
  3 13  1  1  0  0  0
  3 17  1  0  0  0  0
  3 20  1  0  0  0  0
  3 26  1  0  0  0  0
  4 14  1  0  0  0  0
  4 18  1  6  0  0  0
  4 21  2  0  0  0  0
  4 20  1  0  0  0  0
  5 19  1  0  0  0  0
  5  7  1  0  0  0  0
  6  7  2  0  0  0  0
  6 12  1  0  0  0  0
  7  8  1  0  0  0  0
  8  9  1  0  0  0  0
  8 10  2  0  0  0  0
 10 11  1  0  0  0  0
 11 12  2  0  0  0  0
 14 17  1  0  0  0  0
 15 23  1  0  0  0  0
 15 16  1  0  0  0  0
 16 19  1  0  0  0  0
 19 22  1  0  0  0  0
 22  2  1  6  0  0  0
 22 23  1  0  0  0  0
 23 24  1  1  0  0  0
 24 25  1  0  0  0  0
 25 26  1  0  0  0  0
M  CHG  1  18  -1
M  END
>  <CHROM.1>
17.33452363,-63.45124940,-30.49887964,164.32519027,164.63319024,171.71978641
24.53638943,43.67155186,64.41692158,3.01717968,0.47708191,1.18267486

>  <Name>
ligand

>  <RI>
0

>  <Rbt.Current_Directory>
/home/itssahil/PROJECTS/Mol_Feturizer/New_Systems/rnas/2HOL

>  <Rbt.Executable>
rbdock ($Id: //depot/dev/client3/rdock/2013.1/src/exe/rbdock.cxx#4 $)

>  <Rbt.Library>
libRbt.so (2013.1, Build901 2013/11/27)

>  <Rbt.Parameter_File>
/export/apps/rDock/src/rDock_2013.1_src/data/scripts/dock_solv.prm

>  <Rbt.Receptor>
prm/pocket_docking_8.prm

>  <SCORE>
-16.3727

>  <SCORE.INTER>
-15.7598

>  <SCORE.INTER.CONST>
1

>  <SCORE.INTER.POLAR>
0

>  <SCORE.INTER.ROT>
6

>  <SCORE.INTER.SOLV>
7.94844

>  <SCORE.INTER.VDW>
-20.756

>  <SCORE.INTER.norm>
-0.606146

>  <SCORE.INTRA>
-0.612924

>  <SCORE.INTRA.DIHEDRAL>
-2.39053

>  <SCORE.INTRA.DIHEDRAL.0>
9.33621

>  <SCORE.INTRA.POLAR>
0

>  <SCORE.INTRA.POLAR.0>
0

>  <SCORE.INTRA.REPUL>
0

>  <SCORE.INTRA.REPUL.0>
0

>  <SCORE.INTRA.SOLV>
0.268361

>  <SCORE.INTRA.SOLV.lig_0>
-65.9238

>  <SCORE.INTRA.VDW>
0.448161

>  <SCORE.INTRA.VDW.0>
-0.405582

>  <SCORE.INTRA.norm>
-0.023574

>  <SCORE.RESTR>
0

>  <SCORE.RESTR.CAVITY>
0

>  <SCORE.RESTR.norm>
0

>  <SCORE.SYSTEM>
0

>  <SCORE.SYSTEM.CONST>
0

>  <SCORE.SYSTEM.DIHEDRAL>
0

>  <SCORE.SYSTEM.SOLV>
0

>  <SCORE.SYSTEM.norm>
0

>  <SCORE.heavy>
26

>  <SCORE.norm>
-0.62972

>  <RMSD>
5.522

$$$$
ligand
 OpenBabel11021811443D
libRbt.so/2013.1/901 2013/11/27
 26 28  0  0  0  0  0  0  0  0999 V2000
   19.5903   44.5326   65.9921 C   0  0  0  0  0  0  0  0  0  0  0  0
   24.0948   39.2920   65.8152 C   0  0  0  0  0  0  0  0  0  0  0  0
   25.4561   35.0981   70.1929 P   0  0  1  0  0  0  0  0  0  0  0  0
   23.2680   34.1724   71.2137 P   0  0  1  0  0  0  0  0  0  0  0  0
   21.2970   39.1071   65.7280 C   0  0  0  0  0  0  0  0  0  0  0  0
   21.7314   41.5507   66.1179 C   0  0  0  0  0  0  0  0  0  0  0  0
   20.8438   40.5428   65.7976 C   0  0  0  0  0  0  0  0  0  0  0  0
   19.5159   40.8873   65.5395 C   0  0  0  0  0  0  0  0  0  0  0  0
   18.5852   39.9120   65.2140 N   0  0  0  0  0  0  0  0  0  0  0  0
   19.1548   42.1648   65.6162 N   0  0  0  0  0  0  0  0  0  0  0  0
   20.0359   43.0954   65.9207 C   0  0  0  0  0  0  0  0  0  0  0  0
   21.2974   42.8029   66.1702 N   0  0  0  0  0  0  0  0  0  0  0  0
   26.6930   35.1394   71.0052 O   0  0  0  0  0  0  0  0  0  0  0  0
   24.0905   32.9300   70.8036 O   0  0  0  0  0  0  0  0  0  0  0  0
   22.5290   38.0649   69.1894 S   0  0  0  0  0  0  0  0  0  0  0  0
   21.2926   38.3573   68.0048 C   0  0  0  0  0  0  0  0  0  0  0  0
   25.2519   33.6167   69.5999 O   0  0  0  0  0  0  0  0  0  0  0  0
   22.7427   33.9957   72.7248 O   0  5  0  0  0  0  0  0  0  0  0  0
   21.9928   38.7536   66.9672 N   0  0  0  0  0  0  0  0  0  0  0  0
   24.1950   35.4854   71.1167 O   0  0  0  0  0  0  0  0  0  0  0  0
   22.0591   34.3242   70.2634 O   0  0  0  0  0  0  0  0  0  0  0  0
   23.3045   38.8363   67.0159 C   0  0  2  0  0  0  0  0  0  0  0  0
   23.9309   38.5091   68.1748 C   0  0  2  0  0  0  0  0  0  0  0  0
   25.3992   38.5150   68.5108 C   0  0  0  0  0  0  0  0  0  0  0  0
   25.6869   37.4478   69.5693 C   0  0  0  0  0  0  0  0  0  0  0  0
   25.5739   36.1508   68.9801 O   0  0  0  0  0  0  0  0  0  0  0  0
  1 11  1  0  0  0  0
  3 13  1  1  0  0  0
  3 17  1  0  0  0  0
  3 20  1  0  0  0  0
  3 26  1  0  0  0  0
  4 14  1  0  0  0  0
  4 18  1  1  0  0  0
  4 21  2  0  0  0  0
  4 20  1  0  0  0  0
  5 19  1  0  0  0  0
  5  7  1  0  0  0  0
  6  7  2  0  0  0  0
  6 12  1  0  0  0  0
  7  8  1  0  0  0  0
  8  9  1  0  0  0  0
  8 10  2  0  0  0  0
 10 11  1  0  0  0  0
 11 12  2  0  0  0  0
 14 17  1  0  0  0  0
 15 23  1  0  0  0  0
 15 16  1  0  0  0  0
 16 19  1  0  0  0  0
 19 22  1  0  0  0  0
 22  2  1  1  0  0  0
 22 23  1  0  0  0  0
 23 24  1  6  0  0  0
 24 25  1  0  0  0  0
 25 26  1  0  0  0  0
M  CHG  1  18  -1
M  END
>  <CHROM.1>
84.96580666,52.14338580,29.18563984,71.35742476,-163.79775960,-62.69566678
22.89890830,37.73469008,68.50209418,-2.01270149,0.01998874,2.55535378

>  <Name>
ligand

>  <RI>
0

>  <Rbt.Current_Directory>
/home/itssahil/PROJECTS/Mol_Feturizer/New_Systems/rnas/2HOL

>  <Rbt.Executable>
rbdock ($Id: //depot/dev/client3/rdock/2013.1/src/exe/rbdock.cxx#4 $)

>  <Rbt.Library>
libRbt.so (2013.1, Build901 2013/11/27)

>  <Rbt.Parameter_File>
/export/apps/rDock/src/rDock_2013.1_src/data/scripts/dock_solv.prm

>  <Rbt.Receptor>
prm/pocket_docking_8.prm

>  <SCORE>
-22.1057

>  <SCORE.INTER>
-18.3875

>  <SCORE.INTER.CONST>
1

>  <SCORE.INTER.POLAR>
0

>  <SCORE.INTER.ROT>
6

>  <SCORE.INTER.SOLV>
17.2544

>  <SCORE.INTER.VDW>
-25.6098

>  <SCORE.INTER.norm>
-0.707211

>  <SCORE.INTRA>
-3.71819

>  <SCORE.INTRA.DIHEDRAL>
-2.76586

>  <SCORE.INTRA.DIHEDRAL.0>
9.33621

>  <SCORE.INTRA.POLAR>
0

>  <SCORE.INTRA.POLAR.0>
0

>  <SCORE.INTRA.REPUL>
0

>  <SCORE.INTRA.REPUL.0>
0

>  <SCORE.INTRA.SOLV>
-0.41974

>  <SCORE.INTRA.SOLV.lig_0>
-65.9238

>  <SCORE.INTRA.VDW>
-2.12539

>  <SCORE.INTRA.VDW.0>
-0.405582

>  <SCORE.INTRA.norm>
-0.143007

>  <SCORE.RESTR>
0

>  <SCORE.RESTR.CAVITY>
0

>  <SCORE.RESTR.norm>
0

>  <SCORE.SYSTEM>
0

>  <SCORE.SYSTEM.CONST>
0

>  <SCORE.SYSTEM.DIHEDRAL>
0

>  <SCORE.SYSTEM.SOLV>
0

>  <SCORE.SYSTEM.norm>
0

>  <SCORE.heavy>
26

>  <SCORE.norm>
-0.850219

>  <RMSD>
5.578

$$$$
ligand
 OpenBabel11021811443D
libRbt.so/2013.1/901 2013/11/27
 26 28  0  0  0  0  0  0  0  0999 V2000
   17.8379   41.5097   64.6526 C   0  0  0  0  0  0  0  0  0  0  0  0
   24.4750   38.0501   68.4667 C   0  0  0  0  0  0  0  0  0  0  0  0
   26.4267   36.3212   72.7503 P   0  0  1  0  0  0  0  0  0  0  0  0
   26.4947   36.4389   75.3326 P   0  0  1  0  0  0  0  0  0  0  0  0
   22.4530   39.7159   67.4636 C   0  0  0  0  0  0  0  0  0  0  0  0
   20.3693   39.2927   66.1254 C   0  0  0  0  0  0  0  0  0  0  0  0
   21.2319   40.1921   66.7198 C   0  0  0  0  0  0  0  0  0  0  0  0
   20.9439   41.5540   66.6146 C   0  0  0  0  0  0  0  0  0  0  0  0
   21.7791   42.4978   67.1936 N   0  0  0  0  0  0  0  0  0  0  0  0
   19.8593   41.9338   65.9456 N   0  0  0  0  0  0  0  0  0  0  0  0
   19.0605   41.0411   65.3977 C   0  0  0  0  0  0  0  0  0  0  0  0
   19.3044   39.7477   65.4787 N   0  0  0  0  0  0  0  0  0  0  0  0
   27.0018   37.4209   71.9432 O   0  0  0  0  0  0  0  0  0  0  0  0
   27.9013   35.9639   74.9035 O   0  0  0  0  0  0  0  0  0  0  0  0
   20.8960   37.0319   69.6900 S   0  0  0  0  0  0  0  0  0  0  0  0
   20.8211   38.4196   68.6478 C   0  0  0  0  0  0  0  0  0  0  0  0
   27.6038   35.3371   73.2338 O   0  0  0  0  0  0  0  0  0  0  0  0
   26.6326   37.6537   76.3793 O   0  5  0  0  0  0  0  0  0  0  0  0
   22.0854   38.6080   68.3480 N   0  0  0  0  0  0  0  0  0  0  0  0
   25.6778   36.9355   74.0369 O   0  0  0  0  0  0  0  0  0  0  0  0
   25.7391   35.2680   76.0002 O   0  0  0  0  0  0  0  0  0  0  0  0
   23.0273   37.8215   68.8214 C   0  0  2  0  0  0  0  0  0  0  0  0
   22.6673   36.8031   69.6435 C   0  0  2  0  0  0  0  0  0  0  0  0
   23.5225   35.7664   70.3238 C   0  0  0  0  0  0  0  0  0  0  0  0
   24.4248   36.4445   71.3572 C   0  0  0  0  0  0  0  0  0  0  0  0
   25.3690   35.4965   71.8591 O   0  0  0  0  0  0  0  0  0  0  0  0
  1 11  1  0  0  0  0
  3 13  1  6  0  0  0
  3 17  1  0  0  0  0
  3 20  1  0  0  0  0
  3 26  1  0  0  0  0
  4 14  1  0  0  0  0
  4 18  1  1  0  0  0
  4 21  2  0  0  0  0
  4 20  1  0  0  0  0
  5 19  1  0  0  0  0
  5  7  1  0  0  0  0
  6  7  2  0  0  0  0
  6 12  1  0  0  0  0
  7  8  1  0  0  0  0
  8  9  1  0  0  0  0
  8 10  2  0  0  0  0
 10 11  1  0  0  0  0
 11 12  2  0  0  0  0
 14 17  1  0  0  0  0
 15 23  1  0  0  0  0
 15 16  1  0  0  0  0
 16 19  1  0  0  0  0
 19 22  1  0  0  0  0
 22  2  1  1  0  0  0
 22 23  1  0  0  0  0
 23 24  1  6  0  0  0
 24 25  1  0  0  0  0
 25 26  1  0  0  0  0
M  CHG  1  18  -1
M  END
>  <CHROM.1>
-17.39058118,-46.13233611,-114.13119015,-171.53701776,171.05223044,-54.51087954
23.54891000,37.91141087,70.42924769,-2.46320071,0.73132992,2.74551606

>  <Name>
ligand

>  <RI>
0

>  <Rbt.Current_Directory>
/home/itssahil/PROJECTS/Mol_Feturizer/New_Systems/rnas/2HOL

>  <Rbt.Executable>
rbdock ($Id: //depot/dev/client3/rdock/2013.1/src/exe/rbdock.cxx#4 $)

>  <Rbt.Library>
libRbt.so (2013.1, Build901 2013/11/27)

>  <Rbt.Parameter_File>
/export/apps/rDock/src/rDock_2013.1_src/data/scripts/dock_solv.prm

>  <Rbt.Receptor>
prm/blind_docking_100.prm

>  <SCORE>
-21.1217

>  <SCORE.INTER>
-19.9055

>  <SCORE.INTER.CONST>
1

>  <SCORE.INTER.POLAR>
0

>  <SCORE.INTER.ROT>
6

>  <SCORE.INTER.SOLV>
13.5742

>  <SCORE.INTER.VDW>
-25.3951

>  <SCORE.INTER.norm>
-0.765596

>  <SCORE.INTRA>
-1.21614

>  <SCORE.INTRA.DIHEDRAL>
-4.05044

>  <SCORE.INTRA.DIHEDRAL.0>
9.33621

>  <SCORE.INTRA.POLAR>
0

>  <SCORE.INTRA.POLAR.0>
0

>  <SCORE.INTRA.REPUL>
0

>  <SCORE.INTRA.REPUL.0>
0

>  <SCORE.INTRA.SOLV>
-0.443133

>  <SCORE.INTRA.SOLV.lig_0>
-65.9238

>  <SCORE.INTRA.VDW>
1.03064

>  <SCORE.INTRA.VDW.0>
-0.405582

>  <SCORE.INTRA.norm>
-0.0467747

>  <SCORE.RESTR>
0

>  <SCORE.RESTR.CAVITY>
0

>  <SCORE.RESTR.norm>
0

>  <SCORE.SYSTEM>
0

>  <SCORE.SYSTEM.CONST>
0

>  <SCORE.SYSTEM.DIHEDRAL>
0

>  <SCORE.SYSTEM.SOLV>
0

>  <SCORE.SYSTEM.norm>
0

>  <SCORE.heavy>
26

>  <SCORE.norm>
-0.812371

>  <RMSD>
5.606

$$$$
ligand
 OpenBabel11021811443D
libRbt.so/2013.1/901 2013/11/27
 26 28  0  0  0  0  0  0  0  0999 V2000
   18.8680   43.0398   65.3173 C   0  0  0  0  0  0  0  0  0  0  0  0
   25.8422   40.6918   67.8209 C   0  0  0  0  0  0  0  0  0  0  0  0
   24.4376   35.3526   70.9356 P   0  0  1  0  0  0  0  0  0  0  0  0
   24.6814   34.5911   73.3947 P   0  0  1  0  0  0  0  0  0  0  0  0
   24.3566   41.5524   65.6023 C   0  0  0  0  0  0  0  0  0  0  0  0
   21.9067   40.9962   65.6043 C   0  0  0  0  0  0  0  0  0  0  0  0
   22.9043   41.9475   65.5267 C   0  0  0  0  0  0  0  0  0  0  0  0
   22.5334   43.2849   65.3767 C   0  0  0  0  0  0  0  0  0  0  0  0
   23.4973   44.2786   65.2934 N   0  0  0  0  0  0  0  0  0  0  0  0
   21.2413   43.5919   65.3090 N   0  0  0  0  0  0  0  0  0  0  0  0
   20.3219   42.6524   65.3921 C   0  0  0  0  0  0  0  0  0  0  0  0
   20.6391   41.3802   65.5337 N   0  0  0  0  0  0  0  0  0  0  0  0
   23.4281   34.7161   70.0596 O   0  0  0  0  0  0  0  0  0  0  0  0
   23.4674   35.5470   73.3767 O   0  0  0  0  0  0  0  0  0  0  0  0
   24.2605   37.7392   65.7905 S   0  0  0  0  0  0  0  0  0  0  0  0
   23.8567   39.2686   65.0728 C   0  0  0  0  0  0  0  0  0  0  0  0
   23.7288   36.4734   71.8461 O   0  0  0  0  0  0  0  0  0  0  0  0
   24.2909   33.2392   74.1760 O   0  5  0  0  0  0  0  0  0  0  0  0
   24.4591   40.1169   65.8737 N   0  0  0  0  0  0  0  0  0  0  0  0
   25.1062   34.2350   71.8829 O   0  0  0  0  0  0  0  0  0  0  0  0
   25.8644   35.2773   74.1139 O   0  0  0  0  0  0  0  0  0  0  0  0
   25.1549   39.7051   66.9110 C   0  0  2  0  0  0  0  0  0  0  0  0
   25.2340   38.3710   67.1488 C   0  0  2  0  0  0  0  0  0  0  0  0
   25.9473   37.6296   68.2489 C   0  0  0  0  0  0  0  0  0  0  0  0
   24.9200   36.9750   69.1753 C   0  0  0  0  0  0  0  0  0  0  0  0
   25.5790   36.0386   70.0302 O   0  0  0  0  0  0  0  0  0  0  0  0
  1 11  1  0  0  0  0
  3 13  1  6  0  0  0
  3 17  1  0  0  0  0
  3 20  1  0  0  0  0
  3 26  1  0  0  0  0
  4 14  1  0  0  0  0
  4 18  1  1  0  0  0
  4 21  2  0  0  0  0
  4 20  1  0  0  0  0
  5 19  1  0  0  0  0
  5  7  1  0  0  0  0
  6  7  2  0  0  0  0
  6 12  1  0  0  0  0
  7  8  1  0  0  0  0
  8  9  1  0  0  0  0
  8 10  2  0  0  0  0
 10 11  1  0  0  0  0
 11 12  2  0  0  0  0
 14 17  1  0  0  0  0
 15 23  1  0  0  0  0
 15 16  1  0  0  0  0
 16 19  1  0  0  0  0
 19 22  1  0  0  0  0
 22  2  1  1  0  0  0
 22 23  1  0  0  0  0
 23 24  1  6  0  0  0
 24 25  1  0  0  0  0
 25 26  1  0  0  0  0
M  CHG  1  18  -1
M  END
>  <CHROM.1>
55.47268195,-4.82657554,-68.05175397,167.19605414,-177.99249751,57.63472028
23.84401253,38.26103299,68.67555829,1.83082592,0.48589013,-0.89971159

>  <Name>
ligand

>  <RI>
0

>  <Rbt.Current_Directory>
/home/itssahil/PROJECTS/Mol_Feturizer/New_Systems/rnas/2HOL

>  <Rbt.Executable>
rbdock ($Id: //depot/dev/client3/rdock/2013.1/src/exe/rbdock.cxx#4 $)

>  <Rbt.Library>
libRbt.so (2013.1, Build901 2013/11/27)

>  <Rbt.Parameter_File>
/export/apps/rDock/src/rDock_2013.1_src/data/scripts/dock_solv.prm

>  <Rbt.Receptor>
prm/blind_docking_100.prm

>  <SCORE>
-14.9355

>  <SCORE.INTER>
-13.1508

>  <SCORE.INTER.CONST>
1

>  <SCORE.INTER.POLAR>
0

>  <SCORE.INTER.ROT>
6

>  <SCORE.INTER.SOLV>
7.02839

>  <SCORE.INTER.VDW>
-18.71

>  <SCORE.INTER.norm>
-0.505798

>  <SCORE.INTRA>
-1.78476

>  <SCORE.INTRA.DIHEDRAL>
-3.57202

>  <SCORE.INTRA.DIHEDRAL.0>
9.33621

>  <SCORE.INTRA.POLAR>
0

>  <SCORE.INTRA.POLAR.0>
0

>  <SCORE.INTRA.REPUL>
0

>  <SCORE.INTRA.REPUL.0>
0

>  <SCORE.INTRA.SOLV>
-0.740801

>  <SCORE.INTRA.SOLV.lig_0>
-65.9238

>  <SCORE.INTRA.VDW>
0.371651

>  <SCORE.INTRA.VDW.0>
-0.405582

>  <SCORE.INTRA.norm>
-0.0686446

>  <SCORE.RESTR>
0

>  <SCORE.RESTR.CAVITY>
0

>  <SCORE.RESTR.norm>
0

>  <SCORE.SYSTEM>
0

>  <SCORE.SYSTEM.CONST>
0

>  <SCORE.SYSTEM.DIHEDRAL>
0

>  <SCORE.SYSTEM.SOLV>
0

>  <SCORE.SYSTEM.norm>
0

>  <SCORE.heavy>
26

>  <SCORE.norm>
-0.574443

>  <RMSD>
5.662

$$$$
ligand
 OpenBabel11021811443D
libRbt.so/2013.1/901 2013/11/27
 26 28  0  0  0  0  0  0  0  0999 V2000
   16.4372   40.1148   63.7972 C   0  0  0  0  0  0  0  0  0  0  0  0
   24.1892   39.6736   66.9214 C   0  0  0  0  0  0  0  0  0  0  0  0
   24.5203   35.3970   72.3329 P   0  0  1  0  0  0  0  0  0  0  0  0
   25.1897   35.6535   74.8174 P   0  0  1  0  0  0  0  0  0  0  0  0
   21.6240   40.4758   66.1178 C   0  0  0  0  0  0  0  0  0  0  0  0
   19.7626   39.1754   65.0427 C   0  0  0  0  0  0  0  0  0  0  0  0
   20.2509   40.3817   65.5037 C   0  0  0  0  0  0  0  0  0  0  0  0
   19.4403   41.5122   65.3869 C   0  0  0  0  0  0  0  0  0  0  0  0
   19.8847   42.7474   65.8343 N   0  0  0  0  0  0  0  0  0  0  0  0
   18.2370   41.3883   64.8346 N   0  0  0  0  0  0  0  0  0  0  0  0
   17.8086   40.2166   64.4121 C   0  0  0  0  0  0  0  0  0  0  0  0
   18.5498   39.1300   64.5077 N   0  0  0  0  0  0  0  0  0  0  0  0
   24.0741   34.0828   71.8177 O   0  0  0  0  0  0  0  0  0  0  0  0
   23.6453   35.7036   74.7983 O   0  0  0  0  0  0  0  0  0  0  0  0
   21.3258   37.8704   68.8942 S   0  0  0  0  0  0  0  0  0  0  0  0
   20.6698   38.9771   67.7270 C   0  0  0  0  0  0  0  0  0  0  0  0
   23.2945   36.1271   73.0759 O   0  0  0  0  0  0  0  0  0  0  0  0
   25.6808   34.6119   75.9418 O   0  5  0  0  0  0  0  0  0  0  0  0
   21.7542   39.4754   67.1794 N   0  0  0  0  0  0  0  0  0  0  0  0
   25.7289   35.1819   73.3753 O   0  0  0  0  0  0  0  0  0  0  0  0
   25.7449   37.0588   75.1404 O   0  0  0  0  0  0  0  0  0  0  0  0
   22.9533   39.0929   67.5611 C   0  0  2  0  0  0  0  0  0  0  0  0
   23.0534   38.1683   68.5498 C   0  0  2  0  0  0  0  0  0  0  0  0
   24.2795   37.5600   69.1788 C   0  0  0  0  0  0  0  0  0  0  0  0
   23.8661   36.6806   70.3611 C   0  0  0  0  0  0  0  0  0  0  0  0
   25.0271   36.3108   71.1076 O   0  0  0  0  0  0  0  0  0  0  0  0
  1 11  1  0  0  0  0
  3 13  1  6  0  0  0
  3 17  1  0  0  0  0
  3 20  1  0  0  0  0
  3 26  1  0  0  0  0
  4 14  1  0  0  0  0
  4 18  1  1  0  0  0
  4 21  2  0  0  0  0
  4 20  1  0  0  0  0
  5 19  1  0  0  0  0
  5  7  1  0  0  0  0
  6  7  2  0  0  0  0
  6 12  1  0  0  0  0
  7  8  1  0  0  0  0
  8  9  1  0  0  0  0
  8 10  2  0  0  0  0
 10 11  1  0  0  0  0
 11 12  2  0  0  0  0
 14 17  1  0  0  0  0
 15 23  1  0  0  0  0
 15 16  1  0  0  0  0
 16 19  1  0  0  0  0
 19 22  1  0  0  0  0
 22  2  1  1  0  0  0
 22 23  1  0  0  0  0
 23 24  1  6  0  0  0
 24 25  1  0  0  0  0
 25 26  1  0  0  0  0
M  CHG  1  18  -1
M  END
>  <CHROM.1>
-20.80435205,-52.33268996,-6.51534475,-169.10295326,179.76858577,71.03566517
22.50105794,37.82701818,69.59942441,2.11255283,-0.28992821,-0.88923876

>  <Name>
ligand

>  <RI>
0

>  <Rbt.Current_Directory>
/home/itssahil/PROJECTS/Mol_Feturizer/New_Systems/rnas/2HOL

>  <Rbt.Executable>
rbdock ($Id: //depot/dev/client3/rdock/2013.1/src/exe/rbdock.cxx#4 $)

>  <Rbt.Library>
libRbt.so (2013.1, Build901 2013/11/27)

>  <Rbt.Parameter_File>
/export/apps/rDock/src/rDock_2013.1_src/data/scripts/dock_solv.prm

>  <Rbt.Receptor>
prm/blind_docking_100.prm

>  <SCORE>
-24.2641

>  <SCORE.INTER>
-22.3624

>  <SCORE.INTER.CONST>
1

>  <SCORE.INTER.POLAR>
0

>  <SCORE.INTER.ROT>
6

>  <SCORE.INTER.SOLV>
17.0061

>  <SCORE.INTER.VDW>
-28.177

>  <SCORE.INTER.norm>
-0.860094

>  <SCORE.INTRA>
-1.90165

>  <SCORE.INTRA.DIHEDRAL>
-4.12675

>  <SCORE.INTRA.DIHEDRAL.0>
9.33621

>  <SCORE.INTRA.POLAR>
0

>  <SCORE.INTRA.POLAR.0>
0

>  <SCORE.INTRA.REPUL>
0

>  <SCORE.INTRA.REPUL.0>
0

>  <SCORE.INTRA.SOLV>
-0.753533

>  <SCORE.INTRA.SOLV.lig_0>
-65.9238

>  <SCORE.INTRA.VDW>
0.538495

>  <SCORE.INTRA.VDW.0>
-0.405582

>  <SCORE.INTRA.norm>
-0.0731403

>  <SCORE.RESTR>
0

>  <SCORE.RESTR.CAVITY>
0

>  <SCORE.RESTR.norm>
0

>  <SCORE.SYSTEM>
0

>  <SCORE.SYSTEM.CONST>
0

>  <SCORE.SYSTEM.DIHEDRAL>
0

>  <SCORE.SYSTEM.SOLV>
0

>  <SCORE.SYSTEM.norm>
0

>  <SCORE.heavy>
26

>  <SCORE.norm>
-0.933234

>  <RMSD>
5.674

$$$$
ligand
 OpenBabel11021811443D
libRbt.so/2013.1/901 2013/11/27
 26 28  0  0  0  0  0  0  0  0999 V2000
   16.0514   39.6260   63.8674 C   0  0  0  0  0  0  0  0  0  0  0  0
   21.8888   40.6789   68.2888 C   0  0  0  0  0  0  0  0  0  0  0  0
   24.8121   34.9162   70.7733 P   0  0  1  0  0  0  0  0  0  0  0  0
   24.4343   33.0682   72.5421 P   0  0  1  0  0  0  0  0  0  0  0  0
   21.3820   40.7384   65.5303 C   0  0  0  0  0  0  0  0  0  0  0  0
   19.5544   39.1486   64.8640 C   0  0  0  0  0  0  0  0  0  0  0  0
   19.9708   40.4454   65.0901 C   0  0  0  0  0  0  0  0  0  0  0  0
   19.0512   41.4785   64.9009 C   0  0  0  0  0  0  0  0  0  0  0  0
   19.4201   42.7983   65.1142 N   0  0  0  0  0  0  0  0  0  0  0  0
   17.8170   41.1788   64.5072 N   0  0  0  0  0  0  0  0  0  0  0  0
   17.4605   39.9265   64.3075 C   0  0  0  0  0  0  0  0  0  0  0  0
   18.3051   38.9281   64.4770 N   0  0  0  0  0  0  0  0  0  0  0  0
   26.0537   34.9274   69.9672 O   0  0  0  0  0  0  0  0  0  0  0  0
   24.0695   32.4230   71.1861 O   0  0  0  0  0  0  0  0  0  0  0  0
   22.9074   37.3646   66.4667 S   0  0  0  0  0  0  0  0  0  0  0  0
   22.2495   38.5118   65.3403 C   0  0  0  0  0  0  0  0  0  0  0  0
   23.7699   33.8671   70.1401 O   0  0  0  0  0  0  0  0  0  0  0  0
   25.4280   32.0948   73.3517 O   0  5  0  0  0  0  0  0  0  0  0  0
   21.9711   39.5328   66.1174 N   0  0  0  0  0  0  0  0  0  0  0  0
   25.1585   34.4832   72.2853 O   0  0  0  0  0  0  0  0  0  0  0  0
   23.1470   33.2909   73.3673 O   0  0  0  0  0  0  0  0  0  0  0  0
   22.2130   39.4974   67.4097 C   0  0  2  0  0  0  0  0  0  0  0  0
   22.7546   38.3695   67.9360 C   0  0  2  0  0  0  0  0  0  0  0  0
   23.1270   38.0543   69.3610 C   0  0  0  0  0  0  0  0  0  0  0  0
   23.8069   36.6846   69.4220 C   0  0  0  0  0  0  0  0  0  0  0  0
   24.1588   36.3881   70.7749 O   0  0  0  0  0  0  0  0  0  0  0  0
  1 11  1  0  0  0  0
  3 13  1  6  0  0  0
  3 17  1  0  0  0  0
  3 20  1  0  0  0  0
  3 26  1  0  0  0  0
  4 14  1  0  0  0  0
  4 18  1  1  0  0  0
  4 21  2  0  0  0  0
  4 20  1  0  0  0  0
  5 19  1  0  0  0  0
  5  7  1  0  0  0  0
  6  7  2  0  0  0  0
  6 12  1  0  0  0  0
  7  8  1  0  0  0  0
  8  9  1  0  0  0  0
  8 10  2  0  0  0  0
 10 11  1  0  0  0  0
 11 12  2  0  0  0  0
 14 17  1  0  0  0  0
 15 23  1  0  0  0  0
 15 16  1  0  0  0  0
 16 19  1  0  0  0  0
 19 22  1  0  0  0  0
 22  2  1  1  0  0  0
 22 23  1  0  0  0  0
 23 24  1  6  0  0  0
 24 25  1  0  0  0  0
 25 26  1  0  0  0  0
M  CHG  1  18  -1
M  END
>  <CHROM.1>
69.48375689,-20.63848218,4.25111487,-179.99505979,177.78044052,63.20536276
22.33848149,37.14708309,68.39719810,2.13580960,-0.40380003,-0.55803702

>  <Name>
ligand

>  <RI>
0

>  <Rbt.Current_Directory>
/home/itssahil/PROJECTS/Mol_Feturizer/New_Systems/rnas/2HOL

>  <Rbt.Executable>
rbdock ($Id: //depot/dev/client3/rdock/2013.1/src/exe/rbdock.cxx#4 $)

>  <Rbt.Library>
libRbt.so (2013.1, Build901 2013/11/27)

>  <Rbt.Parameter_File>
/export/apps/rDock/src/rDock_2013.1_src/data/scripts/dock_solv.prm

>  <Rbt.Receptor>
prm/blind_docking_100.prm

>  <SCORE>
-25.0442

>  <SCORE.INTER>
-22.1862

>  <SCORE.INTER.CONST>
1

>  <SCORE.INTER.POLAR>
0

>  <SCORE.INTER.ROT>
6

>  <SCORE.INTER.SOLV>
20.8751

>  <SCORE.INTER.VDW>
-29.3492

>  <SCORE.INTER.norm>
-0.853316

>  <SCORE.INTRA>
-2.85802

>  <SCORE.INTRA.DIHEDRAL>
-4.72199

>  <SCORE.INTRA.DIHEDRAL.0>
9.33621

>  <SCORE.INTRA.POLAR>
0

>  <SCORE.INTRA.POLAR.0>
0

>  <SCORE.INTRA.REPUL>
0

>  <SCORE.INTRA.REPUL.0>
0

>  <SCORE.INTRA.SOLV>
-0.481571

>  <SCORE.INTRA.SOLV.lig_0>
-65.9238

>  <SCORE.INTRA.VDW>
-0.256241

>  <SCORE.INTRA.VDW.0>
-0.405582

>  <SCORE.INTRA.norm>
-0.109924

>  <SCORE.RESTR>
0

>  <SCORE.RESTR.CAVITY>
0

>  <SCORE.RESTR.norm>
0

>  <SCORE.SYSTEM>
0

>  <SCORE.SYSTEM.CONST>
0

>  <SCORE.SYSTEM.DIHEDRAL>
0

>  <SCORE.SYSTEM.SOLV>
0

>  <SCORE.SYSTEM.norm>
0

>  <SCORE.heavy>
26

>  <SCORE.norm>
-0.96324

>  <RMSD>
5.775

$$$$
ligand
 OpenBabel11021811443D
libRbt.so/2013.1/901 2013/11/27
 26 28  0  0  0  0  0  0  0  0999 V2000
   25.3467   46.0119   63.2230 C   0  0  0  0  0  0  0  0  0  0  0  0
   21.9882   42.0846   67.4037 C   0  0  0  0  0  0  0  0  0  0  0  0
   23.2261   38.3214   65.4568 P   0  0  1  0  0  0  0  0  0  0  0  0
   25.6424   38.7191   66.2875 P   0  0  1  0  0  0  0  0  0  0  0  0
   21.0145   44.6015   66.6378 C   0  0  0  0  0  0  0  0  0  0  0  0
   22.2336   44.4919   64.4439 C   0  0  0  0  0  0  0  0  0  0  0  0
   22.1618   44.9756   65.7351 C   0  0  0  0  0  0  0  0  0  0  0  0
   23.1789   45.8203   66.1831 C   0  0  0  0  0  0  0  0  0  0  0  0
   23.1534   46.3323   67.4718 N   0  0  0  0  0  0  0  0  0  0  0  0
   24.1765   46.1225   65.3574 N   0  0  0  0  0  0  0  0  0  0  0  0
   24.2030   45.6423   64.1311 C   0  0  0  0  0  0  0  0  0  0  0  0
   23.2581   44.8419   63.6776 N   0  0  0  0  0  0  0  0  0  0  0  0
   22.7552   36.9456   65.1791 O   0  0  0  0  0  0  0  0  0  0  0  0
   24.8434   38.2805   67.5355 O   0  0  0  0  0  0  0  0  0  0  0  0
   18.9151   41.8733   64.9843 S   0  0  0  0  0  0  0  0  0  0  0  0
   19.3320   43.5277   65.3104 C   0  0  0  0  0  0  0  0  0  0  0  0
   23.1372   38.6111   67.0367 O   0  0  0  0  0  0  0  0  0  0  0  0
   26.9998   37.8600   66.1879 O   0  5  0  0  0  0  0  0  0  0  0  0
   20.3573   43.3993   66.1204 N   0  0  0  0  0  0  0  0  0  0  0  0
   24.7529   38.4743   64.9678 O   0  0  0  0  0  0  0  0  0  0  0  0
   25.9909   40.2201   66.4026 O   0  0  0  0  0  0  0  0  0  0  0  0
   20.8086   42.2155   66.4735 C   0  0  2  0  0  0  0  0  0  0  0  0
   20.1831   41.1132   65.9874 C   0  0  2  0  0  0  0  0  0  0  0  0
   20.4784   39.6553   66.2245 C   0  0  0  0  0  0  0  0  0  0  0  0
   20.9453   39.0082   64.9186 C   0  0  0  0  0  0  0  0  0  0  0  0
   22.3026   39.3759   64.6643 O   0  0  0  0  0  0  0  0  0  0  0  0
  1 11  1  0  0  0  0
  3 13  1  6  0  0  0
  3 17  1  0  0  0  0
  3 20  1  0  0  0  0
  3 26  1  0  0  0  0
  4 14  1  0  0  0  0
  4 18  1  6  0  0  0
  4 21  2  0  0  0  0
  4 20  1  0  0  0  0
  5 19  1  0  0  0  0
  5  7  1  0  0  0  0
  6  7  2  0  0  0  0
  6 12  1  0  0  0  0
  7  8  1  0  0  0  0
  8  9  1  0  0  0  0
  8 10  2  0  0  0  0
 10 11  1  0  0  0  0
 11 12  2  0  0  0  0
 14 17  1  0  0  0  0
 15 23  1  0  0  0  0
 15 16  1  0  0  0  0
 16 19  1  0  0  0  0
 19 22  1  0  0  0  0
 22  2  1  1  0  0  0
 22 23  1  0  0  0  0
 23 24  1  6  0  0  0
 24 25  1  0  0  0  0
 25 26  1  0  0  0  0
M  CHG  1  18  -1
M  END
>  <CHROM.1>
-92.63419999,18.86934819,65.83183996,76.83916520,85.92741463,47.97183856
22.81057324,41.42453497,65.69225826,-1.86629776,0.01018667,3.05069774

>  <Name>
ligand

>  <RI>
0

>  <Rbt.Current_Directory>
/home/itssahil/PROJECTS/Mol_Feturizer/New_Systems/rnas/2HOL

>  <Rbt.Executable>
rbdock ($Id: //depot/dev/client3/rdock/2013.1/src/exe/rbdock.cxx#4 $)

>  <Rbt.Library>
libRbt.so (2013.1, Build901 2013/11/27)

>  <Rbt.Parameter_File>
/export/apps/rDock/src/rDock_2013.1_src/data/scripts/dock_solv.prm

>  <Rbt.Receptor>
prm/pocket_docking_7.prm

>  <SCORE>
-26.2233

>  <SCORE.INTER>
-25.0461

>  <SCORE.INTER.CONST>
1

>  <SCORE.INTER.POLAR>
0

>  <SCORE.INTER.ROT>
6

>  <SCORE.INTER.SOLV>
21.5813

>  <SCORE.INTER.VDW>
-31.4912

>  <SCORE.INTER.norm>
-0.963311

>  <SCORE.INTRA>
-1.17723

>  <SCORE.INTRA.DIHEDRAL>
-0.124996

>  <SCORE.INTRA.DIHEDRAL.0>
9.33621

>  <SCORE.INTRA.POLAR>
0

>  <SCORE.INTRA.POLAR.0>
0

>  <SCORE.INTRA.REPUL>
0

>  <SCORE.INTRA.REPUL.0>
0

>  <SCORE.INTRA.SOLV>
0.470973

>  <SCORE.INTRA.SOLV.lig_0>
-65.9238

>  <SCORE.INTRA.VDW>
-1.35022

>  <SCORE.INTRA.VDW.0>
-0.405582

>  <SCORE.INTRA.norm>
-0.0452783

>  <SCORE.RESTR>
0

>  <SCORE.RESTR.CAVITY>
0

>  <SCORE.RESTR.norm>
0

>  <SCORE.SYSTEM>
0

>  <SCORE.SYSTEM.CONST>
0

>  <SCORE.SYSTEM.DIHEDRAL>
0

>  <SCORE.SYSTEM.SOLV>
0

>  <SCORE.SYSTEM.norm>
0

>  <SCORE.heavy>
26

>  <SCORE.norm>
-1.00859

>  <RMSD>
5.819

$$$$
ligand
 OpenBabel11021811443D
libRbt.so/2013.1/901 2013/11/27
 26 28  0  0  0  0  0  0  0  0999 V2000
   26.0219   36.4102   69.8706 C   0  0  0  0  0  0  0  0  0  0  0  0
   25.1858   41.1805   64.3224 C   0  0  0  0  0  0  0  0  0  0  0  0
   28.2905   45.1220   65.5752 P   0  0  1  0  0  0  0  0  0  0  0  0
   30.1380   44.6400   63.8313 P   0  0  1  0  0  0  0  0  0  0  0  0
   23.6061   39.2077   65.5398 C   0  0  0  0  0  0  0  0  0  0  0  0
   25.6155   38.3258   66.7630 C   0  0  0  0  0  0  0  0  0  0  0  0
   24.2442   38.4669   66.6867 C   0  0  0  0  0  0  0  0  0  0  0  0
   23.4636   37.9062   67.6991 C   0  0  0  0  0  0  0  0  0  0  0  0
   22.0817   38.0198   67.6684 N   0  0  0  0  0  0  0  0  0  0  0  0
   24.0646   37.2561   68.6913 N   0  0  0  0  0  0  0  0  0  0  0  0
   25.3770   37.1493   68.7273 C   0  0  0  0  0  0  0  0  0  0  0  0
   26.1424   37.6671   67.7866 N   0  0  0  0  0  0  0  0  0  0  0  0
   28.4877   44.7333   66.9900 O   0  0  0  0  0  0  0  0  0  0  0  0
   30.5893   45.9214   64.5679 O   0  0  0  0  0  0  0  0  0  0  0  0
   22.6309   42.6366   66.9097 S   0  0  0  0  0  0  0  0  0  0  0  0
   22.4932   40.9078   66.8114 C   0  0  0  0  0  0  0  0  0  0  0  0
   29.0423   46.5155   65.2911 O   0  0  0  0  0  0  0  0  0  0  0  0
   31.3584   43.5922   63.7764 O   0  5  0  0  0  0  0  0  0  0  0  0
   23.4046   40.6090   65.9148 N   0  0  0  0  0  0  0  0  0  0  0  0
   28.8967   43.9793   64.6159 O   0  0  0  0  0  0  0  0  0  0  0  0
   29.7046   45.0006   62.3926 O   0  0  0  0  0  0  0  0  0  0  0  0
   24.1421   41.5398   65.3497 C   0  0  2  0  0  0  0  0  0  0  0  0
   23.9371   42.8333   65.7067 C   0  0  2  0  0  0  0  0  0  0  0  0
   24.6226   44.0853   65.2258 C   0  0  0  0  0  0  0  0  0  0  0  0
   26.0934   44.0585   65.6478 C   0  0  0  0  0  0  0  0  0  0  0  0
   26.7168   45.2901   65.2782 O   0  0  0  0  0  0  0  0  0  0  0  0
  1 11  1  0  0  0  0
  3 13  1  1  0  0  0
  3 17  1  0  0  0  0
  3 20  1  0  0  0  0
  3 26  1  0  0  0  0
  4 14  1  0  0  0  0
  4 18  1  6  0  0  0
  4 21  2  0  0  0  0
  4 20  1  0  0  0  0
  5 19  1  0  0  0  0
  5  7  1  0  0  0  0
  6  7  2  0  0  0  0
  6 12  1  0  0  0  0
  7  8  1  0  0  0  0
  8  9  1  0  0  0  0
  8 10  2  0  0  0  0
 10 11  1  0  0  0  0
 11 12  2  0  0  0  0
 14 17  1  0  0  0  0
 15 23  1  0  0  0  0
 15 16  1  0  0  0  0
 16 19  1  0  0  0  0
 19 22  1  0  0  0  0
 22  2  1  6  0  0  0
 22 23  1  0  0  0  0
 23 24  1  1  0  0  0
 24 25  1  0  0  0  0
 25 26  1  0  0  0  0
M  CHG  1  18  -1
M  END
>  <CHROM.1>
-70.34110516,-93.48266450,114.54772017,-175.71175619,-172.86410026,-55.45835354
26.29434593,42.12667173,65.92356370,-2.22105784,0.10062423,-0.36698447

>  <Name>
ligand

>  <RI>
0

>  <Rbt.Current_Directory>
/home/itssahil/PROJECTS/Mol_Feturizer/New_Systems/rnas/2HOL

>  <Rbt.Executable>
rbdock ($Id: //depot/dev/client3/rdock/2013.1/src/exe/rbdock.cxx#4 $)

>  <Rbt.Library>
libRbt.so (2013.1, Build901 2013/11/27)

>  <Rbt.Parameter_File>
/export/apps/rDock/src/rDock_2013.1_src/data/scripts/dock_solv.prm

>  <Rbt.Receptor>
prm/pocket_docking_7.prm

>  <SCORE>
-10.4067

>  <SCORE.INTER>
-7.28349

>  <SCORE.INTER.CONST>
1

>  <SCORE.INTER.POLAR>
0

>  <SCORE.INTER.ROT>
6

>  <SCORE.INTER.SOLV>
9.51784

>  <SCORE.INTER.VDW>
-15.6283

>  <SCORE.INTER.norm>
-0.280134

>  <SCORE.INTRA>
-3.12326

>  <SCORE.INTRA.DIHEDRAL>
-4.42051

>  <SCORE.INTRA.DIHEDRAL.0>
9.33621

>  <SCORE.INTRA.POLAR>
0

>  <SCORE.INTRA.POLAR.0>
0

>  <SCORE.INTRA.REPUL>
0

>  <SCORE.INTRA.REPUL.0>
0

>  <SCORE.INTRA.SOLV>
0.797123

>  <SCORE.INTRA.SOLV.lig_0>
-65.9238

>  <SCORE.INTRA.VDW>
-1.31157

>  <SCORE.INTRA.VDW.0>
-0.405582

>  <SCORE.INTRA.norm>
-0.120125

>  <SCORE.RESTR>
0

>  <SCORE.RESTR.CAVITY>
0

>  <SCORE.RESTR.norm>
0

>  <SCORE.SYSTEM>
0

>  <SCORE.SYSTEM.CONST>
0

>  <SCORE.SYSTEM.DIHEDRAL>
0

>  <SCORE.SYSTEM.SOLV>
0

>  <SCORE.SYSTEM.norm>
0

>  <SCORE.heavy>
26

>  <SCORE.norm>
-0.40026

>  <RMSD>
5.822

$$$$
ligand
 OpenBabel11021811443D
libRbt.so/2013.1/901 2013/11/27
 26 28  0  0  0  0  0  0  0  0999 V2000
   19.6661   44.4094   65.9385 C   0  0  0  0  0  0  0  0  0  0  0  0
   24.1577   38.4922   66.0533 C   0  0  0  0  0  0  0  0  0  0  0  0
   25.7285   35.8974   72.2668 P   0  0  1  0  0  0  0  0  0  0  0  0
   23.4561   35.2688   73.3285 P   0  0  1  0  0  0  0  0  0  0  0  0
   21.4439   39.0130   65.5699 C   0  0  0  0  0  0  0  0  0  0  0  0
   21.8669   41.4690   65.8869 C   0  0  0  0  0  0  0  0  0  0  0  0
   20.9720   40.4409   65.6673 C   0  0  0  0  0  0  0  0  0  0  0  0
   19.6186   40.7576   65.5374 C   0  0  0  0  0  0  0  0  0  0  0  0
   18.6796   39.7612   65.3164 N   0  0  0  0  0  0  0  0  0  0  0  0
   19.2420   42.0292   65.6346 N   0  0  0  0  0  0  0  0  0  0  0  0
   20.1305   42.9797   65.8400 C   0  0  0  0  0  0  0  0  0  0  0  0
   21.4158   42.7137   65.9674 N   0  0  0  0  0  0  0  0  0  0  0  0
   26.9378   36.0045   73.1141 O   0  0  0  0  0  0  0  0  0  0  0  0
   24.2163   33.9341   73.1593 O   0  0  0  0  0  0  0  0  0  0  0  0
   21.8841   37.8206   69.1712 S   0  0  0  0  0  0  0  0  0  0  0  0
   20.9371   38.3711   67.8231 C   0  0  0  0  0  0  0  0  0  0  0  0
   25.4564   34.3522   71.9117 O   0  0  0  0  0  0  0  0  0  0  0  0
   22.8707   35.3692   74.8244 O   0  5  0  0  0  0  0  0  0  0  0  0
   21.8505   38.5411   66.8954 N   0  0  0  0  0  0  0  0  0  0  0  0
   24.4625   36.4970   73.0613 O   0  0  0  0  0  0  0  0  0  0  0  0
   22.2910   35.3279   72.3152 O   0  0  0  0  0  0  0  0  0  0  0  0
   23.1207   38.2933   67.1297 C   0  0  2  0  0  0  0  0  0  0  0  0
   23.4784   37.8614   68.3659 C   0  0  2  0  0  0  0  0  0  0  0  0
   24.8397   37.5104   68.9068 C   0  0  0  0  0  0  0  0  0  0  0  0
   24.6871   36.7724   70.2387 C   0  0  0  0  0  0  0  0  0  0  0  0
   25.9497   36.7305   70.9066 O   0  0  0  0  0  0  0  0  0  0  0  0
  1 11  1  0  0  0  0
  3 13  1  1  0  0  0
  3 17  1  0  0  0  0
  3 20  1  0  0  0  0
  3 26  1  0  0  0  0
  4 14  1  0  0  0  0
  4 18  1  1  0  0  0
  4 21  2  0  0  0  0
  4 20  1  0  0  0  0
  5 19  1  0  0  0  0
  5  7  1  0  0  0  0
  6  7  2  0  0  0  0
  6 12  1  0  0  0  0
  7  8  1  0  0  0  0
  8  9  1  0  0  0  0
  8 10  2  0  0  0  0
 10 11  1  0  0  0  0
 11 12  2  0  0  0  0
 14 17  1  0  0  0  0
 15 23  1  0  0  0  0
 15 16  1  0  0  0  0
 16 19  1  0  0  0  0
 19 22  1  0  0  0  0
 22  2  1  1  0  0  0
 22 23  1  0  0  0  0
 23 24  1  6  0  0  0
 24 25  1  0  0  0  0
 25 26  1  0  0  0  0
M  CHG  1  18  -1
M  END
>  <CHROM.1>
68.33100330,71.62631655,12.89477522,-165.89197483,-177.96104235,-170.73461972
22.89160494,37.94932805,69.39970015,2.01249450,0.23445573,-0.97688274

>  <Name>
ligand

>  <RI>
0

>  <Rbt.Current_Directory>
/home/itssahil/PROJECTS/Mol_Feturizer/New_Systems/rnas/2HOL

>  <Rbt.Executable>
rbdock ($Id: //depot/dev/client3/rdock/2013.1/src/exe/rbdock.cxx#4 $)

>  <Rbt.Library>
libRbt.so (2013.1, Build901 2013/11/27)

>  <Rbt.Parameter_File>
/export/apps/rDock/src/rDock_2013.1_src/data/scripts/dock_solv.prm

>  <Rbt.Receptor>
prm/blind_docking_100.prm

>  <SCORE>
-21.5064

>  <SCORE.INTER>
-18.1283

>  <SCORE.INTER.CONST>
1

>  <SCORE.INTER.POLAR>
0

>  <SCORE.INTER.ROT>
6

>  <SCORE.INTER.SOLV>
20.2611

>  <SCORE.INTER.VDW>
-26.4392

>  <SCORE.INTER.norm>
-0.697242

>  <SCORE.INTRA>
-3.37807

>  <SCORE.INTRA.DIHEDRAL>
-3.82298

>  <SCORE.INTRA.DIHEDRAL.0>
9.33621

>  <SCORE.INTRA.POLAR>
0

>  <SCORE.INTRA.POLAR.0>
0

>  <SCORE.INTRA.REPUL>
0

>  <SCORE.INTRA.REPUL.0>
0

>  <SCORE.INTRA.SOLV>
0.678411

>  <SCORE.INTRA.SOLV.lig_0>
-65.9238

>  <SCORE.INTRA.VDW>
-1.80579

>  <SCORE.INTRA.VDW.0>
-0.405582

>  <SCORE.INTRA.norm>
-0.129926

>  <SCORE.RESTR>
0

>  <SCORE.RESTR.CAVITY>
0

>  <SCORE.RESTR.norm>
0

>  <SCORE.SYSTEM>
0

>  <SCORE.SYSTEM.CONST>
0

>  <SCORE.SYSTEM.DIHEDRAL>
0

>  <SCORE.SYSTEM.SOLV>
0

>  <SCORE.SYSTEM.norm>
0

>  <SCORE.heavy>
26

>  <SCORE.norm>
-0.827168

>  <RMSD>
5.847

$$$$
ligand
 OpenBabel11021811443D
libRbt.so/2013.1/901 2013/11/27
 26 28  0  0  0  0  0  0  0  0999 V2000
   19.6177   43.0050   65.7259 C   0  0  0  0  0  0  0  0  0  0  0  0
   22.1706   37.4818   67.6967 C   0  0  0  0  0  0  0  0  0  0  0  0
   25.1041   35.4590   71.5557 P   0  0  1  0  0  0  0  0  0  0  0  0
   24.5577   35.5876   74.0798 P   0  0  1  0  0  0  0  0  0  0  0  0
   22.3562   38.0721   64.9605 C   0  0  0  0  0  0  0  0  0  0  0  0
   20.2808   39.4033   65.4426 C   0  0  0  0  0  0  0  0  0  0  0  0
   21.6326   39.3785   65.1628 C   0  0  0  0  0  0  0  0  0  0  0  0
   22.3123   40.5944   65.0723 C   0  0  0  0  0  0  0  0  0  0  0  0
   23.6704   40.6236   64.7928 N   0  0  0  0  0  0  0  0  0  0  0  0
   21.6368   41.7255   65.2524 N   0  0  0  0  0  0  0  0  0  0  0  0
   20.3477   41.7030   65.5224 C   0  0  0  0  0  0  0  0  0  0  0  0
   19.6767   40.5715   65.6143 N   0  0  0  0  0  0  0  0  0  0  0  0
   24.7589   34.2437   70.7840 O   0  0  0  0  0  0  0  0  0  0  0  0
   23.2312   35.9049   73.3533 O   0  0  0  0  0  0  0  0  0  0  0  0
   25.8393   38.1913   66.5222 S   0  0  0  0  0  0  0  0  0  0  0  0
   24.7282   38.3273   65.1939 C   0  0  0  0  0  0  0  0  0  0  0  0
   23.7997   36.3882   71.7064 O   0  0  0  0  0  0  0  0  0  0  0  0
   24.2986   34.4732   75.2118 O   0  5  0  0  0  0  0  0  0  0  0  0
   23.5780   38.0599   65.7679 N   0  0  0  0  0  0  0  0  0  0  0  0
   25.6327   35.0343   73.0164 O   0  0  0  0  0  0  0  0  0  0  0  0
   25.1018   36.8744   74.7400 O   0  0  0  0  0  0  0  0  0  0  0  0
   23.4994   37.7855   67.0517 C   0  0  2  0  0  0  0  0  0  0  0  0
   24.6434   37.7743   67.7823 C   0  0  2  0  0  0  0  0  0  0  0  0
   24.8474   37.4926   69.2478 C   0  0  0  0  0  0  0  0  0  0  0  0
   25.8613   36.3586   69.4154 C   0  0  0  0  0  0  0  0  0  0  0  0
   26.2591   36.2749   70.7854 O   0  0  0  0  0  0  0  0  0  0  0  0
  1 11  1  0  0  0  0
  3 13  1  6  0  0  0
  3 17  1  0  0  0  0
  3 20  1  0  0  0  0
  3 26  1  0  0  0  0
  4 14  1  0  0  0  0
  4 18  1  1  0  0  0
  4 21  2  0  0  0  0
  4 20  1  0  0  0  0
  5 19  1  0  0  0  0
  5  7  1  0  0  0  0
  6  7  2  0  0  0  0
  6 12  1  0  0  0  0
  7  8  1  0  0  0  0
  8  9  1  0  0  0  0
  8 10  2  0  0  0  0
 10 11  1  0  0  0  0
 11 12  2  0  0  0  0
 14 17  1  0  0  0  0
 15 23  1  0  0  0  0
 15 16  1  0  0  0  0
 16 19  1  0  0  0  0
 19 22  1  0  0  0  0
 22  2  1  6  0  0  0
 22 23  1  0  0  0  0
 23 24  1  1  0  0  0
 24 25  1  0  0  0  0
 25 26  1  0  0  0  0
M  CHG  1  18  -1
M  END
>  <CHROM.1>
-99.78899901,-131.29481207,-55.79917313,168.27053786,80.85952591,47.22760771
23.71866699,37.65479757,69.00195553,1.94614279,0.55018499,-1.22136933

>  <Name>
ligand

>  <RI>
0

>  <Rbt.Current_Directory>
/home/itssahil/PROJECTS/Mol_Feturizer/New_Systems/rnas/2HOL

>  <Rbt.Executable>
rbdock ($Id: //depot/dev/client3/rdock/2013.1/src/exe/rbdock.cxx#4 $)

>  <Rbt.Library>
libRbt.so (2013.1, Build901 2013/11/27)

>  <Rbt.Parameter_File>
/export/apps/rDock/src/rDock_2013.1_src/data/scripts/dock_solv.prm

>  <Rbt.Receptor>
prm/blind_docking_100.prm

>  <SCORE>
-18.1314

>  <SCORE.INTER>
-18.9424

>  <SCORE.INTER.CONST>
1

>  <SCORE.INTER.POLAR>
0

>  <SCORE.INTER.ROT>
6

>  <SCORE.INTER.SOLV>
16.5517

>  <SCORE.INTER.VDW>
-25.7455

>  <SCORE.INTER.norm>
-0.728553

>  <SCORE.INTRA>
0.810966

>  <SCORE.INTRA.DIHEDRAL>
-1.48396

>  <SCORE.INTRA.DIHEDRAL.0>
9.33621

>  <SCORE.INTRA.POLAR>
0

>  <SCORE.INTRA.POLAR.0>
0

>  <SCORE.INTRA.REPUL>
0

>  <SCORE.INTRA.REPUL.0>
0

>  <SCORE.INTRA.SOLV>
2.57884

>  <SCORE.INTRA.SOLV.lig_0>
-65.9238

>  <SCORE.INTRA.VDW>
0.263529

>  <SCORE.INTRA.VDW.0>
-0.405582

>  <SCORE.INTRA.norm>
0.031191

>  <SCORE.RESTR>
0

>  <SCORE.RESTR.CAVITY>
0

>  <SCORE.RESTR.norm>
0

>  <SCORE.SYSTEM>
0

>  <SCORE.SYSTEM.CONST>
0

>  <SCORE.SYSTEM.DIHEDRAL>
0

>  <SCORE.SYSTEM.SOLV>
0

>  <SCORE.SYSTEM.norm>
0

>  <SCORE.heavy>
26

>  <SCORE.norm>
-0.697362

>  <RMSD>
5.848

$$$$
ligand
 OpenBabel11021811443D
libRbt.so/2013.1/901 2013/11/27
 26 28  0  0  0  0  0  0  0  0999 V2000
   22.6980   46.1915   67.1943 C   0  0  0  0  0  0  0  0  0  0  0  0
   22.4202   37.8770   65.7073 C   0  0  0  0  0  0  0  0  0  0  0  0
   22.9835   34.4185   70.9503 P   0  0  1  0  0  0  0  0  0  0  0  0
   25.2477   35.6510   70.7479 P   0  0  1  0  0  0  0  0  0  0  0  0
   22.2901   40.6761   65.8404 C   0  0  0  0  0  0  0  0  0  0  0  0
   21.2691   42.9116   66.3621 C   0  0  0  0  0  0  0  0  0  0  0  0
   22.3995   42.1359   66.1987 C   0  0  0  0  0  0  0  0  0  0  0  0
   23.6466   42.7381   66.3742 C   0  0  0  0  0  0  0  0  0  0  0  0
   24.8123   42.0025   66.2208 N   0  0  0  0  0  0  0  0  0  0  0  0
   23.7008   44.0298   66.6850 N   0  0  0  0  0  0  0  0  0  0  0  0
   22.5964   44.7318   66.8361 C   0  0  0  0  0  0  0  0  0  0  0  0
   21.4033   44.1930   66.6771 N   0  0  0  0  0  0  0  0  0  0  0  0
   22.9330   33.0489   71.5102 O   0  0  0  0  0  0  0  0  0  0  0  0
   24.8222   35.8085   72.2252 O   0  0  0  0  0  0  0  0  0  0  0  0
   21.4926   39.2053   69.2735 S   0  0  0  0  0  0  0  0  0  0  0  0
   21.7191   40.5220   68.1634 C   0  0  0  0  0  0  0  0  0  0  0  0
   23.0444   35.4877   72.1506 O   0  0  0  0  0  0  0  0  0  0  0  0
   26.7755   35.1497   70.6780 O   0  5  0  0  0  0  0  0  0  0  0  0
   22.0186   39.8952   67.0493 N   0  0  0  0  0  0  0  0  0  0  0  0
   24.2941   34.5722   70.0271 O   0  0  0  0  0  0  0  0  0  0  0  0
   25.1198   37.0129   70.0291 O   0  0  0  0  0  0  0  0  0  0  0  0
   22.0762   38.5824   66.9950 C   0  0  2  0  0  0  0  0  0  0  0  0
   21.8263   37.8763   68.1270 C   0  0  2  0  0  0  0  0  0  0  0  0
   21.8262   36.3871   68.3528 C   0  0  0  0  0  0  0  0  0  0  0  0
   21.5987   36.0940   69.8375 C   0  0  0  0  0  0  0  0  0  0  0  0
   21.6682   34.6842   70.0601 O   0  0  0  0  0  0  0  0  0  0  0  0
  1 11  1  0  0  0  0
  3 13  1  1  0  0  0
  3 17  1  0  0  0  0
  3 20  1  0  0  0  0
  3 26  1  0  0  0  0
  4 14  1  0  0  0  0
  4 18  1  6  0  0  0
  4 21  2  0  0  0  0
  4 20  1  0  0  0  0
  5 19  1  0  0  0  0
  5  7  1  0  0  0  0
  6  7  2  0  0  0  0
  6 12  1  0  0  0  0
  7  8  1  0  0  0  0
  8  9  1  0  0  0  0
  8 10  2  0  0  0  0
 10 11  1  0  0  0  0
 11 12  2  0  0  0  0
 14 17  1  0  0  0  0
 15 23  1  0  0  0  0
 15 16  1  0  0  0  0
 16 19  1  0  0  0  0
 19 22  1  0  0  0  0
 22  2  1  1  0  0  0
 22 23  1  0  0  0  0
 23 24  1  6  0  0  0
 24 25  1  0  0  0  0
 25 26  1  0  0  0  0
M  CHG  1  18  -1
M  END
>  <CHROM.1>
9.89837012,-81.39932430,-4.97848843,-177.02035872,112.83745996,165.45668294
23.04158285,38.42249012,68.82118359,-1.71702207,0.38856411,2.72531633

>  <Name>
ligand

>  <RI>
0

>  <Rbt.Current_Directory>
/home/itssahil/PROJECTS/Mol_Feturizer/New_Systems/rnas/2HOL

>  <Rbt.Executable>
rbdock ($Id: //depot/dev/client3/rdock/2013.1/src/exe/rbdock.cxx#4 $)

>  <Rbt.Library>
libRbt.so (2013.1, Build901 2013/11/27)

>  <Rbt.Parameter_File>
/export/apps/rDock/src/rDock_2013.1_src/data/scripts/dock_solv.prm

>  <Rbt.Receptor>
prm/pocket_docking_8.prm

>  <SCORE>
-16.3224

>  <SCORE.INTER>
-17.7113

>  <SCORE.INTER.CONST>
1

>  <SCORE.INTER.POLAR>
0

>  <SCORE.INTER.ROT>
6

>  <SCORE.INTER.SOLV>
11.3313

>  <SCORE.INTER.VDW>
-23.1846

>  <SCORE.INTER.norm>
-0.681203

>  <SCORE.INTRA>
1.38885

>  <SCORE.INTRA.DIHEDRAL>
2.54414

>  <SCORE.INTRA.DIHEDRAL.0>
9.33621

>  <SCORE.INTRA.POLAR>
0

>  <SCORE.INTRA.POLAR.0>
0

>  <SCORE.INTRA.REPUL>
0

>  <SCORE.INTRA.REPUL.0>
0

>  <SCORE.INTRA.SOLV>
1.29616

>  <SCORE.INTRA.SOLV.lig_0>
-65.9238

>  <SCORE.INTRA.VDW>
-0.5313

>  <SCORE.INTRA.VDW.0>
-0.405582

>  <SCORE.INTRA.norm>
0.0534173

>  <SCORE.RESTR>
0

>  <SCORE.RESTR.CAVITY>
0

>  <SCORE.RESTR.norm>
0

>  <SCORE.SYSTEM>
0

>  <SCORE.SYSTEM.CONST>
0

>  <SCORE.SYSTEM.DIHEDRAL>
0

>  <SCORE.SYSTEM.SOLV>
0

>  <SCORE.SYSTEM.norm>
0

>  <SCORE.heavy>
26

>  <SCORE.norm>
-0.627786

>  <RMSD>
5.976

$$$$
ligand
 OpenBabel11021811443D
libRbt.so/2013.1/901 2013/11/27
 26 28  0  0  0  0  0  0  0  0999 V2000
   21.5842   43.9710   66.5901 C   0  0  0  0  0  0  0  0  0  0  0  0
   21.0933   36.4383   69.8614 C   0  0  0  0  0  0  0  0  0  0  0  0
   26.5598   37.0707   73.2682 P   0  0  1  0  0  0  0  0  0  0  0  0
   27.3228   37.2200   75.7344 P   0  0  1  0  0  0  0  0  0  0  0  0
   21.1702   38.4465   67.9042 C   0  0  0  0  0  0  0  0  0  0  0  0
   21.9383   40.7886   68.3899 C   0  0  0  0  0  0  0  0  0  0  0  0
   21.2789   39.9085   67.5551 C   0  0  0  0  0  0  0  0  0  0  0  0
   20.7158   40.4073   66.3792 C   0  0  0  0  0  0  0  0  0  0  0  0
   20.0426   39.5646   65.5075 N   0  0  0  0  0  0  0  0  0  0  0  0
   20.8292   41.7045   66.1098 N   0  0  0  0  0  0  0  0  0  0  0  0
   21.4714   42.5083   66.9324 C   0  0  0  0  0  0  0  0  0  0  0  0
   22.0142   42.0687   68.0510 N   0  0  0  0  0  0  0  0  0  0  0  0
   27.3021   37.8032   72.2175 O   0  0  0  0  0  0  0  0  0  0  0  0
   28.2612   36.1851   75.0736 O   0  0  0  0  0  0  0  0  0  0  0  0
   24.7226   37.6903   69.0847 S   0  0  0  0  0  0  0  0  0  0  0  0
   23.5563   38.5364   68.1145 C   0  0  0  0  0  0  0  0  0  0  0  0
   27.3238   35.6962   73.6068 O   0  0  0  0  0  0  0  0  0  0  0  0
   28.1973   38.2920   76.5568 O   0  5  0  0  0  0  0  0  0  0  0  0
   22.4266   37.9925   68.5042 N   0  0  0  0  0  0  0  0  0  0  0  0
   26.4740   37.9785   74.5957 O   0  0  0  0  0  0  0  0  0  0  0  0
   26.3576   36.4951   76.6991 O   0  0  0  0  0  0  0  0  0  0  0  0
   22.3991   37.0523   69.4235 C   0  0  2  0  0  0  0  0  0  0  0  0
   23.5744   36.6414   69.9642 C   0  0  2  0  0  0  0  0  0  0  0  0
   23.8371   35.5954   71.0157 C   0  0  0  0  0  0  0  0  0  0  0  0
   25.2087   35.8390   71.6493 C   0  0  0  0  0  0  0  0  0  0  0  0
   25.0717   36.7440   72.7467 O   0  0  0  0  0  0  0  0  0  0  0  0
  1 11  1  0  0  0  0
  3 13  1  6  0  0  0
  3 17  1  0  0  0  0
  3 20  1  0  0  0  0
  3 26  1  0  0  0  0
  4 14  1  0  0  0  0
  4 18  1  1  0  0  0
  4 21  2  0  0  0  0
  4 20  1  0  0  0  0
  5 19  1  0  0  0  0
  5  7  1  0  0  0  0
  6  7  2  0  0  0  0
  6 12  1  0  0  0  0
  7  8  1  0  0  0  0
  8  9  1  0  0  0  0
  8 10  2  0  0  0  0
 10 11  1  0  0  0  0
 11 12  2  0  0  0  0
 14 17  1  0  0  0  0
 15 23  1  0  0  0  0
 15 16  1  0  0  0  0
 16 19  1  0  0  0  0
 19 22  1  0  0  0  0
 22  2  1  6  0  0  0
 22 23  1  0  0  0  0
 23 24  1  1  0  0  0
 24 25  1  0  0  0  0
 25 26  1  0  0  0  0
M  CHG  1  18  -1
M  END
>  <CHROM.1>
-32.27250343,-38.76605752,20.29301228,87.94403567,-174.39202115,65.37045107
24.30962170,38.20480285,70.91657893,-2.69926645,0.90701747,3.03883043

>  <Name>
ligand

>  <RI>
0

>  <Rbt.Current_Directory>
/home/itssahil/PROJECTS/Mol_Feturizer/New_Systems/rnas/2HOL

>  <Rbt.Executable>
rbdock ($Id: //depot/dev/client3/rdock/2013.1/src/exe/rbdock.cxx#4 $)

>  <Rbt.Library>
libRbt.so (2013.1, Build901 2013/11/27)

>  <Rbt.Parameter_File>
/export/apps/rDock/src/rDock_2013.1_src/data/scripts/dock_solv.prm

>  <Rbt.Receptor>
prm/blind_docking_100.prm

>  <SCORE>
-18.2237

>  <SCORE.INTER>
-16.8549

>  <SCORE.INTER.CONST>
1

>  <SCORE.INTER.POLAR>
0

>  <SCORE.INTER.ROT>
6

>  <SCORE.INTER.SOLV>
16.5912

>  <SCORE.INTER.VDW>
-24.367

>  <SCORE.INTER.norm>
-0.648265

>  <SCORE.INTRA>
-1.3688

>  <SCORE.INTRA.DIHEDRAL>
-1.9413

>  <SCORE.INTRA.DIHEDRAL.0>
9.33621

>  <SCORE.INTRA.POLAR>
0

>  <SCORE.INTRA.POLAR.0>
0

>  <SCORE.INTRA.REPUL>
0

>  <SCORE.INTRA.REPUL.0>
0

>  <SCORE.INTRA.SOLV>
-0.695647

>  <SCORE.INTRA.SOLV.lig_0>
-65.9238

>  <SCORE.INTRA.VDW>
-0.0503254

>  <SCORE.INTRA.VDW.0>
-0.405582

>  <SCORE.INTRA.norm>
-0.0526462

>  <SCORE.RESTR>
0

>  <SCORE.RESTR.CAVITY>
0

>  <SCORE.RESTR.norm>
0

>  <SCORE.SYSTEM>
0

>  <SCORE.SYSTEM.CONST>
0

>  <SCORE.SYSTEM.DIHEDRAL>
0

>  <SCORE.SYSTEM.SOLV>
0

>  <SCORE.SYSTEM.norm>
0

>  <SCORE.heavy>
26

>  <SCORE.norm>
-0.700911

>  <RMSD>
6.020

$$$$
ligand
 OpenBabel11021811443D
libRbt.so/2013.1/901 2013/11/27
 26 28  0  0  0  0  0  0  0  0999 V2000
   19.8335   44.6894   65.9007 C   0  0  0  0  0  0  0  0  0  0  0  0
   22.2991   39.0373   68.8649 C   0  0  0  0  0  0  0  0  0  0  0  0
   24.3218   35.8219   71.0584 P   0  0  1  0  0  0  0  0  0  0  0  0
   22.2740   34.7029   72.1723 P   0  0  1  0  0  0  0  0  0  0  0  0
   20.6989   39.1008   66.5617 C   0  0  0  0  0  0  0  0  0  0  0  0
   21.3601   41.5010   66.8986 C   0  0  0  0  0  0  0  0  0  0  0  0
   20.4685   40.5797   66.3861 C   0  0  0  0  0  0  0  0  0  0  0  0
   19.3483   41.0530   65.7006 C   0  0  0  0  0  0  0  0  0  0  0  0
   18.4227   40.1686   65.1673 N   0  0  0  0  0  0  0  0  0  0  0  0
   19.1785   42.3655   65.5715 N   0  0  0  0  0  0  0  0  0  0  0  0
   20.0571   43.2095   66.0724 C   0  0  0  0  0  0  0  0  0  0  0  0
   21.1251   42.7948   66.7252 N   0  0  0  0  0  0  0  0  0  0  0  0
   25.6882   35.5047   71.5318 O   0  0  0  0  0  0  0  0  0  0  0  0
   22.8345   33.6518   71.1877 O   0  0  0  0  0  0  0  0  0  0  0  0
   24.3013   38.2974   65.5808 S   0  0  0  0  0  0  0  0  0  0  0  0
   22.6248   38.5869   65.2303 C   0  0  0  0  0  0  0  0  0  0  0  0
   23.8176   34.6663   70.0592 O   0  0  0  0  0  0  0  0  0  0  0  0
   22.0348   34.0202   73.6100 O   0  5  0  0  0  0  0  0  0  0  0  0
   22.1275   38.8090   66.4249 N   0  0  0  0  0  0  0  0  0  0  0  0
   23.3252   35.9136   72.3200 O   0  0  0  0  0  0  0  0  0  0  0  0
   20.9329   35.2482   71.6323 O   0  0  0  0  0  0  0  0  0  0  0  0
   22.8849   38.7787   67.4998 C   0  0  2  0  0  0  0  0  0  0  0  0
   24.2056   38.5017   67.3531 C   0  0  2  0  0  0  0  0  0  0  0  0
   25.2894   38.3992   68.3941 C   0  0  0  0  0  0  0  0  0  0  0  0
   25.1655   37.0648   69.1330 C   0  0  0  0  0  0  0  0  0  0  0  0
   24.3355   37.2337   70.2839 O   0  0  0  0  0  0  0  0  0  0  0  0
  1 11  1  0  0  0  0
  3 13  1  1  0  0  0
  3 17  1  0  0  0  0
  3 20  1  0  0  0  0
  3 26  1  0  0  0  0
  4 14  1  0  0  0  0
  4 18  1  1  0  0  0
  4 21  2  0  0  0  0
  4 20  1  0  0  0  0
  5 19  1  0  0  0  0
  5  7  1  0  0  0  0
  6  7  2  0  0  0  0
  6 12  1  0  0  0  0
  7  8  1  0  0  0  0
  8  9  1  0  0  0  0
  8 10  2  0  0  0  0
 10 11  1  0  0  0  0
 11 12  2  0  0  0  0
 14 17  1  0  0  0  0
 15 23  1  0  0  0  0
 15 16  1  0  0  0  0
 16 19  1  0  0  0  0
 19 22  1  0  0  0  0
 22  2  1  1  0  0  0
 22 23  1  0  0  0  0
 23 24  1  6  0  0  0
 24 25  1  0  0  0  0
 25 26  1  0  0  0  0
M  CHG  1  18  -1
M  END
>  <CHROM.1>
-86.86071469,-38.48504256,-103.53255568,-91.23442896,-176.62998896,63.67407353
22.49050252,38.03006742,68.66714704,1.90603828,0.34920279,-0.83690203

>  <Name>
ligand

>  <RI>
0

>  <Rbt.Current_Directory>
/home/itssahil/PROJECTS/Mol_Feturizer/New_Systems/rnas/2HOL

>  <Rbt.Executable>
rbdock ($Id: //depot/dev/client3/rdock/2013.1/src/exe/rbdock.cxx#4 $)

>  <Rbt.Library>
libRbt.so (2013.1, Build901 2013/11/27)

>  <Rbt.Parameter_File>
/export/apps/rDock/src/rDock_2013.1_src/data/scripts/dock_solv.prm

>  <Rbt.Receptor>
prm/pocket_docking_8.prm

>  <SCORE>
-18.4884

>  <SCORE.INTER>
-15.9378

>  <SCORE.INTER.CONST>
1

>  <SCORE.INTER.POLAR>
0

>  <SCORE.INTER.ROT>
6

>  <SCORE.INTER.SOLV>
17.8641

>  <SCORE.INTER.VDW>
-24.1799

>  <SCORE.INTER.norm>
-0.612993

>  <SCORE.INTRA>
-2.56061

>  <SCORE.INTRA.DIHEDRAL>
-1.65162

>  <SCORE.INTRA.DIHEDRAL.0>
9.33621

>  <SCORE.INTRA.POLAR>
0

>  <SCORE.INTRA.POLAR.0>
0

>  <SCORE.INTRA.REPUL>
0

>  <SCORE.INTRA.REPUL.0>
0

>  <SCORE.INTRA.SOLV>
-0.281584

>  <SCORE.INTRA.SOLV.lig_0>
-65.9238

>  <SCORE.INTRA.VDW>
-1.594

>  <SCORE.INTRA.VDW.0>
-0.405582

>  <SCORE.INTRA.norm>
-0.0984849

>  <SCORE.RESTR>
0.0100445

>  <SCORE.RESTR.CAVITY>
0.0100445

>  <SCORE.RESTR.norm>
0.000386326

>  <SCORE.SYSTEM>
0

>  <SCORE.SYSTEM.CONST>
0

>  <SCORE.SYSTEM.DIHEDRAL>
0

>  <SCORE.SYSTEM.SOLV>
0

>  <SCORE.SYSTEM.norm>
0

>  <SCORE.heavy>
26

>  <SCORE.norm>
-0.711091

>  <RMSD>
6.029

$$$$
ligand
 OpenBabel11021811443D
libRbt.so/2013.1/901 2013/11/27
 26 28  0  0  0  0  0  0  0  0999 V2000
   26.1513   39.2736   65.0322 C   0  0  0  0  0  0  0  0  0  0  0  0
   21.5622   41.9568   67.3700 C   0  0  0  0  0  0  0  0  0  0  0  0
   23.9012   44.6767   66.5950 P   0  0  1  0  0  0  0  0  0  0  0  0
   25.6647   42.9773   67.4248 P   0  0  1  0  0  0  0  0  0  0  0  0
   20.6639   39.4313   66.5425 C   0  0  0  0  0  0  0  0  0  0  0  0
   22.5778   40.1226   65.0692 C   0  0  0  0  0  0  0  0  0  0  0  0
   22.1166   39.3886   66.1438 C   0  0  0  0  0  0  0  0  0  0  0  0
   23.0302   38.6060   66.8520 C   0  0  0  0  0  0  0  0  0  0  0  0
   22.6171   37.8498   67.9387 N   0  0  0  0  0  0  0  0  0  0  0  0
   24.3025   38.5915   66.4654 N   0  0  0  0  0  0  0  0  0  0  0  0
   24.7007   39.3113   65.4366 C   0  0  0  0  0  0  0  0  0  0  0  0
   23.8629   40.0605   64.7468 N   0  0  0  0  0  0  0  0  0  0  0  0
   24.3229   46.0240   66.1495 O   0  0  0  0  0  0  0  0  0  0  0  0
   25.7272   42.9173   65.8818 O   0  0  0  0  0  0  0  0  0  0  0  0
   18.6677   42.1410   64.7374 S   0  0  0  0  0  0  0  0  0  0  0  0
   19.0696   40.4903   65.0992 C   0  0  0  0  0  0  0  0  0  0  0  0
   24.1315   43.6204   65.4037 O   0  0  0  0  0  0  0  0  0  0  0  0
   27.1527   43.1311   68.0185 O   0  5  0  0  0  0  0  0  0  0  0  0
   20.0367   40.6277   65.9766 N   0  0  0  0  0  0  0  0  0  0  0  0
   24.7722   44.2389   67.8769 O   0  0  0  0  0  0  0  0  0  0  0  0
   25.0279   41.6765   67.9635 O   0  0  0  0  0  0  0  0  0  0  0  0
   20.4512   41.8154   66.3603 C   0  0  2  0  0  0  0  0  0  0  0  0
   19.8609   42.9122   65.8207 C   0  0  2  0  0  0  0  0  0  0  0  0
   20.1332   44.3727   66.0691 C   0  0  0  0  0  0  0  0  0  0  0  0
   21.6027   44.6780   65.7700 C   0  0  0  0  0  0  0  0  0  0  0  0
   22.3411   44.7059   66.9931 O   0  0  0  0  0  0  0  0  0  0  0  0
  1 11  1  0  0  0  0
  3 13  1  6  0  0  0
  3 17  1  0  0  0  0
  3 20  1  0  0  0  0
  3 26  1  0  0  0  0
  4 14  1  0  0  0  0
  4 18  1  1  0  0  0
  4 21  2  0  0  0  0
  4 20  1  0  0  0  0
  5 19  1  0  0  0  0
  5  7  1  0  0  0  0
  6  7  2  0  0  0  0
  6 12  1  0  0  0  0
  7  8  1  0  0  0  0
  8  9  1  0  0  0  0
  8 10  2  0  0  0  0
 10 11  1  0  0  0  0
 11 12  2  0  0  0  0
 14 17  1  0  0  0  0
 15 23  1  0  0  0  0
 15 16  1  0  0  0  0
 16 19  1  0  0  0  0
 19 22  1  0  0  0  0
 22  2  1  6  0  0  0
 22 23  1  0  0  0  0
 23 24  1  1  0  0  0
 24 25  1  0  0  0  0
 25 26  1  0  0  0  0
M  CHG  1  18  -1
M  END
>  <CHROM.1>
116.52011496,-19.43572456,-123.02326090,-99.19530737,166.76362390,77.91402036
22.94593552,42.04607110,66.32332275,-0.41444795,0.21733714,-3.09014238

>  <Name>
ligand

>  <RI>
0

>  <Rbt.Current_Directory>
/home/itssahil/PROJECTS/Mol_Feturizer/New_Systems/rnas/2HOL

>  <Rbt.Executable>
rbdock ($Id: //depot/dev/client3/rdock/2013.1/src/exe/rbdock.cxx#4 $)

>  <Rbt.Library>
libRbt.so (2013.1, Build901 2013/11/27)

>  <Rbt.Parameter_File>
/export/apps/rDock/src/rDock_2013.1_src/data/scripts/dock_solv.prm

>  <Rbt.Receptor>
prm/pocket_docking_6.prm

>  <SCORE>
-23.3212

>  <SCORE.INTER>
-23.9918

>  <SCORE.INTER.CONST>
1

>  <SCORE.INTER.POLAR>
0

>  <SCORE.INTER.ROT>
6

>  <SCORE.INTER.SOLV>
13.3513

>  <SCORE.INTER.VDW>
-28.0449

>  <SCORE.INTER.norm>
-0.92276

>  <SCORE.INTRA>
0.670545

>  <SCORE.INTRA.DIHEDRAL>
0.583916

>  <SCORE.INTRA.DIHEDRAL.0>
9.33621

>  <SCORE.INTRA.POLAR>
0

>  <SCORE.INTRA.POLAR.0>
0

>  <SCORE.INTRA.REPUL>
0

>  <SCORE.INTRA.REPUL.0>
0

>  <SCORE.INTRA.SOLV>
2.4821

>  <SCORE.INTRA.SOLV.lig_0>
-65.9238

>  <SCORE.INTRA.VDW>
-0.862465

>  <SCORE.INTRA.VDW.0>
-0.405582

>  <SCORE.INTRA.norm>
0.0257902

>  <SCORE.RESTR>
0

>  <SCORE.RESTR.CAVITY>
0

>  <SCORE.RESTR.norm>
0

>  <SCORE.SYSTEM>
0

>  <SCORE.SYSTEM.CONST>
0

>  <SCORE.SYSTEM.DIHEDRAL>
0

>  <SCORE.SYSTEM.SOLV>
0

>  <SCORE.SYSTEM.norm>
0

>  <SCORE.heavy>
26

>  <SCORE.norm>
-0.89697

>  <RMSD>
6.073

$$$$
ligand
 OpenBabel11021811443D
libRbt.so/2013.1/901 2013/11/27
 26 28  0  0  0  0  0  0  0  0999 V2000
   22.7243   46.1260   67.4060 C   0  0  0  0  0  0  0  0  0  0  0  0
   22.6549   37.7742   65.9784 C   0  0  0  0  0  0  0  0  0  0  0  0
   23.8508   35.2888   71.4171 P   0  0  1  0  0  0  0  0  0  0  0  0
   25.7434   35.9672   73.0434 P   0  0  1  0  0  0  0  0  0  0  0  0
   22.7763   40.5712   66.1571 C   0  0  0  0  0  0  0  0  0  0  0  0
   21.5761   42.7418   66.5569 C   0  0  0  0  0  0  0  0  0  0  0  0
   22.7640   42.0415   66.4877 C   0  0  0  0  0  0  0  0  0  0  0  0
   23.9535   42.7299   66.7321 C   0  0  0  0  0  0  0  0  0  0  0  0
   25.1732   42.0722   66.6744 N   0  0  0  0  0  0  0  0  0  0  0  0
   23.9005   44.0280   67.0157 N   0  0  0  0  0  0  0  0  0  0  0  0
   22.7444   44.6563   67.0760 C   0  0  0  0  0  0  0  0  0  0  0  0
   21.6033   44.0350   66.8502 N   0  0  0  0  0  0  0  0  0  0  0  0
   23.3929   33.8822   71.3588 O   0  0  0  0  0  0  0  0  0  0  0  0
   24.4627   35.8984   73.9055 O   0  0  0  0  0  0  0  0  0  0  0  0
   21.4436   39.1476   69.4409 S   0  0  0  0  0  0  0  0  0  0  0  0
   21.9234   40.4481   68.3940 C   0  0  0  0  0  0  0  0  0  0  0  0
   23.1547   36.0293   72.6640 O   0  0  0  0  0  0  0  0  0  0  0  0
   26.9243   35.1472   73.7669 O   0  5  0  0  0  0  0  0  0  0  0  0
   22.2912   39.8073   67.3087 N   0  0  0  0  0  0  0  0  0  0  0  0
   25.4509   35.3246   71.5962 O   0  0  0  0  0  0  0  0  0  0  0  0
   26.1700   37.4427   72.8749 O   0  0  0  0  0  0  0  0  0  0  0  0
   22.2300   38.4957   67.2325 C   0  0  2  0  0  0  0  0  0  0  0  0
   21.7824   37.8050   68.3119 C   0  0  2  0  0  0  0  0  0  0  0  0
   21.6144   36.3204   68.5033 C   0  0  0  0  0  0  0  0  0  0  0  0
   22.0290   35.9370   69.9257 C   0  0  0  0  0  0  0  0  0  0  0  0
   23.4486   36.0421   70.0519 O   0  0  0  0  0  0  0  0  0  0  0  0
  1 11  1  0  0  0  0
  3 13  1  6  0  0  0
  3 17  1  0  0  0  0
  3 20  1  0  0  0  0
  3 26  1  0  0  0  0
  4 14  1  0  0  0  0
  4 18  1  1  0  0  0
  4 21  2  0  0  0  0
  4 20  1  0  0  0  0
  5 19  1  0  0  0  0
  5  7  1  0  0  0  0
  6  7  2  0  0  0  0
  6 12  1  0  0  0  0
  7  8  1  0  0  0  0
  8  9  1  0  0  0  0
  8 10  2  0  0  0  0
 10 11  1  0  0  0  0
 11 12  2  0  0  0  0
 14 17  1  0  0  0  0
 15 23  1  0  0  0  0
 15 16  1  0  0  0  0
 16 19  1  0  0  0  0
 19 22  1  0  0  0  0
 22  2  1  1  0  0  0
 22 23  1  0  0  0  0
 23 24  1  6  0  0  0
 24 25  1  0  0  0  0
 25 26  1  0  0  0  0
M  CHG  1  18  -1
M  END
>  <CHROM.1>
0.60818835,-73.42230446,-39.18911016,-71.39119187,-166.19558544,58.09134747
23.41401766,38.61935825,69.52996276,-1.88498245,0.81306482,2.74008736

>  <Name>
ligand

>  <RI>
0

>  <Rbt.Current_Directory>
/home/itssahil/PROJECTS/Mol_Feturizer/New_Systems/rnas/2HOL

>  <Rbt.Executable>
rbdock ($Id: //depot/dev/client3/rdock/2013.1/src/exe/rbdock.cxx#4 $)

>  <Rbt.Library>
libRbt.so (2013.1, Build901 2013/11/27)

>  <Rbt.Parameter_File>
/export/apps/rDock/src/rDock_2013.1_src/data/scripts/dock_solv.prm

>  <Rbt.Receptor>
prm/blind_docking_100.prm

>  <SCORE>
-18.364

>  <SCORE.INTER>
-16.6204

>  <SCORE.INTER.CONST>
1

>  <SCORE.INTER.POLAR>
0

>  <SCORE.INTER.ROT>
6

>  <SCORE.INTER.SOLV>
10.9492

>  <SCORE.INTER.VDW>
-22.33

>  <SCORE.INTER.norm>
-0.639246

>  <SCORE.INTRA>
-1.74358

>  <SCORE.INTRA.DIHEDRAL>
-2.96575

>  <SCORE.INTRA.DIHEDRAL.0>
9.33621

>  <SCORE.INTRA.POLAR>
0

>  <SCORE.INTRA.POLAR.0>
0

>  <SCORE.INTRA.REPUL>
0

>  <SCORE.INTRA.REPUL.0>
0

>  <SCORE.INTRA.SOLV>
-0.392248

>  <SCORE.INTRA.SOLV.lig_0>
-65.9238

>  <SCORE.INTRA.VDW>
-0.0645767

>  <SCORE.INTRA.VDW.0>
-0.405582

>  <SCORE.INTRA.norm>
-0.0670606

>  <SCORE.RESTR>
0

>  <SCORE.RESTR.CAVITY>
0

>  <SCORE.RESTR.norm>
0

>  <SCORE.SYSTEM>
0

>  <SCORE.SYSTEM.CONST>
0

>  <SCORE.SYSTEM.DIHEDRAL>
0

>  <SCORE.SYSTEM.SOLV>
0

>  <SCORE.SYSTEM.norm>
0

>  <SCORE.heavy>
26

>  <SCORE.norm>
-0.706307

>  <RMSD>
6.074

$$$$
ligand
 OpenBabel11021811443D
libRbt.so/2013.1/901 2013/11/27
 26 28  0  0  0  0  0  0  0  0999 V2000
   27.1259   42.7628   68.3905 C   0  0  0  0  0  0  0  0  0  0  0  0
   21.6941   39.6876   68.2401 C   0  0  0  0  0  0  0  0  0  0  0  0
   23.8659   35.0704   71.2156 P   0  0  1  0  0  0  0  0  0  0  0  0
   26.2544   35.4214   70.2891 P   0  0  1  0  0  0  0  0  0  0  0  0
   22.5589   40.6292   65.7431 C   0  0  0  0  0  0  0  0  0  0  0  0
   23.6317   41.9917   67.5608 C   0  0  0  0  0  0  0  0  0  0  0  0
   23.7686   41.1933   66.4428 C   0  0  0  0  0  0  0  0  0  0  0  0
   25.0562   40.9215   65.9770 C   0  0  0  0  0  0  0  0  0  0  0  0
   25.2474   40.1254   64.8576 N   0  0  0  0  0  0  0  0  0  0  0  0
   26.0974   41.4423   66.6195 N   0  0  0  0  0  0  0  0  0  0  0  0
   25.9213   42.1954   67.6858 C   0  0  0  0  0  0  0  0  0  0  0  0
   24.7186   42.4712   68.1508 N   0  0  0  0  0  0  0  0  0  0  0  0
   23.6116   34.0232   72.2307 O   0  0  0  0  0  0  0  0  0  0  0  0
   26.2301   36.1459   71.6539 O   0  0  0  0  0  0  0  0  0  0  0  0
   22.5941   36.8103   65.7395 S   0  0  0  0  0  0  0  0  0  0  0  0
   22.8390   38.3656   65.0057 C   0  0  0  0  0  0  0  0  0  0  0  0
   24.4594   36.3819   71.9336 O   0  0  0  0  0  0  0  0  0  0  0  0
   27.5554   34.4778   70.2035 O   0  5  0  0  0  0  0  0  0  0  0  0
   22.4916   39.1842   65.9717 N   0  0  0  0  0  0  0  0  0  0  0  0
   24.9272   34.5229   70.1350 O   0  0  0  0  0  0  0  0  0  0  0  0
   26.3025   36.4680   69.1533 O   0  0  0  0  0  0  0  0  0  0  0  0
   22.0885   38.7346   67.1401 C   0  0  2  0  0  0  0  0  0  0  0  0
   22.0282   37.3921   67.3311 C   0  0  2  0  0  0  0  0  0  0  0  0
   21.6057   36.6104   68.5474 C   0  0  0  0  0  0  0  0  0  0  0  0
   22.8074   36.4169   69.4750 C   0  0  0  0  0  0  0  0  0  0  0  0
   22.4878   35.4428   70.4705 O   0  0  0  0  0  0  0  0  0  0  0  0
  1 11  1  0  0  0  0
  3 13  1  1  0  0  0
  3 17  1  0  0  0  0
  3 20  1  0  0  0  0
  3 26  1  0  0  0  0
  4 14  1  0  0  0  0
  4 18  1  6  0  0  0
  4 21  2  0  0  0  0
  4 20  1  0  0  0  0
  5 19  1  0  0  0  0
  5  7  1  0  0  0  0
  6  7  2  0  0  0  0
  6 12  1  0  0  0  0
  7  8  1  0  0  0  0
  8  9  1  0  0  0  0
  8 10  2  0  0  0  0
 10 11  1  0  0  0  0
 11 12  2  0  0  0  0
 14 17  1  0  0  0  0
 15 23  1  0  0  0  0
 15 16  1  0  0  0  0
 16 19  1  0  0  0  0
 19 22  1  0  0  0  0
 22  2  1  6  0  0  0
 22 23  1  0  0  0  0
 23 24  1  1  0  0  0
 24 25  1  0  0  0  0
 25 26  1  0  0  0  0
M  CHG  1  18  -1
M  END
>  <CHROM.1>
-104.04349125,-109.37439083,92.85038475,-167.51759373,168.80384688,-177.91115067
24.20883233,37.81280561,68.53717462,-1.66921468,0.56164833,2.54790264

>  <Name>
ligand

>  <RI>
0

>  <Rbt.Current_Directory>
/home/itssahil/PROJECTS/Mol_Feturizer/New_Systems/rnas/2HOL

>  <Rbt.Executable>
rbdock ($Id: //depot/dev/client3/rdock/2013.1/src/exe/rbdock.cxx#4 $)

>  <Rbt.Library>
libRbt.so (2013.1, Build901 2013/11/27)

>  <Rbt.Parameter_File>
/export/apps/rDock/src/rDock_2013.1_src/data/scripts/dock_solv.prm

>  <Rbt.Receptor>
prm/pocket_docking_8.prm

>  <SCORE>
-15.95

>  <SCORE.INTER>
-13.4083

>  <SCORE.INTER.CONST>
1

>  <SCORE.INTER.POLAR>
0

>  <SCORE.INTER.ROT>
6

>  <SCORE.INTER.SOLV>
14.9022

>  <SCORE.INTER.VDW>
-21.5062

>  <SCORE.INTER.norm>
-0.515702

>  <SCORE.INTRA>
-2.5418

>  <SCORE.INTRA.DIHEDRAL>
-3.36074

>  <SCORE.INTRA.DIHEDRAL.0>
9.33621

>  <SCORE.INTRA.POLAR>
0

>  <SCORE.INTRA.POLAR.0>
0

>  <SCORE.INTRA.REPUL>
0

>  <SCORE.INTRA.REPUL.0>
0

>  <SCORE.INTRA.SOLV>
1.70101

>  <SCORE.INTRA.SOLV.lig_0>
-65.9238

>  <SCORE.INTRA.VDW>
-1.71193

>  <SCORE.INTRA.VDW.0>
-0.405582

>  <SCORE.INTRA.norm>
-0.0977614

>  <SCORE.RESTR>
0

>  <SCORE.RESTR.CAVITY>
0

>  <SCORE.RESTR.norm>
0

>  <SCORE.SYSTEM>
0

>  <SCORE.SYSTEM.CONST>
0

>  <SCORE.SYSTEM.DIHEDRAL>
0

>  <SCORE.SYSTEM.SOLV>
0

>  <SCORE.SYSTEM.norm>
0

>  <SCORE.heavy>
26

>  <SCORE.norm>
-0.613463

>  <RMSD>
6.116

$$$$
ligand
 OpenBabel11021811443D
libRbt.so/2013.1/901 2013/11/27
 26 28  0  0  0  0  0  0  0  0999 V2000
   21.4705   44.0363   66.5705 C   0  0  0  0  0  0  0  0  0  0  0  0
   21.0930   36.6052   69.8260 C   0  0  0  0  0  0  0  0  0  0  0  0
   26.4638   34.6255   72.4696 P   0  0  1  0  0  0  0  0  0  0  0  0
   26.5283   36.0539   74.6241 P   0  0  1  0  0  0  0  0  0  0  0  0
   21.2317   38.4675   67.7326 C   0  0  0  0  0  0  0  0  0  0  0  0
   21.9620   40.8125   68.2610 C   0  0  0  0  0  0  0  0  0  0  0  0
   21.2940   39.9413   67.4238 C   0  0  0  0  0  0  0  0  0  0  0  0
   20.6780   40.4602   66.2836 C   0  0  0  0  0  0  0  0  0  0  0  0
   19.9940   39.6270   65.4110 N   0  0  0  0  0  0  0  0  0  0  0  0
   20.7517   41.7671   66.0493 N   0  0  0  0  0  0  0  0  0  0  0  0
   21.4039   42.5619   66.8727 C   0  0  0  0  0  0  0  0  0  0  0  0
   21.9961   42.1033   67.9580 N   0  0  0  0  0  0  0  0  0  0  0  0
   27.5165   34.7877   71.4414 O   0  0  0  0  0  0  0  0  0  0  0  0
   27.5360   34.9060   74.8591 O   0  0  0  0  0  0  0  0  0  0  0  0
   24.7474   37.7896   69.0613 S   0  0  0  0  0  0  0  0  0  0  0  0
   23.6116   38.5666   68.0013 C   0  0  0  0  0  0  0  0  0  0  0  0
   27.0055   33.6732   73.6475 O   0  0  0  0  0  0  0  0  0  0  0  0
   27.2172   37.4599   74.9966 O   0  5  0  0  0  0  0  0  0  0  0  0
   22.4694   38.0547   68.3979 N   0  0  0  0  0  0  0  0  0  0  0  0
   26.0814   36.0670   73.0773 O   0  0  0  0  0  0  0  0  0  0  0  0
   25.2861   35.8371   75.5172 O   0  0  0  0  0  0  0  0  0  0  0  0
   22.4128   37.1831   69.3811 C   0  0  2  0  0  0  0  0  0  0  0  0
   23.5712   36.8093   69.9819 C   0  0  2  0  0  0  0  0  0  0  0  0
   23.8007   35.8409   71.1125 C   0  0  0  0  0  0  0  0  0  0  0  0
   24.8109   34.7764   70.6783 C   0  0  0  0  0  0  0  0  0  0  0  0
   25.1570   33.9631   71.8012 O   0  0  0  0  0  0  0  0  0  0  0  0
  1 11  1  0  0  0  0
  3 13  1  6  0  0  0
  3 17  1  0  0  0  0
  3 20  1  0  0  0  0
  3 26  1  0  0  0  0
  4 14  1  0  0  0  0
  4 18  1  1  0  0  0
  4 21  2  0  0  0  0
  4 20  1  0  0  0  0
  5 19  1  0  0  0  0
  5  7  1  0  0  0  0
  6  7  2  0  0  0  0
  6 12  1  0  0  0  0
  7  8  1  0  0  0  0
  8  9  1  0  0  0  0
  8 10  2  0  0  0  0
 10 11  1  0  0  0  0
 11 12  2  0  0  0  0
 14 17  1  0  0  0  0
 15 23  1  0  0  0  0
 15 16  1  0  0  0  0
 16 19  1  0  0  0  0
 19 22  1  0  0  0  0
 22  2  1  6  0  0  0
 22 23  1  0  0  0  0
 23 24  1  1  0  0  0
 24 25  1  0  0  0  0
 25 26  1  0  0  0  0
M  CHG  1  18  -1
M  END
>  <CHROM.1>
-38.70945396,-33.13467908,-55.23833312,172.61202562,-92.27066698,-53.86619806
24.10359156,37.47001389,70.47306150,-2.64620947,0.95280603,-3.02238635

>  <Name>
ligand

>  <RI>
0

>  <Rbt.Current_Directory>
/home/itssahil/PROJECTS/Mol_Feturizer/New_Systems/rnas/2HOL

>  <Rbt.Executable>
rbdock ($Id: //depot/dev/client3/rdock/2013.1/src/exe/rbdock.cxx#4 $)

>  <Rbt.Library>
libRbt.so (2013.1, Build901 2013/11/27)

>  <Rbt.Parameter_File>
/export/apps/rDock/src/rDock_2013.1_src/data/scripts/dock_solv.prm

>  <Rbt.Receptor>
prm/pocket_docking_8.prm

>  <SCORE>
-15.1217

>  <SCORE.INTER>
-15.0444

>  <SCORE.INTER.CONST>
1

>  <SCORE.INTER.POLAR>
0

>  <SCORE.INTER.ROT>
6

>  <SCORE.INTER.SOLV>
13.5661

>  <SCORE.INTER.VDW>
-22.1516

>  <SCORE.INTER.norm>
-0.57863

>  <SCORE.INTRA>
-0.0772848

>  <SCORE.INTRA.DIHEDRAL>
0.108852

>  <SCORE.INTRA.DIHEDRAL.0>
9.33621

>  <SCORE.INTRA.POLAR>
0

>  <SCORE.INTRA.POLAR.0>
0

>  <SCORE.INTRA.REPUL>
0

>  <SCORE.INTRA.REPUL.0>
0

>  <SCORE.INTRA.SOLV>
0.0199756

>  <SCORE.INTRA.SOLV.lig_0>
-65.9238

>  <SCORE.INTRA.VDW>
-0.141699

>  <SCORE.INTRA.VDW.0>
-0.405582

>  <SCORE.INTRA.norm>
-0.00297249

>  <SCORE.RESTR>
0

>  <SCORE.RESTR.CAVITY>
0

>  <SCORE.RESTR.norm>
0

>  <SCORE.SYSTEM>
0

>  <SCORE.SYSTEM.CONST>
0

>  <SCORE.SYSTEM.DIHEDRAL>
0

>  <SCORE.SYSTEM.SOLV>
0

>  <SCORE.SYSTEM.norm>
0

>  <SCORE.heavy>
26

>  <SCORE.norm>
-0.581602

>  <RMSD>
6.143

$$$$
ligand
 OpenBabel11021811443D
libRbt.so/2013.1/901 2013/11/27
 26 28  0  0  0  0  0  0  0  0999 V2000
   24.0385   36.8455   70.1936 C   0  0  0  0  0  0  0  0  0  0  0  0
   23.1992   41.2549   65.1917 C   0  0  0  0  0  0  0  0  0  0  0  0
   23.9007   44.7058   66.7724 P   0  0  1  0  0  0  0  0  0  0  0  0
   26.1638   44.5901   65.5268 P   0  0  1  0  0  0  0  0  0  0  0  0
   22.1513   38.6533   65.1351 C   0  0  0  0  0  0  0  0  0  0  0  0
   21.7715   37.8817   67.4956 C   0  0  0  0  0  0  0  0  0  0  0  0
   22.6522   38.1750   66.4736 C   0  0  0  0  0  0  0  0  0  0  0  0
   24.0186   38.0168   66.7114 C   0  0  0  0  0  0  0  0  0  0  0  0
   24.9442   38.2986   65.7177 N   0  0  0  0  0  0  0  0  0  0  0  0
   24.4205   37.5973   67.9075 N   0  0  0  0  0  0  0  0  0  0  0  0
   23.5452   37.3242   68.8531 C   0  0  0  0  0  0  0  0  0  0  0  0
   22.2480   37.4634   68.6606 N   0  0  0  0  0  0  0  0  0  0  0  0
   23.6008   45.8528   67.6590 O   0  0  0  0  0  0  0  0  0  0  0  0
   25.2846   45.5531   64.6975 O   0  0  0  0  0  0  0  0  0  0  0  0
   19.3128   41.1521   65.6683 S   0  0  0  0  0  0  0  0  0  0  0  0
   19.9541   39.5493   65.4753 C   0  0  0  0  0  0  0  0  0  0  0  0
   23.6165   45.1194   65.2440 O   0  0  0  0  0  0  0  0  0  0  0  0
   27.6027   45.2630   65.7862 O   0  5  0  0  0  0  0  0  0  0  0  0
   21.2382   39.7817   65.3298 N   0  0  0  0  0  0  0  0  0  0  0  0
   25.4479   44.2907   66.9377 O   0  0  0  0  0  0  0  0  0  0  0  0
   26.3474   43.2662   64.7513 O   0  0  0  0  0  0  0  0  0  0  0  0
   21.7217   41.0045   65.3589 C   0  0  2  0  0  0  0  0  0  0  0  0
   20.8589   42.0374   65.5354 C   0  0  2  0  0  0  0  0  0  0  0  0
   21.1299   43.5175   65.6041 C   0  0  0  0  0  0  0  0  0  0  0  0
   21.6128   43.8853   67.0090 C   0  0  0  0  0  0  0  0  0  0  0  0
   22.9662   43.4573   67.1739 O   0  0  0  0  0  0  0  0  0  0  0  0
  1 11  1  0  0  0  0
  3 13  1  1  0  0  0
  3 17  1  0  0  0  0
  3 20  1  0  0  0  0
  3 26  1  0  0  0  0
  4 14  1  0  0  0  0
  4 18  1  1  0  0  0
  4 21  2  0  0  0  0
  4 20  1  0  0  0  0
  5 19  1  0  0  0  0
  5  7  1  0  0  0  0
  6  7  2  0  0  0  0
  6 12  1  0  0  0  0
  7  8  1  0  0  0  0
  8  9  1  0  0  0  0
  8 10  2  0  0  0  0
 10 11  1  0  0  0  0
 11 12  2  0  0  0  0
 14 17  1  0  0  0  0
 15 23  1  0  0  0  0
 15 16  1  0  0  0  0
 16 19  1  0  0  0  0
 19 22  1  0  0  0  0
 22  2  1  6  0  0  0
 22 23  1  0  0  0  0
 23 24  1  1  0  0  0
 24 25  1  0  0  0  0
 25 26  1  0  0  0  0
M  CHG  1  18  -1
M  END
>  <CHROM.1>
-90.52943433,51.51704191,98.71917806,74.99596234,92.82436273,60.00971776
23.29806496,41.76399801,66.35270031,-1.95569709,-0.18970004,-0.26804228

>  <Name>
ligand

>  <RI>
0

>  <Rbt.Current_Directory>
/home/itssahil/PROJECTS/Mol_Feturizer/New_Systems/rnas/2HOL

>  <Rbt.Executable>
rbdock ($Id: //depot/dev/client3/rdock/2013.1/src/exe/rbdock.cxx#4 $)

>  <Rbt.Library>
libRbt.so (2013.1, Build901 2013/11/27)

>  <Rbt.Parameter_File>
/export/apps/rDock/src/rDock_2013.1_src/data/scripts/dock_solv.prm

>  <Rbt.Receptor>
prm/pocket_docking_6.prm

>  <SCORE>
-19.7137

>  <SCORE.INTER>
-19.0654

>  <SCORE.INTER.CONST>
1

>  <SCORE.INTER.POLAR>
0

>  <SCORE.INTER.ROT>
6

>  <SCORE.INTER.SOLV>
16.4017

>  <SCORE.INTER.VDW>
-25.7775

>  <SCORE.INTER.norm>
-0.733285

>  <SCORE.INTRA>
-0.648257

>  <SCORE.INTRA.DIHEDRAL>
0.31297

>  <SCORE.INTRA.DIHEDRAL.0>
9.33621

>  <SCORE.INTRA.POLAR>
0

>  <SCORE.INTRA.POLAR.0>
0

>  <SCORE.INTRA.REPUL>
0

>  <SCORE.INTRA.REPUL.0>
0

>  <SCORE.INTRA.SOLV>
2.32017

>  <SCORE.INTRA.SOLV.lig_0>
-65.9238

>  <SCORE.INTRA.VDW>
-1.96483

>  <SCORE.INTRA.VDW.0>
-0.405582

>  <SCORE.INTRA.norm>
-0.0249329

>  <SCORE.RESTR>
0

>  <SCORE.RESTR.CAVITY>
0

>  <SCORE.RESTR.norm>
0

>  <SCORE.SYSTEM>
0

>  <SCORE.SYSTEM.CONST>
0

>  <SCORE.SYSTEM.DIHEDRAL>
0

>  <SCORE.SYSTEM.SOLV>
0

>  <SCORE.SYSTEM.norm>
0

>  <SCORE.heavy>
26

>  <SCORE.norm>
-0.758218

>  <RMSD>
6.146

$$$$
ligand
 OpenBabel11021811443D
libRbt.so/2013.1/901 2013/11/27
 26 28  0  0  0  0  0  0  0  0999 V2000
   19.2719   40.4548   65.4310 C   0  0  0  0  0  0  0  0  0  0  0  0
   25.2280   41.1181   67.5609 C   0  0  0  0  0  0  0  0  0  0  0  0
   24.5097   44.6120   64.2555 P   0  0  1  0  0  0  0  0  0  0  0  0
   23.0344   45.3774   66.2365 P   0  0  1  0  0  0  0  0  0  0  0  0
   24.4884   38.5546   66.6943 C   0  0  0  0  0  0  0  0  0  0  0  0
   22.9011   39.9054   65.2917 C   0  0  0  0  0  0  0  0  0  0  0  0
   23.1071   39.0569   66.3611 C   0  0  0  0  0  0  0  0  0  0  0  0
   22.0032   38.6756   67.1259 C   0  0  0  0  0  0  0  0  0  0  0  0
   22.1572   37.8254   68.2107 N   0  0  0  0  0  0  0  0  0  0  0  0
   20.8017   39.1445   66.8022 N   0  0  0  0  0  0  0  0  0  0  0  0
   20.6497   39.9487   65.7701 C   0  0  0  0  0  0  0  0  0  0  0  0
   21.6717   40.3279   65.0281 N   0  0  0  0  0  0  0  0  0  0  0  0
   23.9819   44.6689   62.8735 O   0  0  0  0  0  0  0  0  0  0  0  0
   23.5990   46.6753   65.6163 O   0  0  0  0  0  0  0  0  0  0  0  0
   27.0869   40.0019   64.2988 S   0  0  0  0  0  0  0  0  0  0  0  0
   25.9979   38.7632   64.8440 C   0  0  0  0  0  0  0  0  0  0  0  0
   25.0305   46.0701   64.6922 O   0  0  0  0  0  0  0  0  0  0  0  0
   21.4442   45.5239   66.4371 O   0  5  0  0  0  0  0  0  0  0  0  0
   25.4809   39.3054   65.9222 N   0  0  0  0  0  0  0  0  0  0  0  0
   23.3409   44.1371   65.2565 O   0  0  0  0  0  0  0  0  0  0  0  0
   23.7049   45.1293   67.6064 O   0  0  0  0  0  0  0  0  0  0  0  0
   25.8321   40.5085   66.3210 C   0  0  2  0  0  0  0  0  0  0  0  0
   26.7570   41.1865   65.5949 C   0  0  2  0  0  0  0  0  0  0  0  0
   27.3400   42.5574   65.8175 C   0  0  0  0  0  0  0  0  0  0  0  0
   26.2439   43.6129   65.6548 C   0  0  0  0  0  0  0  0  0  0  0  0
   25.7298   43.5633   64.3223 O   0  0  0  0  0  0  0  0  0  0  0  0
  1 11  1  0  0  0  0
  3 13  1  6  0  0  0
  3 17  1  0  0  0  0
  3 20  1  0  0  0  0
  3 26  1  0  0  0  0
  4 14  1  0  0  0  0
  4 18  1  1  0  0  0
  4 21  2  0  0  0  0
  4 20  1  0  0  0  0
  5 19  1  0  0  0  0
  5  7  1  0  0  0  0
  6  7  2  0  0  0  0
  6 12  1  0  0  0  0
  7  8  1  0  0  0  0
  8  9  1  0  0  0  0
  8 10  2  0  0  0  0
 10 11  1  0  0  0  0
 11 12  2  0  0  0  0
 14 17  1  0  0  0  0
 15 23  1  0  0  0  0
 15 16  1  0  0  0  0
 16 19  1  0  0  0  0
 19 22  1  0  0  0  0
 22  2  1  1  0  0  0
 22 23  1  0  0  0  0
 23 24  1  6  0  0  0
 24 25  1  0  0  0  0
 25 26  1  0  0  0  0
M  CHG  1  18  -1
M  END
>  <CHROM.1>
-100.79746589,11.33873833,114.31847894,-61.78818757,175.63455885,176.64272002
24.01716580,42.15323510,65.64632225,1.68431654,-0.23824478,3.01232254

>  <Name>
ligand

>  <RI>
0

>  <Rbt.Current_Directory>
/home/itssahil/PROJECTS/Mol_Feturizer/New_Systems/rnas/2HOL

>  <Rbt.Executable>
rbdock ($Id: //depot/dev/client3/rdock/2013.1/src/exe/rbdock.cxx#4 $)

>  <Rbt.Library>
libRbt.so (2013.1, Build901 2013/11/27)

>  <Rbt.Parameter_File>
/export/apps/rDock/src/rDock_2013.1_src/data/scripts/dock_solv.prm

>  <Rbt.Receptor>
prm/pocket_docking_6.prm

>  <SCORE>
-14.868

>  <SCORE.INTER>
-10.9302

>  <SCORE.INTER.CONST>
1

>  <SCORE.INTER.POLAR>
0

>  <SCORE.INTER.ROT>
6

>  <SCORE.INTER.SOLV>
16.4838

>  <SCORE.INTER.VDW>
-20.3814

>  <SCORE.INTER.norm>
-0.420391

>  <SCORE.INTRA>
-3.9378

>  <SCORE.INTRA.DIHEDRAL>
-4.64713

>  <SCORE.INTRA.DIHEDRAL.0>
9.33621

>  <SCORE.INTRA.POLAR>
0

>  <SCORE.INTRA.POLAR.0>
0

>  <SCORE.INTRA.REPUL>
0

>  <SCORE.INTRA.REPUL.0>
0

>  <SCORE.INTRA.SOLV>
0.722939

>  <SCORE.INTRA.SOLV.lig_0>
-65.9238

>  <SCORE.INTRA.VDW>
-1.97571

>  <SCORE.INTRA.VDW.0>
-0.405582

>  <SCORE.INTRA.norm>
-0.151454

>  <SCORE.RESTR>
0

>  <SCORE.RESTR.CAVITY>
0

>  <SCORE.RESTR.norm>
0

>  <SCORE.SYSTEM>
0

>  <SCORE.SYSTEM.CONST>
0

>  <SCORE.SYSTEM.DIHEDRAL>
0

>  <SCORE.SYSTEM.SOLV>
0

>  <SCORE.SYSTEM.norm>
0

>  <SCORE.heavy>
26

>  <SCORE.norm>
-0.571845

>  <RMSD>
6.162

$$$$
ligand
 OpenBabel11021811443D
libRbt.so/2013.1/901 2013/11/27
 26 28  0  0  0  0  0  0  0  0999 V2000
   19.6460   44.4722   65.8886 C   0  0  0  0  0  0  0  0  0  0  0  0
   23.9136   38.0902   66.4417 C   0  0  0  0  0  0  0  0  0  0  0  0
   24.2930   35.1279   72.6592 P   0  0  1  0  0  0  0  0  0  0  0  0
   25.0675   35.6001   75.0807 P   0  0  1  0  0  0  0  0  0  0  0  0
   21.3994   39.0599   65.6620 C   0  0  0  0  0  0  0  0  0  0  0  0
   19.6182   40.8221   65.4786 C   0  0  0  0  0  0  0  0  0  0  0  0
   20.9367   40.4929   65.7222 C   0  0  0  0  0  0  0  0  0  0  0  0
   21.8305   41.5213   66.0262 C   0  0  0  0  0  0  0  0  0  0  0  0
   23.1656   41.2431   66.2785 N   0  0  0  0  0  0  0  0  0  0  0  0
   21.3838   42.7732   66.0646 N   0  0  0  0  0  0  0  0  0  0  0  0
   20.1159   43.0421   65.8301 C   0  0  0  0  0  0  0  0  0  0  0  0
   19.2465   42.0938   65.5400 N   0  0  0  0  0  0  0  0  0  0  0  0
   23.7341   33.8036   72.3050 O   0  0  0  0  0  0  0  0  0  0  0  0
   23.5312   35.7656   75.0987 O   0  0  0  0  0  0  0  0  0  0  0  0
   21.2278   37.8595   69.2834 S   0  0  0  0  0  0  0  0  0  0  0  0
   20.5440   38.5450   67.8413 C   0  0  0  0  0  0  0  0  0  0  0  0
   23.1509   36.0257   73.3502 O   0  0  0  0  0  0  0  0  0  0  0  0
   25.5213   34.6521   76.2996 O   0  5  0  0  0  0  0  0  0  0  0  0
   21.5700   38.5438   67.0219 N   0  0  0  0  0  0  0  0  0  0  0  0
   25.5191   34.9354   73.6854 O   0  0  0  0  0  0  0  0  0  0  0  0
   25.7348   36.9857   75.2308 O   0  0  0  0  0  0  0  0  0  0  0  0
   22.7452   38.0861   67.3949 C   0  0  2  0  0  0  0  0  0  0  0  0
   22.8847   37.6165   68.6608 C   0  0  2  0  0  0  0  0  0  0  0  0
   24.0975   37.0458   69.3481 C   0  0  0  0  0  0  0  0  0  0  0  0
   23.6638   36.2781   70.5989 C   0  0  0  0  0  0  0  0  0  0  0  0
   24.8210   35.8623   71.3269 O   0  0  0  0  0  0  0  0  0  0  0  0
  1 11  1  0  0  0  0
  3 13  1  6  0  0  0
  3 17  1  0  0  0  0
  3 20  1  0  0  0  0
  3 26  1  0  0  0  0
  4 14  1  0  0  0  0
  4 18  1  1  0  0  0
  4 21  2  0  0  0  0
  4 20  1  0  0  0  0
  5 19  1  0  0  0  0
  5  7  1  0  0  0  0
  6  7  2  0  0  0  0
  6 12  1  0  0  0  0
  7  8  1  0  0  0  0
  8  9  1  0  0  0  0
  8 10  2  0  0  0  0
 10 11  1  0  0  0  0
 11 12  2  0  0  0  0
 14 17  1  0  0  0  0
 15 23  1  0  0  0  0
 15 16  1  0  0  0  0
 16 19  1  0  0  0  0
 19 22  1  0  0  0  0
 22  2  1  1  0  0  0
 22 23  1  0  0  0  0
 23 24  1  6  0  0  0
 24 25  1  0  0  0  0
 25 26  1  0  0  0  0
M  CHG  1  18  -1
M  END
>  <CHROM.1>
58.60277498,-103.42867189,16.87344881,-173.74266972,177.30428655,73.01347918
22.87585392,37.92252435,69.97217832,2.76335636,1.17345462,-2.10033661

>  <Name>
ligand

>  <RI>
0

>  <Rbt.Current_Directory>
/home/itssahil/PROJECTS/Mol_Feturizer/New_Systems/rnas/2HOL

>  <Rbt.Executable>
rbdock ($Id: //depot/dev/client3/rdock/2013.1/src/exe/rbdock.cxx#4 $)

>  <Rbt.Library>
libRbt.so (2013.1, Build901 2013/11/27)

>  <Rbt.Parameter_File>
/export/apps/rDock/src/rDock_2013.1_src/data/scripts/dock_solv.prm

>  <Rbt.Receptor>
prm/blind_docking_100.prm

>  <SCORE>
-23.0954

>  <SCORE.INTER>
-20.7673

>  <SCORE.INTER.CONST>
1

>  <SCORE.INTER.POLAR>
0

>  <SCORE.INTER.ROT>
6

>  <SCORE.INTER.SOLV>
10.4543

>  <SCORE.INTER.VDW>
-24.9296

>  <SCORE.INTER.norm>
-0.798743

>  <SCORE.INTRA>
-2.32812

>  <SCORE.INTRA.DIHEDRAL>
-4.20961

>  <SCORE.INTRA.DIHEDRAL.0>
9.33621

>  <SCORE.INTRA.POLAR>
0

>  <SCORE.INTRA.POLAR.0>
0

>  <SCORE.INTRA.REPUL>
0

>  <SCORE.INTRA.REPUL.0>
0

>  <SCORE.INTRA.SOLV>
2.05978

>  <SCORE.INTRA.SOLV.lig_0>
-65.9238

>  <SCORE.INTRA.VDW>
-1.25321

>  <SCORE.INTRA.VDW.0>
-0.405582

>  <SCORE.INTRA.norm>
-0.0895432

>  <SCORE.RESTR>
0

>  <SCORE.RESTR.CAVITY>
0

>  <SCORE.RESTR.norm>
0

>  <SCORE.SYSTEM>
0

>  <SCORE.SYSTEM.CONST>
0

>  <SCORE.SYSTEM.DIHEDRAL>
0

>  <SCORE.SYSTEM.SOLV>
0

>  <SCORE.SYSTEM.norm>
0

>  <SCORE.heavy>
26

>  <SCORE.norm>
-0.888286

>  <RMSD>
6.195

$$$$
ligand
 OpenBabel11021811443D
libRbt.so/2013.1/901 2013/11/27
 26 28  0  0  0  0  0  0  0  0999 V2000
   25.2484   46.3552   63.1746 C   0  0  0  0  0  0  0  0  0  0  0  0
   22.5694   42.1651   66.4802 C   0  0  0  0  0  0  0  0  0  0  0  0
   21.5651   37.7978   68.4255 P   0  0  1  0  0  0  0  0  0  0  0  0
   24.1416   37.6486   68.5862 P   0  0  1  0  0  0  0  0  0  0  0  0
   21.1715   44.5842   66.7329 C   0  0  0  0  0  0  0  0  0  0  0  0
   22.2964   44.6069   64.4865 C   0  0  0  0  0  0  0  0  0  0  0  0
   22.2512   45.0537   65.7921 C   0  0  0  0  0  0  0  0  0  0  0  0
   23.2311   45.9519   66.2187 C   0  0  0  0  0  0  0  0  0  0  0  0
   23.2301   46.4301   67.5205 N   0  0  0  0  0  0  0  0  0  0  0  0
   24.1696   46.3381   65.3594 N   0  0  0  0  0  0  0  0  0  0  0  0
   24.1722   45.8902   64.1207 C   0  0  0  0  0  0  0  0  0  0  0  0
   23.2613   45.0411   63.6868 N   0  0  0  0  0  0  0  0  0  0  0  0
   20.7229   36.7378   69.0242 O   0  0  0  0  0  0  0  0  0  0  0  0
   23.6734   38.1958   69.9535 O   0  0  0  0  0  0  0  0  0  0  0  0
   18.8853   41.9566   65.1662 S   0  0  0  0  0  0  0  0  0  0  0  0
   19.2392   43.5491   65.7630 C   0  0  0  0  0  0  0  0  0  0  0  0
   22.0242   38.8302   69.5706 O   0  0  0  0  0  0  0  0  0  0  0  0
   25.1648   36.4277   68.8165 O   0  5  0  0  0  0  0  0  0  0  0  0
   20.4870   43.4268   66.1525 N   0  0  0  0  0  0  0  0  0  0  0  0
   22.8664   37.1312   67.7503 O   0  0  0  0  0  0  0  0  0  0  0  0
   24.8515   38.7730   67.7992 O   0  0  0  0  0  0  0  0  0  0  0  0
   21.1358   42.2893   66.0293 C   0  0  2  0  0  0  0  0  0  0  0  0
   20.4828   41.2267   65.4937 C   0  0  2  0  0  0  0  0  0  0  0  0
   20.9704   39.8240   65.2418 C   0  0  0  0  0  0  0  0  0  0  0  0
   21.6672   39.2908   66.4957 C   0  0  0  0  0  0  0  0  0  0  0  0
   20.7220   38.5831   67.3005 O   0  0  0  0  0  0  0  0  0  0  0  0
  1 11  1  0  0  0  0
  3 13  1  1  0  0  0
  3 17  1  0  0  0  0
  3 20  1  0  0  0  0
  3 26  1  0  0  0  0
  4 14  1  0  0  0  0
  4 18  1  1  0  0  0
  4 21  2  0  0  0  0
  4 20  1  0  0  0  0
  5 19  1  0  0  0  0
  5  7  1  0  0  0  0
  6  7  2  0  0  0  0
  6 12  1  0  0  0  0
  7  8  1  0  0  0  0
  8  9  1  0  0  0  0
  8 10  2  0  0  0  0
 10 11  1  0  0  0  0
 11 12  2  0  0  0  0
 14 17  1  0  0  0  0
 15 23  1  0  0  0  0
 15 16  1  0  0  0  0
 16 19  1  0  0  0  0
 19 22  1  0  0  0  0
 22  2  1  1  0  0  0
 22 23  1  0  0  0  0
 23 24  1  6  0  0  0
 24 25  1  0  0  0  0
 25 26  1  0  0  0  0
M  CHG  1  18  -1
M  END
>  <CHROM.1>
-111.67178365,13.66948044,-132.07798718,92.67310836,168.46288438,-162.84840733
22.25310532,41.18851994,66.77496171,-1.58338132,0.20567391,2.71800552

>  <Name>
ligand

>  <RI>
0

>  <Rbt.Current_Directory>
/home/itssahil/PROJECTS/Mol_Feturizer/New_Systems/rnas/2HOL

>  <Rbt.Executable>
rbdock ($Id: //depot/dev/client3/rdock/2013.1/src/exe/rbdock.cxx#4 $)

>  <Rbt.Library>
libRbt.so (2013.1, Build901 2013/11/27)

>  <Rbt.Parameter_File>
/export/apps/rDock/src/rDock_2013.1_src/data/scripts/dock_solv.prm

>  <Rbt.Receptor>
prm/pocket_docking_8.prm

>  <SCORE>
-20.34

>  <SCORE.INTER>
-21.2207

>  <SCORE.INTER.CONST>
1

>  <SCORE.INTER.POLAR>
0

>  <SCORE.INTER.ROT>
6

>  <SCORE.INTER.SOLV>
24.168

>  <SCORE.INTER.VDW>
-29.8031

>  <SCORE.INTER.norm>
-0.81618

>  <SCORE.INTRA>
0.880707

>  <SCORE.INTRA.DIHEDRAL>
-0.496221

>  <SCORE.INTRA.DIHEDRAL.0>
9.33621

>  <SCORE.INTRA.POLAR>
0

>  <SCORE.INTRA.POLAR.0>
0

>  <SCORE.INTRA.REPUL>
0

>  <SCORE.INTRA.REPUL.0>
0

>  <SCORE.INTRA.SOLV>
0.884178

>  <SCORE.INTRA.SOLV.lig_0>
-65.9238

>  <SCORE.INTRA.VDW>
0.686729

>  <SCORE.INTRA.VDW.0>
-0.405582

>  <SCORE.INTRA.norm>
0.0338734

>  <SCORE.RESTR>
0

>  <SCORE.RESTR.CAVITY>
0

>  <SCORE.RESTR.norm>
0

>  <SCORE.SYSTEM>
0

>  <SCORE.SYSTEM.CONST>
0

>  <SCORE.SYSTEM.DIHEDRAL>
0

>  <SCORE.SYSTEM.SOLV>
0

>  <SCORE.SYSTEM.norm>
0

>  <SCORE.heavy>
26

>  <SCORE.norm>
-0.782307

>  <RMSD>
6.236

$$$$
ligand
 OpenBabel11021811443D
libRbt.so/2013.1/901 2013/11/27
 26 28  0  0  0  0  0  0  0  0999 V2000
   27.3132   44.0687   65.3264 C   0  0  0  0  0  0  0  0  0  0  0  0
   22.1378   42.0069   67.5559 C   0  0  0  0  0  0  0  0  0  0  0  0
   22.5789   37.6243   65.5037 P   0  0  1  0  0  0  0  0  0  0  0  0
   24.9109   38.6593   65.9245 P   0  0  1  0  0  0  0  0  0  0  0  0
   22.0294   44.8000   67.3177 C   0  0  0  0  0  0  0  0  0  0  0  0
   24.4602   44.2488   67.6329 C   0  0  0  0  0  0  0  0  0  0  0  0
   23.4275   44.6068   66.7893 C   0  0  0  0  0  0  0  0  0  0  0  0
   23.7113   44.7850   65.4342 C   0  0  0  0  0  0  0  0  0  0  0  0
   22.7092   45.1451   64.5456 N   0  0  0  0  0  0  0  0  0  0  0  0
   24.9588   44.6100   65.0083 N   0  0  0  0  0  0  0  0  0  0  0  0
   25.9132   44.2636   65.8474 C   0  0  0  0  0  0  0  0  0  0  0  0
   25.6782   44.0878   67.1331 N   0  0  0  0  0  0  0  0  0  0  0  0
   22.4634   36.2274   65.0272 O   0  0  0  0  0  0  0  0  0  0  0  0
   24.6063   37.8047   67.1755 O   0  0  0  0  0  0  0  0  0  0  0  0
   19.3754   43.2314   65.0636 S   0  0  0  0  0  0  0  0  0  0  0  0
   20.2329   44.5791   65.7462 C   0  0  0  0  0  0  0  0  0  0  0  0
   22.8083   37.6317   67.0959 O   0  0  0  0  0  0  0  0  0  0  0  0
   26.3864   38.3139   65.3825 O   0  5  0  0  0  0  0  0  0  0  0  0
   21.0953   43.9848   66.5380 N   0  0  0  0  0  0  0  0  0  0  0  0
   23.8275   38.3368   64.7778 O   0  0  0  0  0  0  0  0  0  0  0  0
   24.8370   40.1574   66.2960 O   0  0  0  0  0  0  0  0  0  0  0  0
   21.1405   42.6746   66.6430 C   0  0  2  0  0  0  0  0  0  0  0  0
   20.2634   41.9365   65.9162 C   0  0  2  0  0  0  0  0  0  0  0  0
   20.0896   40.4420   65.8450 C   0  0  0  0  0  0  0  0  0  0  0  0
   21.4381   39.7831   65.5461 C   0  0  0  0  0  0  0  0  0  0  0  0
   21.2273   38.4258   65.1518 O   0  0  0  0  0  0  0  0  0  0  0  0
  1 11  1  0  0  0  0
  3 13  1  6  0  0  0
  3 17  1  0  0  0  0
  3 20  1  0  0  0  0
  3 26  1  0  0  0  0
  4 14  1  0  0  0  0
  4 18  1  6  0  0  0
  4 21  2  0  0  0  0
  4 20  1  0  0  0  0
  5 19  1  0  0  0  0
  5  7  1  0  0  0  0
  6  7  2  0  0  0  0
  6 12  1  0  0  0  0
  7  8  1  0  0  0  0
  8  9  1  0  0  0  0
  8 10  2  0  0  0  0
 10 11  1  0  0  0  0
 11 12  2  0  0  0  0
 14 17  1  0  0  0  0
 15 23  1  0  0  0  0
 15 16  1  0  0  0  0
 16 19  1  0  0  0  0
 19 22  1  0  0  0  0
 22  2  1  1  0  0  0
 22 23  1  0  0  0  0
 23 24  1  6  0  0  0
 24 25  1  0  0  0  0
 25 26  1  0  0  0  0
M  CHG  1  18  -1
M  END
>  <CHROM.1>
-110.85944530,-126.98768779,127.66512793,-165.69292654,-154.54040034,-175.85463531
22.99986138,41.23326868,65.93129170,-1.67577236,0.06114112,-3.09594486

>  <Name>
ligand

>  <RI>
0

>  <Rbt.Current_Directory>
/home/itssahil/PROJECTS/Mol_Feturizer/New_Systems/rnas/2HOL

>  <Rbt.Executable>
rbdock ($Id: //depot/dev/client3/rdock/2013.1/src/exe/rbdock.cxx#4 $)

>  <Rbt.Library>
libRbt.so (2013.1, Build901 2013/11/27)

>  <Rbt.Parameter_File>
/export/apps/rDock/src/rDock_2013.1_src/data/scripts/dock_solv.prm

>  <Rbt.Receptor>
prm/pocket_docking_6.prm

>  <SCORE>
-22.8698

>  <SCORE.INTER>
-23.2807

>  <SCORE.INTER.CONST>
1

>  <SCORE.INTER.POLAR>
0

>  <SCORE.INTER.ROT>
6

>  <SCORE.INTER.SOLV>
23.4306

>  <SCORE.INTER.VDW>
-30.9307

>  <SCORE.INTER.norm>
-0.895413

>  <SCORE.INTRA>
0.410902

>  <SCORE.INTRA.DIHEDRAL>
-1.23144

>  <SCORE.INTRA.DIHEDRAL.0>
9.33621

>  <SCORE.INTRA.POLAR>
0

>  <SCORE.INTRA.POLAR.0>
0

>  <SCORE.INTRA.REPUL>
0

>  <SCORE.INTRA.REPUL.0>
0

>  <SCORE.INTRA.SOLV>
3.74577

>  <SCORE.INTRA.SOLV.lig_0>
-65.9238

>  <SCORE.INTRA.VDW>
-0.846262

>  <SCORE.INTRA.VDW.0>
-0.405582

>  <SCORE.INTRA.norm>
0.0158039

>  <SCORE.RESTR>
0

>  <SCORE.RESTR.CAVITY>
0

>  <SCORE.RESTR.norm>
0

>  <SCORE.SYSTEM>
0

>  <SCORE.SYSTEM.CONST>
0

>  <SCORE.SYSTEM.DIHEDRAL>
0

>  <SCORE.SYSTEM.SOLV>
0

>  <SCORE.SYSTEM.norm>
0

>  <SCORE.heavy>
26

>  <SCORE.norm>
-0.879609

>  <RMSD>
6.240

$$$$
ligand
 OpenBabel11021811443D
libRbt.so/2013.1/901 2013/11/27
 26 28  0  0  0  0  0  0  0  0999 V2000
   22.1271   43.8377   66.9974 C   0  0  0  0  0  0  0  0  0  0  0  0
   21.3136   36.5517   69.3258 C   0  0  0  0  0  0  0  0  0  0  0  0
   26.4667   36.6771   73.5450 P   0  0  1  0  0  0  0  0  0  0  0  0
   27.2892   37.3117   75.9129 P   0  0  1  0  0  0  0  0  0  0  0  0
   22.3071   38.1523   67.2472 C   0  0  0  0  0  0  0  0  0  0  0  0
   23.3464   40.4184   67.5577 C   0  0  0  0  0  0  0  0  0  0  0  0
   22.2581   39.6571   67.1807 C   0  0  0  0  0  0  0  0  0  0  0  0
   21.1110   40.3167   66.7358 C   0  0  0  0  0  0  0  0  0  0  0  0
   19.9908   39.5977   66.3463 N   0  0  0  0  0  0  0  0  0  0  0  0
   21.1060   41.6459   66.6966 N   0  0  0  0  0  0  0  0  0  0  0  0
   22.1688   42.3332   67.0613 C   0  0  0  0  0  0  0  0  0  0  0  0
   23.2675   41.7405   67.4863 N   0  0  0  0  0  0  0  0  0  0  0  0
   27.4153   36.6699   72.4084 O   0  0  0  0  0  0  0  0  0  0  0  0
   27.7053   35.8369   75.7125 O   0  0  0  0  0  0  0  0  0  0  0  0
   25.1148   37.4076   69.7267 S   0  0  0  0  0  0  0  0  0  0  0  0
   24.4675   38.1301   68.2857 C   0  0  0  0  0  0  0  0  0  0  0  0
   26.6114   35.3062   74.3742 O   0  0  0  0  0  0  0  0  0  0  0  0
   28.5468   38.1570   76.4554 O   0  5  0  0  0  0  0  0  0  0  0  0
   23.2143   37.7399   68.3205 N   0  0  0  0  0  0  0  0  0  0  0  0
   26.7944   37.9250   74.5088 O   0  0  0  0  0  0  0  0  0  0  0  0
   26.1382   37.3850   76.9412 O   0  0  0  0  0  0  0  0  0  0  0  0
   22.7560   36.9906   69.2994 C   0  0  2  0  0  0  0  0  0  0  0  0
   23.6133   36.6145   70.2823 C   0  0  2  0  0  0  0  0  0  0  0  0
   23.3667   35.7678   71.5033 C   0  0  0  0  0  0  0  0  0  0  0  0
   24.6722   35.6025   72.2845 C   0  0  0  0  0  0  0  0  0  0  0  0
   24.9617   36.8120   72.9883 O   0  0  0  0  0  0  0  0  0  0  0  0
  1 11  1  0  0  0  0
  3 13  1  6  0  0  0
  3 17  1  0  0  0  0
  3 20  1  0  0  0  0
  3 26  1  0  0  0  0
  4 14  1  0  0  0  0
  4 18  1  1  0  0  0
  4 21  2  0  0  0  0
  4 20  1  0  0  0  0
  5 19  1  0  0  0  0
  5  7  1  0  0  0  0
  6  7  2  0  0  0  0
  6 12  1  0  0  0  0
  7  8  1  0  0  0  0
  8  9  1  0  0  0  0
  8 10  2  0  0  0  0
 10 11  1  0  0  0  0
 11 12  2  0  0  0  0
 14 17  1  0  0  0  0
 15 23  1  0  0  0  0
 15 16  1  0  0  0  0
 16 19  1  0  0  0  0
 19 22  1  0  0  0  0
 22  2  1  6  0  0  0
 22 23  1  0  0  0  0
 23 24  1  1  0  0  0
 24 25  1  0  0  0  0
 25 26  1  0  0  0  0
M  CHG  1  18  -1
M  END
>  <CHROM.1>
-58.51515534,29.51503132,-1.73173430,75.58932188,-169.16259614,67.26535837
24.54426158,38.04589601,71.09535122,-2.59968610,0.94542288,2.92364549

>  <Name>
ligand

>  <RI>
0

>  <Rbt.Current_Directory>
/home/itssahil/PROJECTS/Mol_Feturizer/New_Systems/rnas/2HOL

>  <Rbt.Executable>
rbdock ($Id: //depot/dev/client3/rdock/2013.1/src/exe/rbdock.cxx#4 $)

>  <Rbt.Library>
libRbt.so (2013.1, Build901 2013/11/27)

>  <Rbt.Parameter_File>
/export/apps/rDock/src/rDock_2013.1_src/data/scripts/dock_solv.prm

>  <Rbt.Receptor>
prm/blind_docking_100.prm

>  <SCORE>
-14.4771

>  <SCORE.INTER>
-12.7408

>  <SCORE.INTER.CONST>
1

>  <SCORE.INTER.POLAR>
0

>  <SCORE.INTER.ROT>
6

>  <SCORE.INTER.SOLV>
17.1068

>  <SCORE.INTER.VDW>
-21.7961

>  <SCORE.INTER.norm>
-0.490029

>  <SCORE.INTRA>
-1.7363

>  <SCORE.INTRA.DIHEDRAL>
-3.25798

>  <SCORE.INTRA.DIHEDRAL.0>
9.33621

>  <SCORE.INTRA.POLAR>
0

>  <SCORE.INTRA.POLAR.0>
0

>  <SCORE.INTRA.REPUL>
0

>  <SCORE.INTRA.REPUL.0>
0

>  <SCORE.INTRA.SOLV>
-0.220343

>  <SCORE.INTRA.SOLV.lig_0>
-65.9238

>  <SCORE.INTRA.VDW>
0.00285779

>  <SCORE.INTRA.VDW.0>
-0.405582

>  <SCORE.INTRA.norm>
-0.0667809

>  <SCORE.RESTR>
0

>  <SCORE.RESTR.CAVITY>
0

>  <SCORE.RESTR.norm>
0

>  <SCORE.SYSTEM>
0

>  <SCORE.SYSTEM.CONST>
0

>  <SCORE.SYSTEM.DIHEDRAL>
0

>  <SCORE.SYSTEM.SOLV>
0

>  <SCORE.SYSTEM.norm>
0

>  <SCORE.heavy>
26

>  <SCORE.norm>
-0.55681

>  <RMSD>
6.295

$$$$
ligand
 OpenBabel11021811443D
libRbt.so/2013.1/901 2013/11/27
 26 28  0  0  0  0  0  0  0  0999 V2000
   26.5821   36.9965   72.1077 C   0  0  0  0  0  0  0  0  0  0  0  0
   21.3087   39.1510   69.2891 C   0  0  0  0  0  0  0  0  0  0  0  0
   25.0549   42.5592   67.0535 P   0  0  1  0  0  0  0  0  0  0  0  0
   27.5362   41.8410   66.9365 P   0  0  1  0  0  0  0  0  0  0  0  0
   21.9842   36.4744   68.7903 C   0  0  0  0  0  0  0  0  0  0  0  0
   24.2210   37.4799   69.3358 C   0  0  0  0  0  0  0  0  0  0  0  0
   23.2007   36.6115   69.6692 C   0  0  0  0  0  0  0  0  0  0  0  0
   23.3244   35.8639   70.8416 C   0  0  0  0  0  0  0  0  0  0  0  0
   22.3276   34.9773   71.2206 N   0  0  0  0  0  0  0  0  0  0  0  0
   24.4157   36.0101   71.5873 N   0  0  0  0  0  0  0  0  0  0  0  0
   25.3632   36.8541   71.2340 C   0  0  0  0  0  0  0  0  0  0  0  0
   25.2769   37.5745   70.1328 N   0  0  0  0  0  0  0  0  0  0  0  0
   24.7047   43.9792   67.2828 O   0  0  0  0  0  0  0  0  0  0  0  0
   27.2109   42.4311   65.5458 O   0  0  0  0  0  0  0  0  0  0  0  0
   22.3778   38.5012   65.5774 S   0  0  0  0  0  0  0  0  0  0  0  0
   22.4432   37.0340   66.5050 C   0  0  0  0  0  0  0  0  0  0  0  0
   25.4059   42.3366   65.4994 O   0  0  0  0  0  0  0  0  0  0  0  0
   28.9009   42.4897   67.4909 O   0  5  0  0  0  0  0  0  0  0  0  0
   22.0622   37.4418   67.6935 N   0  0  0  0  0  0  0  0  0  0  0  0
   26.3322   42.1700   67.9538 O   0  0  0  0  0  0  0  0  0  0  0  0
   27.7058   40.3098   66.8174 O   0  0  0  0  0  0  0  0  0  0  0  0
   21.7458   38.6984   67.9188 C   0  0  2  0  0  0  0  0  0  0  0  0
   21.8291   39.5809   66.8908 C   0  0  2  0  0  0  0  0  0  0  0  0
   21.5366   41.0582   66.8639 C   0  0  0  0  0  0  0  0  0  0  0  0
   22.8011   41.8238   66.4678 C   0  0  0  0  0  0  0  0  0  0  0  0
   23.8082   41.6254   67.4619 O   0  0  0  0  0  0  0  0  0  0  0  0
  1 11  1  0  0  0  0
  3 13  1  1  0  0  0
  3 17  1  0  0  0  0
  3 20  1  0  0  0  0
  3 26  1  0  0  0  0
  4 14  1  0  0  0  0
  4 18  1  1  0  0  0
  4 21  2  0  0  0  0
  4 20  1  0  0  0  0
  5 19  1  0  0  0  0
  5  7  1  0  0  0  0
  6  7  2  0  0  0  0
  6 12  1  0  0  0  0
  7  8  1  0  0  0  0
  8  9  1  0  0  0  0
  8 10  2  0  0  0  0
 10 11  1  0  0  0  0
 11 12  2  0  0  0  0
 14 17  1  0  0  0  0
 15 23  1  0  0  0  0
 15 16  1  0  0  0  0
 16 19  1  0  0  0  0
 19 22  1  0  0  0  0
 22  2  1  1  0  0  0
 22 23  1  0  0  0  0
 23 24  1  6  0  0  0
 24 25  1  0  0  0  0
 25 26  1  0  0  0  0
M  CHG  1  18  -1
M  END
>  <CHROM.1>
101.14734139,-4.46061099,-60.60100388,-63.46423102,-174.97906235,71.35571172
24.40311750,39.65569635,67.96522213,-2.05094848,-0.38253600,-0.69684574

>  <Name>
ligand

>  <RI>
0

>  <Rbt.Current_Directory>
/home/itssahil/PROJECTS/Mol_Feturizer/New_Systems/rnas/2HOL

>  <Rbt.Executable>
rbdock ($Id: //depot/dev/client3/rdock/2013.1/src/exe/rbdock.cxx#4 $)

>  <Rbt.Library>
libRbt.so (2013.1, Build901 2013/11/27)

>  <Rbt.Parameter_File>
/export/apps/rDock/src/rDock_2013.1_src/data/scripts/dock_solv.prm

>  <Rbt.Receptor>
prm/pocket_docking_8.prm

>  <SCORE>
-15.0737

>  <SCORE.INTER>
-11.5088

>  <SCORE.INTER.CONST>
1

>  <SCORE.INTER.POLAR>
0

>  <SCORE.INTER.ROT>
6

>  <SCORE.INTER.SOLV>
8.40315

>  <SCORE.INTER.VDW>
-18.0736

>  <SCORE.INTER.norm>
-0.442645

>  <SCORE.INTRA>
-3.56843

>  <SCORE.INTRA.DIHEDRAL>
-3.79775

>  <SCORE.INTRA.DIHEDRAL.0>
9.33621

>  <SCORE.INTRA.POLAR>
0

>  <SCORE.INTRA.POLAR.0>
0

>  <SCORE.INTRA.REPUL>
0

>  <SCORE.INTRA.REPUL.0>
0

>  <SCORE.INTRA.SOLV>
-0.549229

>  <SCORE.INTRA.SOLV.lig_0>
-65.9238

>  <SCORE.INTRA.VDW>
-1.39494

>  <SCORE.INTRA.VDW.0>
-0.405582

>  <SCORE.INTRA.norm>
-0.137247

>  <SCORE.RESTR>
0.00345349

>  <SCORE.RESTR.CAVITY>
0.00345349

>  <SCORE.RESTR.norm>
0.000132827

>  <SCORE.SYSTEM>
0

>  <SCORE.SYSTEM.CONST>
0

>  <SCORE.SYSTEM.DIHEDRAL>
0

>  <SCORE.SYSTEM.SOLV>
0

>  <SCORE.SYSTEM.norm>
0

>  <SCORE.heavy>
26

>  <SCORE.norm>
-0.579759

>  <RMSD>
6.339

$$$$
ligand
 OpenBabel11021811443D
libRbt.so/2013.1/901 2013/11/27
 26 28  0  0  0  0  0  0  0  0999 V2000
   27.5765   37.2828   64.5314 C   0  0  0  0  0  0  0  0  0  0  0  0
   21.7070   41.9368   66.6222 C   0  0  0  0  0  0  0  0  0  0  0  0
   24.5572   44.1184   63.9747 P   0  0  1  0  0  0  0  0  0  0  0  0
   26.5590   42.4864   64.1003 P   0  0  1  0  0  0  0  0  0  0  0  0
   23.6167   40.0848   67.5126 C   0  0  0  0  0  0  0  0  0  0  0  0
   26.0023   39.4525   67.0427 C   0  0  0  0  0  0  0  0  0  0  0  0
   24.6638   39.3426   66.7226 C   0  0  0  0  0  0  0  0  0  0  0  0
   24.3048   38.5262   65.6487 C   0  0  0  0  0  0  0  0  0  0  0  0
   22.9737   38.3827   65.2866 N   0  0  0  0  0  0  0  0  0  0  0  0
   25.2590   37.8921   64.9738 N   0  0  0  0  0  0  0  0  0  0  0  0
   26.5243   38.0217   65.3165 C   0  0  0  0  0  0  0  0  0  0  0  0
   26.8963   38.7852   66.3253 N   0  0  0  0  0  0  0  0  0  0  0  0
   23.9365   44.4303   62.6674 O   0  0  0  0  0  0  0  0  0  0  0  0
   25.3027   41.5922   63.9993 O   0  0  0  0  0  0  0  0  0  0  0  0
   25.0361   43.6169   67.8208 S   0  0  0  0  0  0  0  0  0  0  0  0
   25.1245   41.8892   67.9781 C   0  0  0  0  0  0  0  0  0  0  0  0
   23.9861   42.7168   64.5199 O   0  0  0  0  0  0  0  0  0  0  0  0
   27.6549   41.9985   63.0273 O   0  5  0  0  0  0  0  0  0  0  0  0
   23.9456   41.5117   67.5404 N   0  0  0  0  0  0  0  0  0  0  0  0
   26.1547   44.0156   63.7987 O   0  0  0  0  0  0  0  0  0  0  0  0
   27.1506   42.3813   65.5238 O   0  0  0  0  0  0  0  0  0  0  0  0
   23.0563   42.3863   67.1234 C   0  0  2  0  0  0  0  0  0  0  0  0
   23.3779   43.7045   67.1615 C   0  0  2  0  0  0  0  0  0  0  0  0
   22.5649   44.9062   66.7569 C   0  0  0  0  0  0  0  0  0  0  0  0
   22.8041   45.2119   65.2766 C   0  0  0  0  0  0  0  0  0  0  0  0
   24.2093   45.2864   65.0273 O   0  0  0  0  0  0  0  0  0  0  0  0
  1 11  1  0  0  0  0
  3 13  1  6  0  0  0
  3 17  1  0  0  0  0
  3 20  1  0  0  0  0
  3 26  1  0  0  0  0
  4 14  1  0  0  0  0
  4 18  1  6  0  0  0
  4 21  2  0  0  0  0
  4 20  1  0  0  0  0
  5 19  1  0  0  0  0
  5  7  1  0  0  0  0
  6  7  2  0  0  0  0
  6 12  1  0  0  0  0
  7  8  1  0  0  0  0
  8  9  1  0  0  0  0
  8 10  2  0  0  0  0
 10 11  1  0  0  0  0
 11 12  2  0  0  0  0
 14 17  1  0  0  0  0
 15 23  1  0  0  0  0
 15 16  1  0  0  0  0
 16 19  1  0  0  0  0
 19 22  1  0  0  0  0
 22  2  1  1  0  0  0
 22 23  1  0  0  0  0
 23 24  1  6  0  0  0
 24 25  1  0  0  0  0
 25 26  1  0  0  0  0
M  CHG  1  18  -1
M  END
>  <CHROM.1>
-55.13303664,54.42236274,90.60529137,-51.45093075,118.09192293,67.61954534
24.90095883,41.91876734,65.50397193,-1.11514727,0.80588378,-0.39454743

>  <Name>
ligand

>  <RI>
0

>  <Rbt.Current_Directory>
/home/itssahil/PROJECTS/Mol_Feturizer/New_Systems/rnas/2HOL

>  <Rbt.Executable>
rbdock ($Id: //depot/dev/client3/rdock/2013.1/src/exe/rbdock.cxx#4 $)

>  <Rbt.Library>
libRbt.so (2013.1, Build901 2013/11/27)

>  <Rbt.Parameter_File>
/export/apps/rDock/src/rDock_2013.1_src/data/scripts/dock_solv.prm

>  <Rbt.Receptor>
prm/pocket_docking_7.prm

>  <SCORE>
-14.0082

>  <SCORE.INTER>
-11.6187

>  <SCORE.INTER.CONST>
1

>  <SCORE.INTER.POLAR>
0

>  <SCORE.INTER.ROT>
6

>  <SCORE.INTER.SOLV>
9.33752

>  <SCORE.INTER.VDW>
-18.4583

>  <SCORE.INTER.norm>
-0.446873

>  <SCORE.INTRA>
-2.38953

>  <SCORE.INTRA.DIHEDRAL>
3.05051

>  <SCORE.INTRA.DIHEDRAL.0>
9.33621

>  <SCORE.INTRA.POLAR>
0

>  <SCORE.INTRA.POLAR.0>
0

>  <SCORE.INTRA.REPUL>
0

>  <SCORE.INTRA.REPUL.0>
0

>  <SCORE.INTRA.SOLV>
1.86097

>  <SCORE.INTRA.SOLV.lig_0>
-65.9238

>  <SCORE.INTRA.VDW>
-4.84527

>  <SCORE.INTRA.VDW.0>
-0.405582

>  <SCORE.INTRA.norm>
-0.0919052

>  <SCORE.RESTR>
0

>  <SCORE.RESTR.CAVITY>
0

>  <SCORE.RESTR.norm>
0

>  <SCORE.SYSTEM>
0

>  <SCORE.SYSTEM.CONST>
0

>  <SCORE.SYSTEM.DIHEDRAL>
0

>  <SCORE.SYSTEM.SOLV>
0

>  <SCORE.SYSTEM.norm>
0

>  <SCORE.heavy>
26

>  <SCORE.norm>
-0.538778

>  <RMSD>
6.356

$$$$
ligand
 OpenBabel11021811443D
libRbt.so/2013.1/901 2013/11/27
 26 28  0  0  0  0  0  0  0  0999 V2000
   26.1557   38.1135   65.1831 C   0  0  0  0  0  0  0  0  0  0  0  0
   21.8699   41.6227   67.7226 C   0  0  0  0  0  0  0  0  0  0  0  0
   23.4577   45.6034   66.5002 P   0  0  1  0  0  0  0  0  0  0  0  0
   24.8281   43.5097   67.1518 P   0  0  1  0  0  0  0  0  0  0  0  0
   20.8848   39.0677   67.1133 C   0  0  0  0  0  0  0  0  0  0  0  0
   22.7449   39.4468   65.4677 C   0  0  0  0  0  0  0  0  0  0  0  0
   22.2802   38.8141   66.6035 C   0  0  0  0  0  0  0  0  0  0  0  0
   23.1358   37.9338   67.2680 C   0  0  0  0  0  0  0  0  0  0  0  0
   22.7167   37.2731   68.4131 N   0  0  0  0  0  0  0  0  0  0  0  0
   24.3578   37.7334   66.7833 N   0  0  0  0  0  0  0  0  0  0  0  0
   24.7622   38.3619   65.6986 C   0  0  0  0  0  0  0  0  0  0  0  0
   23.9785   39.1993   65.0478 N   0  0  0  0  0  0  0  0  0  0  0  0
   23.4324   46.7809   67.3971 O   0  0  0  0  0  0  0  0  0  0  0  0
   25.8532   44.5105   66.5724 O   0  0  0  0  0  0  0  0  0  0  0  0
   19.0325   41.6723   65.0227 S   0  0  0  0  0  0  0  0  0  0  0  0
   19.3607   40.0482   65.5443 C   0  0  0  0  0  0  0  0  0  0  0  0
   24.8021   45.6294   65.6171 O   0  0  0  0  0  0  0  0  0  0  0  0
   25.3690   42.9366   68.5552 O   0  5  0  0  0  0  0  0  0  0  0  0
   20.3168   40.2294   66.4257 N   0  0  0  0  0  0  0  0  0  0  0  0
   23.4205   44.2566   67.3824 O   0  0  0  0  0  0  0  0  0  0  0  0
   24.6345   42.3412   66.1594 O   0  0  0  0  0  0  0  0  0  0  0  0
   20.7722   41.4309   66.7067 C   0  0  2  0  0  0  0  0  0  0  0  0
   20.2366   42.4945   66.0553 C   0  0  2  0  0  0  0  0  0  0  0  0
   20.5633   43.9602   66.1732 C   0  0  0  0  0  0  0  0  0  0  0  0
   21.7836   44.2842   65.3083 C   0  0  0  0  0  0  0  0  0  0  0  0
   22.1750   45.6410   65.5273 O   0  0  0  0  0  0  0  0  0  0  0  0
  1 11  1  0  0  0  0
  3 13  1  1  0  0  0
  3 17  1  0  0  0  0
  3 20  1  0  0  0  0
  3 26  1  0  0  0  0
  4 14  1  0  0  0  0
  4 18  1  1  0  0  0
  4 21  2  0  0  0  0
  4 20  1  0  0  0  0
  5 19  1  0  0  0  0
  5  7  1  0  0  0  0
  6  7  2  0  0  0  0
  6 12  1  0  0  0  0
  7  8  1  0  0  0  0
  8  9  1  0  0  0  0
  8 10  2  0  0  0  0
 10 11  1  0  0  0  0
 11 12  2  0  0  0  0
 14 17  1  0  0  0  0
 15 23  1  0  0  0  0
 15 16  1  0  0  0  0
 16 19  1  0  0  0  0
 19 22  1  0  0  0  0
 22  2  1  6  0  0  0
 22 23  1  0  0  0  0
 23 24  1  1  0  0  0
 24 25  1  0  0  0  0
 25 26  1  0  0  0  0
M  CHG  1  18  -1
M  END
>  <CHROM.1>
108.49619776,-12.43681163,-97.46517248,-174.09645849,102.32413346,-145.86466402
22.83439420,42.03800252,66.42727805,-1.73656039,-0.16995511,-0.00510092

>  <Name>
ligand

>  <RI>
0

>  <Rbt.Current_Directory>
/home/itssahil/PROJECTS/Mol_Feturizer/New_Systems/rnas/2HOL

>  <Rbt.Executable>
rbdock ($Id: //depot/dev/client3/rdock/2013.1/src/exe/rbdock.cxx#4 $)

>  <Rbt.Library>
libRbt.so (2013.1, Build901 2013/11/27)

>  <Rbt.Parameter_File>
/export/apps/rDock/src/rDock_2013.1_src/data/scripts/dock_solv.prm

>  <Rbt.Receptor>
prm/pocket_docking_6.prm

>  <SCORE>
-22.3893

>  <SCORE.INTER>
-24.2983

>  <SCORE.INTER.CONST>
1

>  <SCORE.INTER.POLAR>
0

>  <SCORE.INTER.ROT>
6

>  <SCORE.INTER.SOLV>
18.0278

>  <SCORE.INTER.VDW>
-29.8082

>  <SCORE.INTER.norm>
-0.934552

>  <SCORE.INTRA>
1.90903

>  <SCORE.INTRA.DIHEDRAL>
2.77524

>  <SCORE.INTRA.DIHEDRAL.0>
9.33621

>  <SCORE.INTRA.POLAR>
0

>  <SCORE.INTRA.POLAR.0>
0

>  <SCORE.INTRA.REPUL>
0

>  <SCORE.INTRA.REPUL.0>
0

>  <SCORE.INTRA.SOLV>
3.58397

>  <SCORE.INTRA.SOLV.lig_0>
-65.9238

>  <SCORE.INTRA.VDW>
-1.27058

>  <SCORE.INTRA.VDW.0>
-0.405582

>  <SCORE.INTRA.norm>
0.0734242

>  <SCORE.RESTR>
0

>  <SCORE.RESTR.CAVITY>
0

>  <SCORE.RESTR.norm>
0

>  <SCORE.SYSTEM>
0

>  <SCORE.SYSTEM.CONST>
0

>  <SCORE.SYSTEM.DIHEDRAL>
0

>  <SCORE.SYSTEM.SOLV>
0

>  <SCORE.SYSTEM.norm>
0

>  <SCORE.heavy>
26

>  <SCORE.norm>
-0.861127

>  <RMSD>
6.385

$$$$
ligand
 OpenBabel11021811443D
libRbt.so/2013.1/901 2013/11/27
 26 28  0  0  0  0  0  0  0  0999 V2000
   21.8035   42.8796   66.6835 C   0  0  0  0  0  0  0  0  0  0  0  0
   21.6014   35.7889   70.2882 C   0  0  0  0  0  0  0  0  0  0  0  0
   26.9492   37.2470   73.8249 P   0  0  1  0  0  0  0  0  0  0  0  0
   27.7864   38.4879   75.9334 P   0  0  1  0  0  0  0  0  0  0  0  0
   22.1109   37.3524   68.0155 C   0  0  0  0  0  0  0  0  0  0  0  0
   21.7977   39.7671   68.6341 C   0  0  0  0  0  0  0  0  0  0  0  0
   22.0297   38.8150   67.6615 C   0  0  0  0  0  0  0  0  0  0  0  0
   22.1875   39.2417   66.3417 C   0  0  0  0  0  0  0  0  0  0  0  0
   22.4219   38.3249   65.3278 N   0  0  0  0  0  0  0  0  0  0  0  0
   22.1039   40.5407   66.0698 N   0  0  0  0  0  0  0  0  0  0  0  0
   21.8859   41.4158   67.0298 C   0  0  0  0  0  0  0  0  0  0  0  0
   21.7322   41.0453   68.2861 N   0  0  0  0  0  0  0  0  0  0  0  0
   27.8059   37.1729   72.6199 O   0  0  0  0  0  0  0  0  0  0  0  0
   28.4637   37.0995   75.9750 O   0  0  0  0  0  0  0  0  0  0  0  0
   25.2640   37.1715   70.1627 S   0  0  0  0  0  0  0  0  0  0  0  0
   24.3584   37.6944   68.7756 C   0  0  0  0  0  0  0  0  0  0  0  0
   27.4076   36.1224   74.8800 O   0  0  0  0  0  0  0  0  0  0  0  0
   28.8909   39.6334   76.1750 O   0  5  0  0  0  0  0  0  0  0  0  0
   23.1855   37.1439   68.9884 N   0  0  0  0  0  0  0  0  0  0  0  0
   27.0932   38.7037   74.4962 O   0  0  0  0  0  0  0  0  0  0  0  0
   26.7116   38.5681   77.0407 O   0  0  0  0  0  0  0  0  0  0  0  0
   22.9544   36.4133   70.0573 C   0  0  2  0  0  0  0  0  0  0  0  0
   23.9644   36.2276   70.9449 C   0  0  2  0  0  0  0  0  0  0  0  0
   23.9832   35.4465   72.2327 C   0  0  0  0  0  0  0  0  0  0  0  0
   25.3258   35.6530   72.9377 C   0  0  0  0  0  0  0  0  0  0  0  0
   25.4135   36.9993   73.4088 O   0  0  0  0  0  0  0  0  0  0  0  0
  1 11  1  0  0  0  0
  3 13  1  6  0  0  0
  3 17  1  0  0  0  0
  3 20  1  0  0  0  0
  3 26  1  0  0  0  0
  4 14  1  0  0  0  0
  4 18  1  1  0  0  0
  4 21  2  0  0  0  0
  4 20  1  0  0  0  0
  5 19  1  0  0  0  0
  5  7  1  0  0  0  0
  6  7  2  0  0  0  0
  6 12  1  0  0  0  0
  7  8  1  0  0  0  0
  8  9  1  0  0  0  0
  8 10  2  0  0  0  0
 10 11  1  0  0  0  0
 11 12  2  0  0  0  0
 14 17  1  0  0  0  0
 15 23  1  0  0  0  0
 15 16  1  0  0  0  0
 16 19  1  0  0  0  0
 19 22  1  0  0  0  0
 22  2  1  6  0  0  0
 22 23  1  0  0  0  0
 23 24  1  1  0  0  0
 24 25  1  0  0  0  0
 25 26  1  0  0  0  0
M  CHG  1  18  -1
M  END
>  <CHROM.1>
-47.13302900,-58.92646136,5.09217461,69.07896742,-167.19317737,65.35332253
24.84805577,38.03360201,71.37404539,-2.82297982,0.95433409,2.96687811

>  <Name>
ligand

>  <RI>
0

>  <Rbt.Current_Directory>
/home/itssahil/PROJECTS/Mol_Feturizer/New_Systems/rnas/2HOL

>  <Rbt.Executable>
rbdock ($Id: //depot/dev/client3/rdock/2013.1/src/exe/rbdock.cxx#4 $)

>  <Rbt.Library>
libRbt.so (2013.1, Build901 2013/11/27)

>  <Rbt.Parameter_File>
/export/apps/rDock/src/rDock_2013.1_src/data/scripts/dock_solv.prm

>  <Rbt.Receptor>
prm/pocket_docking_8.prm

>  <SCORE>
-18.9282

>  <SCORE.INTER>
-15.5358

>  <SCORE.INTER.CONST>
1

>  <SCORE.INTER.POLAR>
0

>  <SCORE.INTER.ROT>
6

>  <SCORE.INTER.SOLV>
17.4129

>  <SCORE.INTER.VDW>
-23.7615

>  <SCORE.INTER.norm>
-0.597532

>  <SCORE.INTRA>
-3.3924

>  <SCORE.INTRA.DIHEDRAL>
-3.62718

>  <SCORE.INTRA.DIHEDRAL.0>
9.33621

>  <SCORE.INTRA.POLAR>
0

>  <SCORE.INTRA.POLAR.0>
0

>  <SCORE.INTRA.REPUL>
0

>  <SCORE.INTRA.REPUL.0>
0

>  <SCORE.INTRA.SOLV>
-0.454865

>  <SCORE.INTRA.SOLV.lig_0>
-65.9238

>  <SCORE.INTRA.VDW>
-1.35138

>  <SCORE.INTRA.VDW.0>
-0.405582

>  <SCORE.INTRA.norm>
-0.130477

>  <SCORE.RESTR>
0

>  <SCORE.RESTR.CAVITY>
0

>  <SCORE.RESTR.norm>
0

>  <SCORE.SYSTEM>
0

>  <SCORE.SYSTEM.CONST>
0

>  <SCORE.SYSTEM.DIHEDRAL>
0

>  <SCORE.SYSTEM.SOLV>
0

>  <SCORE.SYSTEM.norm>
0

>  <SCORE.heavy>
26

>  <SCORE.norm>
-0.728009

>  <RMSD>
6.393

$$$$
ligand
 OpenBabel11021811443D
libRbt.so/2013.1/901 2013/11/27
 26 28  0  0  0  0  0  0  0  0999 V2000
   22.8614   46.1991   67.0890 C   0  0  0  0  0  0  0  0  0  0  0  0
   22.7402   37.7711   66.3231 C   0  0  0  0  0  0  0  0  0  0  0  0
   24.0739   35.8890   71.3636 P   0  0  1  0  0  0  0  0  0  0  0  0
   24.4053   35.2022   73.8344 P   0  0  1  0  0  0  0  0  0  0  0  0
   23.0971   40.5527   66.3955 C   0  0  0  0  0  0  0  0  0  0  0  0
   24.0734   42.7327   67.1740 C   0  0  0  0  0  0  0  0  0  0  0  0
   23.0333   42.0472   66.5785 C   0  0  0  0  0  0  0  0  0  0  0  0
   21.9212   42.7739   66.1497 C   0  0  0  0  0  0  0  0  0  0  0  0
   20.8500   42.1322   65.5461 N   0  0  0  0  0  0  0  0  0  0  0  0
   21.9013   44.0906   66.3340 N   0  0  0  0  0  0  0  0  0  0  0  0
   22.9180   44.7053   66.9027 C   0  0  0  0  0  0  0  0  0  0  0  0
   23.9828   44.0480   67.3190 N   0  0  0  0  0  0  0  0  0  0  0  0
   25.2476   36.2071   70.5192 O   0  0  0  0  0  0  0  0  0  0  0  0
   24.6959   33.9285   73.0090 O   0  0  0  0  0  0  0  0  0  0  0  0
   21.3140   39.4201   69.5772 S   0  0  0  0  0  0  0  0  0  0  0  0
   22.0140   40.6188   68.5329 C   0  0  0  0  0  0  0  0  0  0  0  0
   23.8811   34.2936   71.4367 O   0  0  0  0  0  0  0  0  0  0  0  0
   25.5913   35.4379   74.8965 O   0  5  0  0  0  0  0  0  0  0  0  0
   22.4301   39.8937   67.5206 N   0  0  0  0  0  0  0  0  0  0  0  0
   24.3074   36.4704   72.8471 O   0  0  0  0  0  0  0  0  0  0  0  0
   23.0669   35.0314   74.5875 O   0  0  0  0  0  0  0  0  0  0  0  0
   22.2578   38.5901   67.4938 C   0  0  2  0  0  0  0  0  0  0  0  0
   21.6419   37.9970   68.5480 C   0  0  2  0  0  0  0  0  0  0  0  0
   21.3208   36.5442   68.7831 C   0  0  0  0  0  0  0  0  0  0  0  0
   22.4908   35.8711   69.5042 C   0  0  0  0  0  0  0  0  0  0  0  0
   22.7560   36.5609   70.7273 O   0  0  0  0  0  0  0  0  0  0  0  0
  1 11  1  0  0  0  0
  3 13  1  6  0  0  0
  3 17  1  0  0  0  0
  3 20  1  0  0  0  0
  3 26  1  0  0  0  0
  4 14  1  0  0  0  0
  4 18  1  1  0  0  0
  4 21  2  0  0  0  0
  4 20  1  0  0  0  0
  5 19  1  0  0  0  0
  5  7  1  0  0  0  0
  6  7  2  0  0  0  0
  6 12  1  0  0  0  0
  7  8  1  0  0  0  0
  8  9  1  0  0  0  0
  8 10  2  0  0  0  0
 10 11  1  0  0  0  0
 11 12  2  0  0  0  0
 14 17  1  0  0  0  0
 15 23  1  0  0  0  0
 15 16  1  0  0  0  0
 16 19  1  0  0  0  0
 19 22  1  0  0  0  0
 22  2  1  1  0  0  0
 22 23  1  0  0  0  0
 23 24  1  6  0  0  0
 24 25  1  0  0  0  0
 25 26  1  0  0  0  0
M  CHG  1  18  -1
M  END
>  <CHROM.1>
-6.38289538,94.53009981,-90.41413170,57.06940374,-174.93750355,68.30274504
23.11167509,38.58810340,69.64738679,-1.91690878,1.05259675,2.77832294

>  <Name>
ligand

>  <RI>
0

>  <Rbt.Current_Directory>
/home/itssahil/PROJECTS/Mol_Feturizer/New_Systems/rnas/2HOL

>  <Rbt.Executable>
rbdock ($Id: //depot/dev/client3/rdock/2013.1/src/exe/rbdock.cxx#4 $)

>  <Rbt.Library>
libRbt.so (2013.1, Build901 2013/11/27)

>  <Rbt.Parameter_File>
/export/apps/rDock/src/rDock_2013.1_src/data/scripts/dock_solv.prm

>  <Rbt.Receptor>
prm/pocket_docking_8.prm

>  <SCORE>
-16.5347

>  <SCORE.INTER>
-13.9125

>  <SCORE.INTER.CONST>
1

>  <SCORE.INTER.POLAR>
0

>  <SCORE.INTER.ROT>
6

>  <SCORE.INTER.SOLV>
15.3951

>  <SCORE.INTER.VDW>
-22.0067

>  <SCORE.INTER.norm>
-0.535095

>  <SCORE.INTRA>
-2.62224

>  <SCORE.INTRA.DIHEDRAL>
-4.19947

>  <SCORE.INTRA.DIHEDRAL.0>
9.33621

>  <SCORE.INTRA.POLAR>
0

>  <SCORE.INTRA.POLAR.0>
0

>  <SCORE.INTRA.REPUL>
0

>  <SCORE.INTRA.REPUL.0>
0

>  <SCORE.INTRA.SOLV>
0.288356

>  <SCORE.INTRA.SOLV.lig_0>
-65.9238

>  <SCORE.INTRA.VDW>
-0.666683

>  <SCORE.INTRA.VDW.0>
-0.405582

>  <SCORE.INTRA.norm>
-0.100855

>  <SCORE.RESTR>
0

>  <SCORE.RESTR.CAVITY>
0

>  <SCORE.RESTR.norm>
0

>  <SCORE.SYSTEM>
0

>  <SCORE.SYSTEM.CONST>
0

>  <SCORE.SYSTEM.DIHEDRAL>
0

>  <SCORE.SYSTEM.SOLV>
0

>  <SCORE.SYSTEM.norm>
0

>  <SCORE.heavy>
26

>  <SCORE.norm>
-0.63595

>  <RMSD>
6.398

$$$$
ligand
 OpenBabel11021811443D
libRbt.so/2013.1/901 2013/11/27
 26 28  0  0  0  0  0  0  0  0999 V2000
   26.0333   38.4929   65.1377 C   0  0  0  0  0  0  0  0  0  0  0  0
   21.5913   41.8472   67.4555 C   0  0  0  0  0  0  0  0  0  0  0  0
   23.5381   45.7717   65.8001 P   0  0  1  0  0  0  0  0  0  0  0  0
   25.2755   43.8675   65.5944 P   0  0  1  0  0  0  0  0  0  0  0  0
   20.7157   39.2145   67.0406 C   0  0  0  0  0  0  0  0  0  0  0  0
   22.5699   39.6851   65.4119 C   0  0  0  0  0  0  0  0  0  0  0  0
   22.1235   39.0225   66.5380 C   0  0  0  0  0  0  0  0  0  0  0  0
   23.0095   38.1704   67.1994 C   0  0  0  0  0  0  0  0  0  0  0  0
   22.6097   37.4814   68.3348 N   0  0  0  0  0  0  0  0  0  0  0  0
   24.2417   38.0243   66.7213 N   0  0  0  0  0  0  0  0  0  0  0  0
   24.6276   38.6798   65.6459 C   0  0  0  0  0  0  0  0  0  0  0  0
   23.8151   39.4918   64.9981 N   0  0  0  0  0  0  0  0  0  0  0  0
   23.9535   47.1031   66.2963 O   0  0  0  0  0  0  0  0  0  0  0  0
   25.4767   44.7476   64.3402 O   0  0  0  0  0  0  0  0  0  0  0  0
   18.6869   41.5869   64.8403 S   0  0  0  0  0  0  0  0  0  0  0  0
   19.1065   40.0177   65.4559 C   0  0  0  0  0  0  0  0  0  0  0  0
   23.9076   45.6405   64.2399 O   0  0  0  0  0  0  0  0  0  0  0  0
   26.6991   43.5914   66.2926 O   0  5  0  0  0  0  0  0  0  0  0  0
   20.0749   40.3008   66.2961 N   0  0  0  0  0  0  0  0  0  0  0  0
   24.3057   44.6261   66.6320 O   0  0  0  0  0  0  0  0  0  0  0  0
   24.6362   42.5230   65.1807 O   0  0  0  0  0  0  0  0  0  0  0  0
   20.4786   41.5380   66.4858 C   0  0  2  0  0  0  0  0  0  0  0  0
   19.8757   42.5304   65.7829 C   0  0  2  0  0  0  0  0  0  0  0  0
   20.1341   44.0143   65.7967 C   0  0  0  0  0  0  0  0  0  0  0  0
   21.6222   44.2775   65.5549 C   0  0  0  0  0  0  0  0  0  0  0  0
   21.9488   45.5981   65.9923 O   0  0  0  0  0  0  0  0  0  0  0  0
  1 11  1  0  0  0  0
  3 13  1  1  0  0  0
  3 17  1  0  0  0  0
  3 20  1  0  0  0  0
  3 26  1  0  0  0  0
  4 14  1  0  0  0  0
  4 18  1  1  0  0  0
  4 21  2  0  0  0  0
  4 20  1  0  0  0  0
  5 19  1  0  0  0  0
  5  7  1  0  0  0  0
  6  7  2  0  0  0  0
  6 12  1  0  0  0  0
  7  8  1  0  0  0  0
  8  9  1  0  0  0  0
  8 10  2  0  0  0  0
 10 11  1  0  0  0  0
 11 12  2  0  0  0  0
 14 17  1  0  0  0  0
 15 23  1  0  0  0  0
 15 16  1  0  0  0  0
 16 19  1  0  0  0  0
 19 22  1  0  0  0  0
 22  2  1  6  0  0  0
 22 23  1  0  0  0  0
 23 24  1  1  0  0  0
 24 25  1  0  0  0  0
 25 26  1  0  0  0  0
M  CHG  1  18  -1
M  END
>  <CHROM.1>
110.28009881,-8.58168950,-127.43262289,-161.16845998,176.34731333,-177.36469718
22.79041039,42.22583769,65.87862506,-1.92253223,0.00112014,-0.12137431

>  <Name>
ligand

>  <RI>
0

>  <Rbt.Current_Directory>
/home/itssahil/PROJECTS/Mol_Feturizer/New_Systems/rnas/2HOL

>  <Rbt.Executable>
rbdock ($Id: //depot/dev/client3/rdock/2013.1/src/exe/rbdock.cxx#4 $)

>  <Rbt.Library>
libRbt.so (2013.1, Build901 2013/11/27)

>  <Rbt.Parameter_File>
/export/apps/rDock/src/rDock_2013.1_src/data/scripts/dock_solv.prm

>  <Rbt.Receptor>
prm/pocket_docking_6.prm

>  <SCORE>
-25.0087

>  <SCORE.INTER>
-23.6118

>  <SCORE.INTER.CONST>
1

>  <SCORE.INTER.POLAR>
0

>  <SCORE.INTER.ROT>
6

>  <SCORE.INTER.SOLV>
14.2024

>  <SCORE.INTER.VDW>
-28.0753

>  <SCORE.INTER.norm>
-0.908147

>  <SCORE.INTRA>
-1.40001

>  <SCORE.INTRA.DIHEDRAL>
-3.44199

>  <SCORE.INTRA.DIHEDRAL.0>
9.33621

>  <SCORE.INTRA.POLAR>
0

>  <SCORE.INTRA.POLAR.0>
0

>  <SCORE.INTRA.REPUL>
0

>  <SCORE.INTRA.REPUL.0>
0

>  <SCORE.INTRA.SOLV>
1.85878

>  <SCORE.INTRA.SOLV.lig_0>
-65.9238

>  <SCORE.INTRA.VDW>
-0.608399

>  <SCORE.INTRA.VDW.0>
-0.405582

>  <SCORE.INTRA.norm>
-0.0538464

>  <SCORE.RESTR>
0.00311678

>  <SCORE.RESTR.CAVITY>
0.00311678

>  <SCORE.RESTR.norm>
0.000119876

>  <SCORE.SYSTEM>
0

>  <SCORE.SYSTEM.CONST>
0

>  <SCORE.SYSTEM.DIHEDRAL>
0

>  <SCORE.SYSTEM.SOLV>
0

>  <SCORE.SYSTEM.norm>
0

>  <SCORE.heavy>
26

>  <SCORE.norm>
-0.961873

>  <RMSD>
6.480

$$$$
ligand
 OpenBabel11021811443D
libRbt.so/2013.1/901 2013/11/27
 26 28  0  0  0  0  0  0  0  0999 V2000
   27.4153   37.7695   65.1885 C   0  0  0  0  0  0  0  0  0  0  0  0
   20.1565   39.6147   65.3998 C   0  0  0  0  0  0  0  0  0  0  0  0
   22.8535   43.9389   65.3727 P   0  0  1  0  0  0  0  0  0  0  0  0
   24.9190   43.1835   66.7327 P   0  0  1  0  0  0  0  0  0  0  0  0
   22.0799   38.4305   67.0634 C   0  0  0  0  0  0  0  0  0  0  0  0
   24.5610   38.3045   67.4377 C   0  0  0  0  0  0  0  0  0  0  0  0
   23.4916   38.2554   66.5658 C   0  0  0  0  0  0  0  0  0  0  0  0
   23.7512   38.0392   65.2113 C   0  0  0  0  0  0  0  0  0  0  0  0
   22.7119   37.9820   64.2948 N   0  0  0  0  0  0  0  0  0  0  0  0
   25.0112   37.8946   64.8115 N   0  0  0  0  0  0  0  0  0  0  0  0
   26.0015   37.9437   65.6787 C   0  0  0  0  0  0  0  0  0  0  0  0
   25.7899   38.1466   66.9644 N   0  0  0  0  0  0  0  0  0  0  0  0
   23.0319   44.5943   64.0573 O   0  0  0  0  0  0  0  0  0  0  0  0
   24.6969   42.0815   65.6723 O   0  0  0  0  0  0  0  0  0  0  0  0
   21.7627   42.1363   67.9303 S   0  0  0  0  0  0  0  0  0  0  0  0
   22.4369   40.5478   68.1290 C   0  0  0  0  0  0  0  0  0  0  0  0
   22.9718   42.3441   65.1988 O   0  0  0  0  0  0  0  0  0  0  0  0
   26.4656   43.6289   66.7307 O   0  5  0  0  0  0  0  0  0  0  0  0
   21.7898   39.8576   67.2187 N   0  0  0  0  0  0  0  0  0  0  0  0
   23.9929   44.4546   66.3874 O   0  0  0  0  0  0  0  0  0  0  0  0
   24.5431   42.6364   68.1280 O   0  0  0  0  0  0  0  0  0  0  0  0
   20.8904   40.4207   66.4417 C   0  0  2  0  0  0  0  0  0  0  0  0
   20.6319   41.7433   66.6041 C   0  0  2  0  0  0  0  0  0  0  0  0
   19.6642   42.6328   65.8684 C   0  0  0  0  0  0  0  0  0  0  0  0
   20.4379   43.7065   65.0999 C   0  0  0  0  0  0  0  0  0  0  0  0
   21.4026   44.3087   65.9652 O   0  0  0  0  0  0  0  0  0  0  0  0
  1 11  1  0  0  0  0
  3 13  1  6  0  0  0
  3 17  1  0  0  0  0
  3 20  1  0  0  0  0
  3 26  1  0  0  0  0
  4 14  1  0  0  0  0
  4 18  1  6  0  0  0
  4 21  2  0  0  0  0
  4 20  1  0  0  0  0
  5 19  1  0  0  0  0
  5  7  1  0  0  0  0
  6  7  2  0  0  0  0
  6 12  1  0  0  0  0
  7  8  1  0  0  0  0
  8  9  1  0  0  0  0
  8 10  2  0  0  0  0
 10 11  1  0  0  0  0
 11 12  2  0  0  0  0
 14 17  1  0  0  0  0
 15 23  1  0  0  0  0
 15 16  1  0  0  0  0
 16 19  1  0  0  0  0
 19 22  1  0  0  0  0
 22  2  1  1  0  0  0
 22 23  1  0  0  0  0
 23 24  1  6  0  0  0
 24 25  1  0  0  0  0
 25 26  1  0  0  0  0
M  CHG  1  18  -1
M  END
>  <CHROM.1>
-66.00435424,81.52446790,64.18608614,-48.22516030,115.11089568,66.03721667
23.23035017,41.33586485,66.20445161,-1.15098309,0.00041750,0.00679719

>  <Name>
ligand

>  <RI>
0

>  <Rbt.Current_Directory>
/home/itssahil/PROJECTS/Mol_Feturizer/New_Systems/rnas/2HOL

>  <Rbt.Executable>
rbdock ($Id: //depot/dev/client3/rdock/2013.1/src/exe/rbdock.cxx#4 $)

>  <Rbt.Library>
libRbt.so (2013.1, Build901 2013/11/27)

>  <Rbt.Parameter_File>
/export/apps/rDock/src/rDock_2013.1_src/data/scripts/dock_solv.prm

>  <Rbt.Receptor>
prm/pocket_docking_5.prm

>  <SCORE>
-13.1417

>  <SCORE.INTER>
-12.4702

>  <SCORE.INTER.CONST>
1

>  <SCORE.INTER.POLAR>
0

>  <SCORE.INTER.ROT>
6

>  <SCORE.INTER.SOLV>
19.8919

>  <SCORE.INTER.VDW>
-22.5441

>  <SCORE.INTER.norm>
-0.479622

>  <SCORE.INTRA>
-0.691517

>  <SCORE.INTRA.DIHEDRAL>
3.46213

>  <SCORE.INTRA.DIHEDRAL.0>
9.33621

>  <SCORE.INTRA.POLAR>
0

>  <SCORE.INTRA.POLAR.0>
0

>  <SCORE.INTRA.REPUL>
0

>  <SCORE.INTRA.REPUL.0>
0

>  <SCORE.INTRA.SOLV>
3.31748

>  <SCORE.INTRA.SOLV.lig_0>
-65.9238

>  <SCORE.INTRA.VDW>
-4.08132

>  <SCORE.INTRA.VDW.0>
-0.405582

>  <SCORE.INTRA.norm>
-0.0265968

>  <SCORE.RESTR>
0.0200321

>  <SCORE.RESTR.CAVITY>
0.0200321

>  <SCORE.RESTR.norm>
0.000770464

>  <SCORE.SYSTEM>
0

>  <SCORE.SYSTEM.CONST>
0

>  <SCORE.SYSTEM.DIHEDRAL>
0

>  <SCORE.SYSTEM.SOLV>
0

>  <SCORE.SYSTEM.norm>
0

>  <SCORE.heavy>
26

>  <SCORE.norm>
-0.505449

>  <RMSD>
6.490

$$$$
ligand
 OpenBabel11021811443D
libRbt.so/2013.1/901 2013/11/27
 26 28  0  0  0  0  0  0  0  0999 V2000
   22.9125   46.2253   66.9488 C   0  0  0  0  0  0  0  0  0  0  0  0
   22.9493   37.8522   66.2073 C   0  0  0  0  0  0  0  0  0  0  0  0
   24.5777   34.9305   71.3968 P   0  0  1  0  0  0  0  0  0  0  0  0
   24.4802   35.2984   73.9545 P   0  0  1  0  0  0  0  0  0  0  0  0
   22.5438   40.6212   66.0126 C   0  0  0  0  0  0  0  0  0  0  0  0
   21.5074   42.8847   66.3502 C   0  0  0  0  0  0  0  0  0  0  0  0
   22.6429   42.1045   66.2604 C   0  0  0  0  0  0  0  0  0  0  0  0
   23.8852   42.7243   66.4053 C   0  0  0  0  0  0  0  0  0  0  0  0
   25.0557   41.9850   66.3229 N   0  0  0  0  0  0  0  0  0  0  0  0
   23.9302   44.0362   66.6178 N   0  0  0  0  0  0  0  0  0  0  0  0
   22.8213   44.7422   66.7012 C   0  0  0  0  0  0  0  0  0  0  0  0
   21.6325   44.1870   66.5687 N   0  0  0  0  0  0  0  0  0  0  0  0
   25.8508   35.1287   70.6678 O   0  0  0  0  0  0  0  0  0  0  0  0
   25.0867   33.8901   73.7625 O   0  0  0  0  0  0  0  0  0  0  0  0
   21.4584   39.4211   69.4720 S   0  0  0  0  0  0  0  0  0  0  0  0
   21.7003   40.6381   68.2563 C   0  0  0  0  0  0  0  0  0  0  0  0
   24.5709   33.4742   72.0802 O   0  0  0  0  0  0  0  0  0  0  0  0
   25.3869   36.1395   74.9844 O   0  5  0  0  0  0  0  0  0  0  0  0
   22.1953   39.9394   67.2610 N   0  0  0  0  0  0  0  0  0  0  0  0
   24.4310   36.0592   72.5362 O   0  0  0  0  0  0  0  0  0  0  0  0
   23.0476   35.1677   74.5187 O   0  0  0  0  0  0  0  0  0  0  0  0
   22.3811   38.6411   67.3600 C   0  0  2  0  0  0  0  0  0  0  0  0
   22.0565   38.0280   68.5267 C   0  0  2  0  0  0  0  0  0  0  0  0
   22.1663   36.5768   68.9150 C   0  0  0  0  0  0  0  0  0  0  0  0
   23.3283   36.3949   69.8941 C   0  0  0  0  0  0  0  0  0  0  0  0
   23.3449   35.0466   70.3672 O   0  0  0  0  0  0  0  0  0  0  0  0
  1 11  1  0  0  0  0
  3 13  1  6  0  0  0
  3 17  1  0  0  0  0
  3 20  1  0  0  0  0
  3 26  1  0  0  0  0
  4 14  1  0  0  0  0
  4 18  1  1  0  0  0
  4 21  2  0  0  0  0
  4 20  1  0  0  0  0
  5 19  1  0  0  0  0
  5  7  1  0  0  0  0
  6  7  2  0  0  0  0
  6 12  1  0  0  0  0
  7  8  1  0  0  0  0
  8  9  1  0  0  0  0
  8 10  2  0  0  0  0
 10 11  1  0  0  0  0
 11 12  2  0  0  0  0
 14 17  1  0  0  0  0
 15 23  1  0  0  0  0
 15 16  1  0  0  0  0
 16 19  1  0  0  0  0
 19 22  1  0  0  0  0
 22  2  1  1  0  0  0
 22 23  1  0  0  0  0
 23 24  1  6  0  0  0
 24 25  1  0  0  0  0
 25 26  1  0  0  0  0
M  CHG  1  18  -1
M  END
>  <CHROM.1>
17.06370174,-78.65260047,-73.51575680,174.06880434,-179.51642405,-65.39756405
23.39333192,38.44146991,69.63839407,-2.18919318,1.27125889,3.08004844

>  <Name>
ligand

>  <RI>
0

>  <Rbt.Current_Directory>
/home/itssahil/PROJECTS/Mol_Feturizer/New_Systems/rnas/2HOL

>  <Rbt.Executable>
rbdock ($Id: //depot/dev/client3/rdock/2013.1/src/exe/rbdock.cxx#4 $)

>  <Rbt.Library>
libRbt.so (2013.1, Build901 2013/11/27)

>  <Rbt.Parameter_File>
/export/apps/rDock/src/rDock_2013.1_src/data/scripts/dock_solv.prm

>  <Rbt.Receptor>
prm/pocket_docking_8.prm

>  <SCORE>
-17.2393

>  <SCORE.INTER>
-14.9303

>  <SCORE.INTER.CONST>
1

>  <SCORE.INTER.POLAR>
0

>  <SCORE.INTER.ROT>
6

>  <SCORE.INTER.SOLV>
11.0787

>  <SCORE.INTER.VDW>
-21.2465

>  <SCORE.INTER.norm>
-0.574244

>  <SCORE.INTRA>
-2.30977

>  <SCORE.INTRA.DIHEDRAL>
-4.06404

>  <SCORE.INTRA.DIHEDRAL.0>
9.33621

>  <SCORE.INTRA.POLAR>
0

>  <SCORE.INTRA.POLAR.0>
0

>  <SCORE.INTRA.REPUL>
0

>  <SCORE.INTRA.REPUL.0>
0

>  <SCORE.INTRA.SOLV>
-0.0237332

>  <SCORE.INTRA.SOLV.lig_0>
-65.9238

>  <SCORE.INTRA.VDW>
-0.265882

>  <SCORE.INTRA.VDW.0>
-0.405582

>  <SCORE.INTRA.norm>
-0.0888372

>  <SCORE.RESTR>
0.000824148

>  <SCORE.RESTR.CAVITY>
0.000824148

>  <SCORE.RESTR.norm>
3.1698e-05

>  <SCORE.SYSTEM>
0

>  <SCORE.SYSTEM.CONST>
0

>  <SCORE.SYSTEM.DIHEDRAL>
0

>  <SCORE.SYSTEM.SOLV>
0

>  <SCORE.SYSTEM.norm>
0

>  <SCORE.heavy>
26

>  <SCORE.norm>
-0.663049

>  <RMSD>
6.493

$$$$
ligand
 OpenBabel11021811443D
libRbt.so/2013.1/901 2013/11/27
 26 28  0  0  0  0  0  0  0  0999 V2000
   21.7668   36.3620   69.6199 C   0  0  0  0  0  0  0  0  0  0  0  0
   20.9030   43.4716   66.1669 C   0  0  0  0  0  0  0  0  0  0  0  0
   25.1776   46.6008   64.4868 P   0  0  1  0  0  0  0  0  0  0  0  0
   26.5762   45.5050   62.6080 P   0  0  1  0  0  0  0  0  0  0  0  0
   21.8308   40.8255   66.0855 C   0  0  0  0  0  0  0  0  0  0  0  0
   21.3904   39.7794   68.3268 C   0  0  0  0  0  0  0  0  0  0  0  0
   21.8144   39.6432   67.0200 C   0  0  0  0  0  0  0  0  0  0  0  0
   22.2273   38.3823   66.5859 C   0  0  0  0  0  0  0  0  0  0  0  0
   22.6626   38.1931   65.2828 N   0  0  0  0  0  0  0  0  0  0  0  0
   22.2027   37.3656   67.4427 N   0  0  0  0  0  0  0  0  0  0  0  0
   21.7859   37.5392   68.6801 C   0  0  0  0  0  0  0  0  0  0  0  0
   21.3898   38.7171   69.1211 N   0  0  0  0  0  0  0  0  0  0  0  0
   25.1525   48.0742   64.6284 O   0  0  0  0  0  0  0  0  0  0  0  0
   25.2708   45.9775   61.9292 O   0  0  0  0  0  0  0  0  0  0  0  0
   24.5277   43.0686   67.5957 S   0  0  0  0  0  0  0  0  0  0  0  0
   23.8993   41.5387   67.0645 C   0  0  0  0  0  0  0  0  0  0  0  0
   24.1474   46.1540   63.3350 O   0  0  0  0  0  0  0  0  0  0  0  0
   27.8414   45.9968   61.7432 O   0  5  0  0  0  0  0  0  0  0  0  0
   22.7045   41.8670   66.6303 N   0  0  0  0  0  0  0  0  0  0  0  0
   26.6647   46.1256   64.0912 O   0  0  0  0  0  0  0  0  0  0  0  0
   26.5805   43.9622   62.6942 O   0  0  0  0  0  0  0  0  0  0  0  0
   22.2775   43.1103   66.6708 C   0  0  2  0  0  0  0  0  0  0  0  0
   23.0999   44.0605   67.1838 C   0  0  2  0  0  0  0  0  0  0  0  0
   22.8736   45.5399   67.3545 C   0  0  0  0  0  0  0  0  0  0  0  0
   23.3909   46.2831   66.1208 C   0  0  0  0  0  0  0  0  0  0  0  0
   24.7520   45.9192   65.8823 O   0  0  0  0  0  0  0  0  0  0  0  0
  1 11  1  0  0  0  0
  3 13  1  1  0  0  0
  3 17  1  0  0  0  0
  3 20  1  0  0  0  0
  3 26  1  0  0  0  0
  4 14  1  0  0  0  0
  4 18  1  6  0  0  0
  4 21  2  0  0  0  0
  4 20  1  0  0  0  0
  5 19  1  0  0  0  0
  5  7  1  0  0  0  0
  6  7  2  0  0  0  0
  6 12  1  0  0  0  0
  7  8  1  0  0  0  0
  8  9  1  0  0  0  0
  8 10  2  0  0  0  0
 10 11  1  0  0  0  0
 11 12  2  0  0  0  0
 14 17  1  0  0  0  0
 15 23  1  0  0  0  0
 15 16  1  0  0  0  0
 16 19  1  0  0  0  0
 19 22  1  0  0  0  0
 22  2  1  1  0  0  0
 22 23  1  0  0  0  0
 23 24  1  6  0  0  0
 24 25  1  0  0  0  0
 25 26  1  0  0  0  0
M  CHG  1  18  -1
M  END
>  <CHROM.1>
47.65545416,59.54439625,87.73718169,-53.89813353,173.72376121,64.96496662
23.90441753,43.15176821,65.69422168,-2.30751420,0.92304436,0.09911938

>  <Name>
ligand

>  <RI>
0

>  <Rbt.Current_Directory>
/home/itssahil/PROJECTS/Mol_Feturizer/New_Systems/rnas/2HOL

>  <Rbt.Executable>
rbdock ($Id: //depot/dev/client3/rdock/2013.1/src/exe/rbdock.cxx#4 $)

>  <Rbt.Library>
libRbt.so (2013.1, Build901 2013/11/27)

>  <Rbt.Parameter_File>
/export/apps/rDock/src/rDock_2013.1_src/data/scripts/dock_solv.prm

>  <Rbt.Receptor>
prm/pocket_docking_8.prm

>  <SCORE>
-19.9322

>  <SCORE.INTER>
-16.0582

>  <SCORE.INTER.CONST>
1

>  <SCORE.INTER.POLAR>
0

>  <SCORE.INTER.ROT>
6

>  <SCORE.INTER.SOLV>
12.0027

>  <SCORE.INTER.VDW>
-22.3064

>  <SCORE.INTER.norm>
-0.617623

>  <SCORE.INTRA>
-3.87399

>  <SCORE.INTRA.DIHEDRAL>
-4.08444

>  <SCORE.INTRA.DIHEDRAL.0>
9.33621

>  <SCORE.INTRA.POLAR>
0

>  <SCORE.INTRA.POLAR.0>
0

>  <SCORE.INTRA.REPUL>
0

>  <SCORE.INTRA.REPUL.0>
0

>  <SCORE.INTRA.SOLV>
-0.564094

>  <SCORE.INTRA.SOLV.lig_0>
-65.9238

>  <SCORE.INTRA.VDW>
-1.54973

>  <SCORE.INTRA.VDW.0>
-0.405582

>  <SCORE.INTRA.norm>
-0.149

>  <SCORE.RESTR>
0

>  <SCORE.RESTR.CAVITY>
0

>  <SCORE.RESTR.norm>
0

>  <SCORE.SYSTEM>
0

>  <SCORE.SYSTEM.CONST>
0

>  <SCORE.SYSTEM.DIHEDRAL>
0

>  <SCORE.SYSTEM.SOLV>
0

>  <SCORE.SYSTEM.norm>
0

>  <SCORE.heavy>
26

>  <SCORE.norm>
-0.766623

>  <RMSD>
6.507

$$$$
ligand
 OpenBabel11021811443D
libRbt.so/2013.1/901 2013/11/27
 26 28  0  0  0  0  0  0  0  0999 V2000
   27.0345   42.8767   69.9904 C   0  0  0  0  0  0  0  0  0  0  0  0
   21.9795   40.7381   68.0415 C   0  0  0  0  0  0  0  0  0  0  0  0
   24.2157   36.4695   70.1285 P   0  0  1  0  0  0  0  0  0  0  0  0
   24.3720   34.9499   72.2149 P   0  0  1  0  0  0  0  0  0  0  0  0
   23.5176   41.3569   65.7785 C   0  0  0  0  0  0  0  0  0  0  0  0
   25.3096   40.8446   67.4631 C   0  0  0  0  0  0  0  0  0  0  0  0
   24.4479   41.7606   66.8933 C   0  0  0  0  0  0  0  0  0  0  0  0
   24.4604   43.0704   67.3759 C   0  0  0  0  0  0  0  0  0  0  0  0
   23.6138   44.0280   66.8377 N   0  0  0  0  0  0  0  0  0  0  0  0
   25.2926   43.3853   68.3642 N   0  0  0  0  0  0  0  0  0  0  0  0
   26.1017   42.4805   68.8758 C   0  0  0  0  0  0  0  0  0  0  0  0
   26.1142   41.2351   68.4426 N   0  0  0  0  0  0  0  0  0  0  0  0
   24.8990   37.7827   70.1157 O   0  0  0  0  0  0  0  0  0  0  0  0
   25.6961   34.7354   71.4475 O   0  0  0  0  0  0  0  0  0  0  0  0
   22.6887   37.6289   65.7673 S   0  0  0  0  0  0  0  0  0  0  0  0
   23.4209   39.0583   65.1054 C   0  0  0  0  0  0  0  0  0  0  0  0
   25.2756   35.3090   69.7852 O   0  0  0  0  0  0  0  0  0  0  0  0
   24.6890   35.2344   73.7670 O   0  5  0  0  0  0  0  0  0  0  0  0
   23.0810   39.9740   65.9828 N   0  0  0  0  0  0  0  0  0  0  0  0
   23.5858   36.2072   71.5873 O   0  0  0  0  0  0  0  0  0  0  0  0
   23.4969   33.6823   72.0927 O   0  0  0  0  0  0  0  0  0  0  0  0
   22.3607   39.6753   67.0420 C   0  0  2  0  0  0  0  0  0  0  0  0
   21.9614   38.3891   67.2114 C   0  0  2  0  0  0  0  0  0  0  0  0
   21.1381   37.7734   68.3121 C   0  0  0  0  0  0  0  0  0  0  0  0
   22.0491   37.3912   69.4809 C   0  0  0  0  0  0  0  0  0  0  0  0
   23.0390   36.4649   69.0293 O   0  0  0  0  0  0  0  0  0  0  0  0
  1 11  1  0  0  0  0
  3 13  1  6  0  0  0
  3 17  1  0  0  0  0
  3 20  1  0  0  0  0
  3 26  1  0  0  0  0
  4 14  1  0  0  0  0
  4 18  1  1  0  0  0
  4 21  2  0  0  0  0
  4 20  1  0  0  0  0
  5 19  1  0  0  0  0
  5  7  1  0  0  0  0
  6  7  2  0  0  0  0
  6 12  1  0  0  0  0
  7  8  1  0  0  0  0
  8  9  1  0  0  0  0
  8 10  2  0  0  0  0
 10 11  1  0  0  0  0
 11 12  2  0  0  0  0
 14 17  1  0  0  0  0
 15 23  1  0  0  0  0
 15 16  1  0  0  0  0
 16 19  1  0  0  0  0
 19 22  1  0  0  0  0
 22  2  1  6  0  0  0
 22 23  1  0  0  0  0
 23 24  1  1  0  0  0
 24 25  1  0  0  0  0
 25 26  1  0  0  0  0
M  CHG  1  18  -1
M  END
>  <CHROM.1>
-115.82560160,34.22509014,94.33058221,-59.11405053,162.19123961,-67.25744941
23.97662124,38.46650518,68.93944867,-1.57765500,0.87589782,2.55734557

>  <Name>
ligand

>  <RI>
0

>  <Rbt.Current_Directory>
/home/itssahil/PROJECTS/Mol_Feturizer/New_Systems/rnas/2HOL

>  <Rbt.Executable>
rbdock ($Id: //depot/dev/client3/rdock/2013.1/src/exe/rbdock.cxx#4 $)

>  <Rbt.Library>
libRbt.so (2013.1, Build901 2013/11/27)

>  <Rbt.Parameter_File>
/export/apps/rDock/src/rDock_2013.1_src/data/scripts/dock_solv.prm

>  <Rbt.Receptor>
prm/pocket_docking_7.prm

>  <SCORE>
-16.2366

>  <SCORE.INTER>
-13.8761

>  <SCORE.INTER.CONST>
1

>  <SCORE.INTER.POLAR>
0

>  <SCORE.INTER.ROT>
6

>  <SCORE.INTER.SOLV>
9.80103

>  <SCORE.INTER.VDW>
-20.1178

>  <SCORE.INTER.norm>
-0.533697

>  <SCORE.INTRA>
-2.36045

>  <SCORE.INTRA.DIHEDRAL>
-3.01275

>  <SCORE.INTRA.DIHEDRAL.0>
9.33621

>  <SCORE.INTRA.POLAR>
0

>  <SCORE.INTRA.POLAR.0>
0

>  <SCORE.INTRA.REPUL>
0

>  <SCORE.INTRA.REPUL.0>
0

>  <SCORE.INTRA.SOLV>
0.660044

>  <SCORE.INTRA.SOLV.lig_0>
-65.9238

>  <SCORE.INTRA.VDW>
-1.18409

>  <SCORE.INTRA.VDW.0>
-0.405582

>  <SCORE.INTRA.norm>
-0.0907864

>  <SCORE.RESTR>
0

>  <SCORE.RESTR.CAVITY>
0

>  <SCORE.RESTR.norm>
0

>  <SCORE.SYSTEM>
0

>  <SCORE.SYSTEM.CONST>
0

>  <SCORE.SYSTEM.DIHEDRAL>
0

>  <SCORE.SYSTEM.SOLV>
0

>  <SCORE.SYSTEM.norm>
0

>  <SCORE.heavy>
26

>  <SCORE.norm>
-0.624483

>  <RMSD>
6.532

$$$$
ligand
 OpenBabel11021811443D
libRbt.so/2013.1/901 2013/11/27
 26 28  0  0  0  0  0  0  0  0999 V2000
   22.6966   45.9728   67.3664 C   0  0  0  0  0  0  0  0  0  0  0  0
   20.6329   40.0202   66.4805 C   0  0  0  0  0  0  0  0  0  0  0  0
   22.8475   35.3576   70.8405 P   0  0  1  0  0  0  0  0  0  0  0  0
   24.1008   35.0555   73.0820 P   0  0  1  0  0  0  0  0  0  0  0  0
   22.9973   40.7363   65.1513 C   0  0  0  0  0  0  0  0  0  0  0  0
   21.7687   42.8767   65.6213 C   0  0  0  0  0  0  0  0  0  0  0  0
   22.9191   42.1223   65.7380 C   0  0  0  0  0  0  0  0  0  0  0  0
   24.0081   42.6757   66.4137 C   0  0  0  0  0  0  0  0  0  0  0  0
   25.1866   41.9589   66.5576 N   0  0  0  0  0  0  0  0  0  0  0  0
   23.9008   43.9036   66.9127 N   0  0  0  0  0  0  0  0  0  0  0  0
   22.7821   44.5868   66.7825 C   0  0  0  0  0  0  0  0  0  0  0  0
   21.7358   44.0928   66.1498 N   0  0  0  0  0  0  0  0  0  0  0  0
   22.7803   34.2393   69.8727 O   0  0  0  0  0  0  0  0  0  0  0  0
   22.7197   34.3938   73.2885 O   0  0  0  0  0  0  0  0  0  0  0  0
   23.7919   38.1511   67.8476 S   0  0  0  0  0  0  0  0  0  0  0  0
   24.2229   39.2286   66.5551 C   0  0  0  0  0  0  0  0  0  0  0  0
   21.7296   35.1510   71.9787 O   0  0  0  0  0  0  0  0  0  0  0  0
   25.2582   34.0508   73.5733 O   0  5  0  0  0  0  0  0  0  0  0  0
   23.0622   39.7507   66.2326 N   0  0  0  0  0  0  0  0  0  0  0  0
   24.3069   35.3909   71.5207 O   0  0  0  0  0  0  0  0  0  0  0  0
   24.1716   36.3626   73.9032 O   0  0  0  0  0  0  0  0  0  0  0  0
   21.9584   39.4106   66.8617 C   0  0  2  0  0  0  0  0  0  0  0  0
   22.0382   38.4919   67.8578 C   0  0  2  0  0  0  0  0  0  0  0  0
   20.9515   37.9215   68.7311 C   0  0  0  0  0  0  0  0  0  0  0  0
   21.4007   36.5700   69.2911 C   0  0  0  0  0  0  0  0  0  0  0  0
   22.5830   36.7487   70.0737 O   0  0  0  0  0  0  0  0  0  0  0  0
  1 11  1  0  0  0  0
  3 13  1  6  0  0  0
  3 17  1  0  0  0  0
  3 20  1  0  0  0  0
  3 26  1  0  0  0  0
  4 14  1  0  0  0  0
  4 18  1  1  0  0  0
  4 21  2  0  0  0  0
  4 20  1  0  0  0  0
  5 19  1  0  0  0  0
  5  7  1  0  0  0  0
  6  7  2  0  0  0  0
  6 12  1  0  0  0  0
  7  8  1  0  0  0  0
  8  9  1  0  0  0  0
  8 10  2  0  0  0  0
 10 11  1  0  0  0  0
 11 12  2  0  0  0  0
 14 17  1  0  0  0  0
 15 23  1  0  0  0  0
 15 16  1  0  0  0  0
 16 19  1  0  0  0  0
 19 22  1  0  0  0  0
 22  2  1  6  0  0  0
 22 23  1  0  0  0  0
 23 24  1  1  0  0  0
 24 25  1  0  0  0  0
 25 26  1  0  0  0  0
M  CHG  1  18  -1
M  END
>  <CHROM.1>
-100.71747650,-111.44808753,-22.69055569,60.45968381,170.06658053,49.47989066
23.03575849,38.51076788,69.05115763,-1.68615745,1.00102228,2.59109729

>  <Name>
ligand

>  <RI>
0

>  <Rbt.Current_Directory>
/home/itssahil/PROJECTS/Mol_Feturizer/New_Systems/rnas/2HOL

>  <Rbt.Executable>
rbdock ($Id: //depot/dev/client3/rdock/2013.1/src/exe/rbdock.cxx#4 $)

>  <Rbt.Library>
libRbt.so (2013.1, Build901 2013/11/27)

>  <Rbt.Parameter_File>
/export/apps/rDock/src/rDock_2013.1_src/data/scripts/dock_solv.prm

>  <Rbt.Receptor>
prm/pocket_docking_8.prm

>  <SCORE>
-15.9157

>  <SCORE.INTER>
-13.4062

>  <SCORE.INTER.CONST>
1

>  <SCORE.INTER.POLAR>
0

>  <SCORE.INTER.ROT>
6

>  <SCORE.INTER.SOLV>
12.7033

>  <SCORE.INTER.VDW>
-20.7719

>  <SCORE.INTER.norm>
-0.515623

>  <SCORE.INTRA>
-2.50954

>  <SCORE.INTRA.DIHEDRAL>
-3.94874

>  <SCORE.INTRA.DIHEDRAL.0>
9.33621

>  <SCORE.INTRA.POLAR>
0

>  <SCORE.INTRA.POLAR.0>
0

>  <SCORE.INTRA.REPUL>
0

>  <SCORE.INTRA.REPUL.0>
0

>  <SCORE.INTRA.SOLV>
1.05477

>  <SCORE.INTRA.SOLV.lig_0>
-65.9238

>  <SCORE.INTRA.VDW>
-1.06256

>  <SCORE.INTRA.VDW.0>
-0.405582

>  <SCORE.INTRA.norm>
-0.0965208

>  <SCORE.RESTR>
0

>  <SCORE.RESTR.CAVITY>
0

>  <SCORE.RESTR.norm>
0

>  <SCORE.SYSTEM>
0

>  <SCORE.SYSTEM.CONST>
0

>  <SCORE.SYSTEM.DIHEDRAL>
0

>  <SCORE.SYSTEM.SOLV>
0

>  <SCORE.SYSTEM.norm>
0

>  <SCORE.heavy>
26

>  <SCORE.norm>
-0.612144

>  <RMSD>
6.587

$$$$
ligand
 OpenBabel11021811443D
libRbt.so/2013.1/901 2013/11/27
 26 28  0  0  0  0  0  0  0  0999 V2000
   29.0163   43.9354   67.4665 C   0  0  0  0  0  0  0  0  0  0  0  0
   22.0334   40.3759   68.3422 C   0  0  0  0  0  0  0  0  0  0  0  0
   23.2904   35.1824   70.8182 P   0  0  1  0  0  0  0  0  0  0  0  0
   25.8438   35.5543   70.9866 P   0  0  1  0  0  0  0  0  0  0  0  0
   23.7164   41.9754   66.7678 C   0  0  0  0  0  0  0  0  0  0  0  0
   25.9509   41.9622   67.9161 C   0  0  0  0  0  0  0  0  0  0  0  0
   25.1190   42.4952   66.9517 C   0  0  0  0  0  0  0  0  0  0  0  0
   25.6102   43.5278   66.1509 C   0  0  0  0  0  0  0  0  0  0  0  0
   24.8141   44.0973   65.1683 N   0  0  0  0  0  0  0  0  0  0  0  0
   26.8516   43.9616   66.3480 N   0  0  0  0  0  0  0  0  0  0  0  0
   27.6131   43.4210   67.2769 C   0  0  0  0  0  0  0  0  0  0  0  0
   27.1791   42.4447   68.0499 N   0  0  0  0  0  0  0  0  0  0  0  0
   22.6740   33.9852   71.4332 O   0  0  0  0  0  0  0  0  0  0  0  0
   25.2682   36.0190   72.3434 O   0  0  0  0  0  0  0  0  0  0  0  0
   24.2550   38.3024   65.8709 S   0  0  0  0  0  0  0  0  0  0  0  0
   24.5720   40.0026   65.7086 C   0  0  0  0  0  0  0  0  0  0  0  0
   23.5275   36.3043   71.9464 O   0  0  0  0  0  0  0  0  0  0  0  0
   27.0892   34.5668   71.2398 O   0  5  0  0  0  0  0  0  0  0  0  0
   23.7528   40.5217   66.5937 N   0  0  0  0  0  0  0  0  0  0  0  0
   24.7023   34.7787   70.1571 O   0  0  0  0  0  0  0  0  0  0  0  0
   26.3186   36.7851   70.1820 O   0  0  0  0  0  0  0  0  0  0  0  0
   22.9679   39.7647   67.3289 C   0  0  2  0  0  0  0  0  0  0  0  0
   23.0126   38.4199   67.1495 C   0  0  2  0  0  0  0  0  0  0  0  0
   22.2344   37.3300   67.8389 C   0  0  0  0  0  0  0  0  0  0  0  0
   22.9753   36.8939   69.1050 C   0  0  0  0  0  0  0  0  0  0  0  0
   22.3133   35.7647   69.6783 O   0  0  0  0  0  0  0  0  0  0  0  0
  1 11  1  0  0  0  0
  3 13  1  1  0  0  0
  3 17  1  0  0  0  0
  3 20  1  0  0  0  0
  3 26  1  0  0  0  0
  4 14  1  0  0  0  0
  4 18  1  1  0  0  0
  4 21  2  0  0  0  0
  4 20  1  0  0  0  0
  5 19  1  0  0  0  0
  5  7  1  0  0  0  0
  6  7  2  0  0  0  0
  6 12  1  0  0  0  0
  7  8  1  0  0  0  0
  8  9  1  0  0  0  0
  8 10  2  0  0  0  0
 10 11  1  0  0  0  0
 11 12  2  0  0  0  0
 14 17  1  0  0  0  0
 15 23  1  0  0  0  0
 15 16  1  0  0  0  0
 16 19  1  0  0  0  0
 19 22  1  0  0  0  0
 22  2  1  6  0  0  0
 22 23  1  0  0  0  0
 23 24  1  1  0  0  0
 24 25  1  0  0  0  0
 25 26  1  0  0  0  0
M  CHG  1  18  -1
M  END
>  <CHROM.1>
-50.35503895,-53.06525204,91.78940174,-173.77288005,169.02335255,-178.68157287
24.67652367,38.63980831,68.64124295,-1.36250589,0.45779206,2.52827456

>  <Name>
ligand

>  <RI>
0

>  <Rbt.Current_Directory>
/home/itssahil/PROJECTS/Mol_Feturizer/New_Systems/rnas/2HOL

>  <Rbt.Executable>
rbdock ($Id: //depot/dev/client3/rdock/2013.1/src/exe/rbdock.cxx#4 $)

>  <Rbt.Library>
libRbt.so (2013.1, Build901 2013/11/27)

>  <Rbt.Parameter_File>
/export/apps/rDock/src/rDock_2013.1_src/data/scripts/dock_solv.prm

>  <Rbt.Receptor>
prm/pocket_docking_7.prm

>  <SCORE>
-13.107

>  <SCORE.INTER>
-9.6228

>  <SCORE.INTER.CONST>
1

>  <SCORE.INTER.POLAR>
0

>  <SCORE.INTER.ROT>
6

>  <SCORE.INTER.SOLV>
8.9029

>  <SCORE.INTER.VDW>
-16.9828

>  <SCORE.INTER.norm>
-0.370108

>  <SCORE.INTRA>
-3.48422

>  <SCORE.INTRA.DIHEDRAL>
-3.78671

>  <SCORE.INTRA.DIHEDRAL.0>
9.33621

>  <SCORE.INTRA.POLAR>
0

>  <SCORE.INTRA.POLAR.0>
0

>  <SCORE.INTRA.REPUL>
0

>  <SCORE.INTRA.REPUL.0>
0

>  <SCORE.INTRA.SOLV>
0.120413

>  <SCORE.INTRA.SOLV.lig_0>
-65.9238

>  <SCORE.INTRA.VDW>
-1.65107

>  <SCORE.INTRA.VDW.0>
-0.405582

>  <SCORE.INTRA.norm>
-0.134009

>  <SCORE.RESTR>
0

>  <SCORE.RESTR.CAVITY>
0

>  <SCORE.RESTR.norm>
0

>  <SCORE.SYSTEM>
0

>  <SCORE.SYSTEM.CONST>
0

>  <SCORE.SYSTEM.DIHEDRAL>
0

>  <SCORE.SYSTEM.SOLV>
0

>  <SCORE.SYSTEM.norm>
0

>  <SCORE.heavy>
26

>  <SCORE.norm>
-0.504116

>  <RMSD>
6.592

$$$$
ligand
 OpenBabel11021811443D
libRbt.so/2013.1/901 2013/11/27
 26 28  0  0  0  0  0  0  0  0999 V2000
   29.3320   44.0038   67.0970 C   0  0  0  0  0  0  0  0  0  0  0  0
   23.3998   40.7859   64.8092 C   0  0  0  0  0  0  0  0  0  0  0  0
   22.5481   37.4879   68.4695 P   0  0  1  0  0  0  0  0  0  0  0  0
   25.1072   37.8505   68.5482 P   0  0  1  0  0  0  0  0  0  0  0  0
   24.4189   43.3485   64.2951 C   0  0  0  0  0  0  0  0  0  0  0  0
   25.8803   43.0226   66.3124 C   0  0  0  0  0  0  0  0  0  0  0  0
   25.7199   43.5227   65.0356 C   0  0  0  0  0  0  0  0  0  0  0  0
   26.7935   44.1937   64.4476 C   0  0  0  0  0  0  0  0  0  0  0  0
   26.6830   44.7152   63.1673 N   0  0  0  0  0  0  0  0  0  0  0  0
   27.9230   44.3308   65.1360 N   0  0  0  0  0  0  0  0  0  0  0  0
   28.0345   43.8335   66.3507 C   0  0  0  0  0  0  0  0  0  0  0  0
   27.0392   43.1948   66.9342 N   0  0  0  0  0  0  0  0  0  0  0  0
   21.9868   36.1288   68.6405 O   0  0  0  0  0  0  0  0  0  0  0  0
   24.6578   37.7560   70.0238 O   0  0  0  0  0  0  0  0  0  0  0  0
   21.6066   43.5950   66.8671 S   0  0  0  0  0  0  0  0  0  0  0  0
   22.8465   44.2677   65.8535 C   0  0  0  0  0  0  0  0  0  0  0  0
   22.8890   38.1138   69.9117 O   0  0  0  0  0  0  0  0  0  0  0  0
   26.3680   36.8797   68.3061 O   0  5  0  0  0  0  0  0  0  0  0  0
   23.3249   43.2001   65.2574 N   0  0  0  0  0  0  0  0  0  0  0  0
   23.8935   37.4053   67.5883 O   0  0  0  0  0  0  0  0  0  0  0  0
   25.5104   39.3071   68.2268 O   0  0  0  0  0  0  0  0  0  0  0  0
   22.8406   42.0023   65.5030 C   0  0  2  0  0  0  0  0  0  0  0  0
   21.8301   41.8846   66.4017 C   0  0  2  0  0  0  0  0  0  0  0  0
   21.0983   40.6551   66.8724 C   0  0  0  0  0  0  0  0  0  0  0  0
   22.0811   39.7068   67.5628 C   0  0  0  0  0  0  0  0  0  0  0  0
   21.4734   38.4228   67.7184 O   0  0  0  0  0  0  0  0  0  0  0  0
  1 11  1  0  0  0  0
  3 13  1  1  0  0  0
  3 17  1  0  0  0  0
  3 20  1  0  0  0  0
  3 26  1  0  0  0  0
  4 14  1  0  0  0  0
  4 18  1  6  0  0  0
  4 21  2  0  0  0  0
  4 20  1  0  0  0  0
  5 19  1  0  0  0  0
  5  7  1  0  0  0  0
  6  7  2  0  0  0  0
  6 12  1  0  0  0  0
  7  8  1  0  0  0  0
  8  9  1  0  0  0  0
  8 10  2  0  0  0  0
 10 11  1  0  0  0  0
 11 12  2  0  0  0  0
 14 17  1  0  0  0  0
 15 23  1  0  0  0  0
 15 16  1  0  0  0  0
 16 19  1  0  0  0  0
 19 22  1  0  0  0  0
 22  2  1  1  0  0  0
 22 23  1  0  0  0  0
 23 24  1  6  0  0  0
 24 25  1  0  0  0  0
 25 26  1  0  0  0  0
M  CHG  1  18  -1
M  END
>  <CHROM.1>
78.39696900,25.78869548,-118.16522493,-166.11783000,-179.07291319,-178.97849654
24.23790496,40.78514521,66.98606309,-1.20018718,0.06262195,2.64116366

>  <Name>
ligand

>  <RI>
0

>  <Rbt.Current_Directory>
/home/itssahil/PROJECTS/Mol_Feturizer/New_Systems/rnas/2HOL

>  <Rbt.Executable>
rbdock ($Id: //depot/dev/client3/rdock/2013.1/src/exe/rbdock.cxx#4 $)

>  <Rbt.Library>
libRbt.so (2013.1, Build901 2013/11/27)

>  <Rbt.Parameter_File>
/export/apps/rDock/src/rDock_2013.1_src/data/scripts/dock_solv.prm

>  <Rbt.Receptor>
prm/pocket_docking_6.prm

>  <SCORE>
-10.8179

>  <SCORE.INTER>
-7.34978

>  <SCORE.INTER.CONST>
1

>  <SCORE.INTER.POLAR>
0

>  <SCORE.INTER.ROT>
6

>  <SCORE.INTER.SOLV>
12.3627

>  <SCORE.INTER.VDW>
-16.6207

>  <SCORE.INTER.norm>
-0.282684

>  <SCORE.INTRA>
-3.46808

>  <SCORE.INTRA.DIHEDRAL>
-4.06621

>  <SCORE.INTRA.DIHEDRAL.0>
9.33621

>  <SCORE.INTRA.POLAR>
0

>  <SCORE.INTRA.POLAR.0>
0

>  <SCORE.INTRA.REPUL>
0

>  <SCORE.INTRA.REPUL.0>
0

>  <SCORE.INTRA.SOLV>
0.339314

>  <SCORE.INTRA.SOLV.lig_0>
-65.9238

>  <SCORE.INTRA.VDW>
-1.60463

>  <SCORE.INTRA.VDW.0>
-0.405582

>  <SCORE.INTRA.norm>
-0.133388

>  <SCORE.RESTR>
0

>  <SCORE.RESTR.CAVITY>
0

>  <SCORE.RESTR.norm>
0

>  <SCORE.SYSTEM>
0

>  <SCORE.SYSTEM.CONST>
0

>  <SCORE.SYSTEM.DIHEDRAL>
0

>  <SCORE.SYSTEM.SOLV>
0

>  <SCORE.SYSTEM.norm>
0

>  <SCORE.heavy>
26

>  <SCORE.norm>
-0.416071

>  <RMSD>
6.601

$$$$
ligand
 OpenBabel11021811443D
libRbt.so/2013.1/901 2013/11/27
 26 28  0  0  0  0  0  0  0  0999 V2000
   24.2341   36.0722   71.3757 C   0  0  0  0  0  0  0  0  0  0  0  0
   27.1812   40.1157   66.4073 C   0  0  0  0  0  0  0  0  0  0  0  0
   29.3890   45.5987   64.9124 P   0  0  1  0  0  0  0  0  0  0  0  0
   27.3420   46.2346   63.4659 P   0  0  1  0  0  0  0  0  0  0  0  0
   24.4746   39.5369   66.8639 C   0  0  0  0  0  0  0  0  0  0  0  0
   25.5290   38.3821   68.8302 C   0  0  0  0  0  0  0  0  0  0  0  0
   24.4095   38.6196   68.0578 C   0  0  0  0  0  0  0  0  0  0  0  0
   23.2155   37.9885   68.4111 C   0  0  0  0  0  0  0  0  0  0  0  0
   22.0630   38.1937   67.6674 N   0  0  0  0  0  0  0  0  0  0  0  0
   23.2007   37.1825   69.4687 N   0  0  0  0  0  0  0  0  0  0  0  0
   24.2915   36.9879   70.1809 C   0  0  0  0  0  0  0  0  0  0  0  0
   25.4349   37.5686   69.8735 N   0  0  0  0  0  0  0  0  0  0  0  0
   30.7546   45.9418   64.4550 O   0  0  0  0  0  0  0  0  0  0  0  0
   27.7332   47.5263   64.2188 O   0  0  0  0  0  0  0  0  0  0  0  0
   25.2532   43.0501   68.1434 S   0  0  0  0  0  0  0  0  0  0  0  0
   24.1957   41.7032   67.8516 C   0  0  0  0  0  0  0  0  0  0  0  0
   28.7124   46.8872   65.5979 O   0  0  0  0  0  0  0  0  0  0  0  0
   27.1539   46.5595   61.9009 O   0  5  0  0  0  0  0  0  0  0  0  0
   25.0007   40.8399   67.2768 N   0  0  0  0  0  0  0  0  0  0  0  0
   28.5023   45.1336   63.6510 O   0  0  0  0  0  0  0  0  0  0  0  0
   26.0163   45.6872   64.0406 O   0  0  0  0  0  0  0  0  0  0  0  0
   26.2689   41.1185   67.0675 C   0  0  2  0  0  0  0  0  0  0  0  0
   26.7367   42.3331   67.4527 C   0  0  2  0  0  0  0  0  0  0  0  0
   28.1217   42.9134   67.3345 C   0  0  0  0  0  0  0  0  0  0  0  0
   28.1196   44.0365   66.2949 C   0  0  0  0  0  0  0  0  0  0  0  0
   29.4664   44.3986   65.9833 O   0  0  0  0  0  0  0  0  0  0  0  0
  1 11  1  0  0  0  0
  3 13  1  6  0  0  0
  3 17  1  0  0  0  0
  3 20  1  0  0  0  0
  3 26  1  0  0  0  0
  4 14  1  0  0  0  0
  4 18  1  6  0  0  0
  4 21  2  0  0  0  0
  4 20  1  0  0  0  0
  5 19  1  0  0  0  0
  5  7  1  0  0  0  0
  6  7  2  0  0  0  0
  6 12  1  0  0  0  0
  7  8  1  0  0  0  0
  8  9  1  0  0  0  0
  8 10  2  0  0  0  0
 10 11  1  0  0  0  0
 11 12  2  0  0  0  0
 14 17  1  0  0  0  0
 15 23  1  0  0  0  0
 15 16  1  0  0  0  0
 16 19  1  0  0  0  0
 19 22  1  0  0  0  0
 22  2  1  6  0  0  0
 22 23  1  0  0  0  0
 23 24  1  1  0  0  0
 24 25  1  0  0  0  0
 25 26  1  0  0  0  0
M  CHG  1  18  -1
M  END
>  <CHROM.1>
-80.48872769,-54.74112982,-70.06903097,-168.22747902,-178.87496412,-175.00193217
26.49906582,42.51191128,66.52238674,-2.01285323,-0.30769630,-0.68897510

>  <Name>
ligand

>  <RI>
0

>  <Rbt.Current_Directory>
/home/itssahil/PROJECTS/Mol_Feturizer/New_Systems/rnas/2HOL

>  <Rbt.Executable>
rbdock ($Id: //depot/dev/client3/rdock/2013.1/src/exe/rbdock.cxx#4 $)

>  <Rbt.Library>
libRbt.so (2013.1, Build901 2013/11/27)

>  <Rbt.Parameter_File>
/export/apps/rDock/src/rDock_2013.1_src/data/scripts/dock_solv.prm

>  <Rbt.Receptor>
prm/pocket_docking_8.prm

>  <SCORE>
-11.0007

>  <SCORE.INTER>
-7.2401

>  <SCORE.INTER.CONST>
1

>  <SCORE.INTER.POLAR>
0

>  <SCORE.INTER.ROT>
6

>  <SCORE.INTER.SOLV>
7.28435

>  <SCORE.INTER.VDW>
-14.8548

>  <SCORE.INTER.norm>
-0.278465

>  <SCORE.INTRA>
-3.76056

>  <SCORE.INTRA.DIHEDRAL>
-3.66164

>  <SCORE.INTRA.DIHEDRAL.0>
9.33621

>  <SCORE.INTRA.POLAR>
0

>  <SCORE.INTRA.POLAR.0>
0

>  <SCORE.INTRA.REPUL>
0

>  <SCORE.INTRA.REPUL.0>
0

>  <SCORE.INTRA.SOLV>
0.12222

>  <SCORE.INTRA.SOLV.lig_0>
-65.9238

>  <SCORE.INTRA.VDW>
-1.99085

>  <SCORE.INTRA.VDW.0>
-0.405582

>  <SCORE.INTRA.norm>
-0.144637

>  <SCORE.RESTR>
0

>  <SCORE.RESTR.CAVITY>
0

>  <SCORE.RESTR.norm>
0

>  <SCORE.SYSTEM>
0

>  <SCORE.SYSTEM.CONST>
0

>  <SCORE.SYSTEM.DIHEDRAL>
0

>  <SCORE.SYSTEM.SOLV>
0

>  <SCORE.SYSTEM.norm>
0

>  <SCORE.heavy>
26

>  <SCORE.norm>
-0.423102

>  <RMSD>
6.605

$$$$
ligand
 OpenBabel11021811443D
libRbt.so/2013.1/901 2013/11/27
 26 28  0  0  0  0  0  0  0  0999 V2000
   22.0416   44.0658   67.0797 C   0  0  0  0  0  0  0  0  0  0  0  0
   21.1287   36.9697   69.2729 C   0  0  0  0  0  0  0  0  0  0  0  0
   26.1706   34.9414   73.5586 P   0  0  1  0  0  0  0  0  0  0  0  0
   26.5212   35.6825   76.0111 P   0  0  1  0  0  0  0  0  0  0  0  0
   21.9753   38.3730   66.9962 C   0  0  0  0  0  0  0  0  0  0  0  0
   22.9540   40.5676   67.7296 C   0  0  0  0  0  0  0  0  0  0  0  0
   21.9916   39.8799   67.0175 C   0  0  0  0  0  0  0  0  0  0  0  0
   21.0341   40.6158   66.3173 C   0  0  0  0  0  0  0  0  0  0  0  0
   20.0460   39.9725   65.5871 N   0  0  0  0  0  0  0  0  0  0  0  0
   21.0799   41.9439   66.3654 N   0  0  0  0  0  0  0  0  0  0  0  0
   22.0190   42.5597   67.0538 C   0  0  0  0  0  0  0  0  0  0  0  0
   22.9375   41.8938   67.7261 N   0  0  0  0  0  0  0  0  0  0  0  0
   27.2706   35.0816   72.5779 O   0  0  0  0  0  0  0  0  0  0  0  0
   27.1780   34.2879   75.9030 O   0  0  0  0  0  0  0  0  0  0  0  0
   25.0244   37.2948   69.0274 S   0  0  0  0  0  0  0  0  0  0  0  0
   24.2534   38.0708   67.6780 C   0  0  0  0  0  0  0  0  0  0  0  0
   26.3909   33.6045   74.4257 O   0  0  0  0  0  0  0  0  0  0  0  0
   27.5419   36.7050   76.7205 O   0  5  0  0  0  0  0  0  0  0  0  0
   22.9819   37.8602   67.9282 N   0  0  0  0  0  0  0  0  0  0  0  0
   26.1587   36.2204   74.5373 O   0  0  0  0  0  0  0  0  0  0  0  0
   25.2298   35.5778   76.8531 O   0  0  0  0  0  0  0  0  0  0  0  0
   22.5932   37.2024   68.9987 C   0  0  2  0  0  0  0  0  0  0  0  0
   23.5411   36.7306   69.8480 C   0  0  2  0  0  0  0  0  0  0  0  0
   23.3857   35.9518   71.1279 C   0  0  0  0  0  0  0  0  0  0  0  0
   24.7011   35.9828   71.9095 C   0  0  0  0  0  0  0  0  0  0  0  0
   24.7641   34.8511   72.7797 O   0  0  0  0  0  0  0  0  0  0  0  0
  1 11  1  0  0  0  0
  3 13  1  6  0  0  0
  3 17  1  0  0  0  0
  3 20  1  0  0  0  0
  3 26  1  0  0  0  0
  4 14  1  0  0  0  0
  4 18  1  1  0  0  0
  4 21  2  0  0  0  0
  4 20  1  0  0  0  0
  5 19  1  0  0  0  0
  5  7  1  0  0  0  0
  6  7  2  0  0  0  0
  6 12  1  0  0  0  0
  7  8  1  0  0  0  0
  8  9  1  0  0  0  0
  8 10  2  0  0  0  0
 10 11  1  0  0  0  0
 11 12  2  0  0  0  0
 14 17  1  0  0  0  0
 15 23  1  0  0  0  0
 15 16  1  0  0  0  0
 16 19  1  0  0  0  0
 19 22  1  0  0  0  0
 22  2  1  6  0  0  0
 22 23  1  0  0  0  0
 23 24  1  1  0  0  0
 24 25  1  0  0  0  0
 25 26  1  0  0  0  0
M  CHG  1  18  -1
M  END
>  <CHROM.1>
-66.26966134,6.52752972,15.15087752,-155.87590273,179.60622374,-53.08663741
24.24390902,37.45278593,70.94095667,-2.71509248,1.08982631,-3.02381396

>  <Name>
ligand

>  <RI>
0

>  <Rbt.Current_Directory>
/home/itssahil/PROJECTS/Mol_Feturizer/New_Systems/rnas/2HOL

>  <Rbt.Executable>
rbdock ($Id: //depot/dev/client3/rdock/2013.1/src/exe/rbdock.cxx#4 $)

>  <Rbt.Library>
libRbt.so (2013.1, Build901 2013/11/27)

>  <Rbt.Parameter_File>
/export/apps/rDock/src/rDock_2013.1_src/data/scripts/dock_solv.prm

>  <Rbt.Receptor>
prm/blind_docking_100.prm

>  <SCORE>
-15.5117

>  <SCORE.INTER>
-13.6967

>  <SCORE.INTER.CONST>
1

>  <SCORE.INTER.POLAR>
0

>  <SCORE.INTER.ROT>
6

>  <SCORE.INTER.SOLV>
11.8198

>  <SCORE.INTER.VDW>
-20.6711

>  <SCORE.INTER.norm>
-0.526798

>  <SCORE.INTRA>
-1.81497

>  <SCORE.INTRA.DIHEDRAL>
-2.67858

>  <SCORE.INTRA.DIHEDRAL.0>
9.33621

>  <SCORE.INTRA.POLAR>
0

>  <SCORE.INTRA.POLAR.0>
0

>  <SCORE.INTRA.REPUL>
0

>  <SCORE.INTRA.REPUL.0>
0

>  <SCORE.INTRA.SOLV>
-0.533372

>  <SCORE.INTRA.SOLV.lig_0>
-65.9238

>  <SCORE.INTRA.VDW>
-0.208989

>  <SCORE.INTRA.VDW.0>
-0.405582

>  <SCORE.INTRA.norm>
-0.0698064

>  <SCORE.RESTR>
0

>  <SCORE.RESTR.CAVITY>
0

>  <SCORE.RESTR.norm>
0

>  <SCORE.SYSTEM>
0

>  <SCORE.SYSTEM.CONST>
0

>  <SCORE.SYSTEM.DIHEDRAL>
0

>  <SCORE.SYSTEM.SOLV>
0

>  <SCORE.SYSTEM.norm>
0

>  <SCORE.heavy>
26

>  <SCORE.norm>
-0.596604

>  <RMSD>
6.651

$$$$
ligand
 OpenBabel11021811443D
libRbt.so/2013.1/901 2013/11/27
 26 28  0  0  0  0  0  0  0  0999 V2000
   26.3303   38.2123   65.1747 C   0  0  0  0  0  0  0  0  0  0  0  0
   21.7913   41.6686   67.6864 C   0  0  0  0  0  0  0  0  0  0  0  0
   23.4703   45.8113   66.1192 P   0  0  1  0  0  0  0  0  0  0  0  0
   25.3527   45.5647   64.3634 P   0  0  1  0  0  0  0  0  0  0  0  0
   21.0867   38.9880   67.2535 C   0  0  0  0  0  0  0  0  0  0  0  0
   23.5887   39.0416   67.4743 C   0  0  0  0  0  0  0  0  0  0  0  0
   22.4740   38.7823   66.7020 C   0  0  0  0  0  0  0  0  0  0  0  0
   22.6647   38.3244   65.3971 C   0  0  0  0  0  0  0  0  0  0  0  0
   21.5778   38.0500   64.5806 N   0  0  0  0  0  0  0  0  0  0  0  0
   23.9049   38.1606   64.9462 N   0  0  0  0  0  0  0  0  0  0  0  0
   24.9404   38.4156   65.7192 C   0  0  0  0  0  0  0  0  0  0  0  0
   24.7943   38.8495   66.9559 N   0  0  0  0  0  0  0  0  0  0  0  0
   23.7861   45.7149   67.5623 O   0  0  0  0  0  0  0  0  0  0  0  0
   25.4545   47.0187   64.8769 O   0  0  0  0  0  0  0  0  0  0  0  0
   18.9892   41.2325   64.9845 S   0  0  0  0  0  0  0  0  0  0  0  0
   19.4821   39.6918   65.6177 C   0  0  0  0  0  0  0  0  0  0  0  0
   23.8159   47.2910   65.5912 O   0  0  0  0  0  0  0  0  0  0  0  0
   26.8087   44.8796   64.3943 O   0  5  0  0  0  0  0  0  0  0  0  0
   20.4057   40.0332   66.4862 N   0  0  0  0  0  0  0  0  0  0  0  0
   24.3465   44.7324   65.3055 O   0  0  0  0  0  0  0  0  0  0  0  0
   24.8166   45.5685   62.9142 O   0  0  0  0  0  0  0  0  0  0  0  0
   20.7293   41.2925   66.6842 C   0  0  2  0  0  0  0  0  0  0  0  0
   20.0904   42.2463   65.9599 C   0  0  2  0  0  0  0  0  0  0  0  0
   20.2598   43.7430   65.9767 C   0  0  0  0  0  0  0  0  0  0  0  0
   21.7490   44.0908   65.9185 C   0  0  0  0  0  0  0  0  0  0  0  0
   21.9049   45.5109   65.8901 O   0  0  0  0  0  0  0  0  0  0  0  0
  1 11  1  0  0  0  0
  3 13  1  1  0  0  0
  3 17  1  0  0  0  0
  3 20  1  0  0  0  0
  3 26  1  0  0  0  0
  4 14  1  0  0  0  0
  4 18  1  1  0  0  0
  4 21  2  0  0  0  0
  4 20  1  0  0  0  0
  5 19  1  0  0  0  0
  5  7  1  0  0  0  0
  6  7  2  0  0  0  0
  6 12  1  0  0  0  0
  7  8  1  0  0  0  0
  8  9  1  0  0  0  0
  8 10  2  0  0  0  0
 10 11  1  0  0  0  0
 11 12  2  0  0  0  0
 14 17  1  0  0  0  0
 15 23  1  0  0  0  0
 15 16  1  0  0  0  0
 16 19  1  0  0  0  0
 19 22  1  0  0  0  0
 22  2  1  6  0  0  0
 22 23  1  0  0  0  0
 23 24  1  1  0  0  0
 24 25  1  0  0  0  0
 25 26  1  0  0  0  0
M  CHG  1  18  -1
M  END
>  <CHROM.1>
104.57886060,116.67817110,-132.97430544,178.10773878,169.19852389,-79.97333472
22.91383581,42.49127693,65.68031230,-1.92552847,0.15764950,-0.06138237

>  <Name>
ligand

>  <RI>
0

>  <Rbt.Current_Directory>
/home/itssahil/PROJECTS/Mol_Feturizer/New_Systems/rnas/2HOL

>  <Rbt.Executable>
rbdock ($Id: //depot/dev/client3/rdock/2013.1/src/exe/rbdock.cxx#4 $)

>  <Rbt.Library>
libRbt.so (2013.1, Build901 2013/11/27)

>  <Rbt.Parameter_File>
/export/apps/rDock/src/rDock_2013.1_src/data/scripts/dock_solv.prm

>  <Rbt.Receptor>
prm/blind_docking_100.prm

>  <SCORE>
-23.6186

>  <SCORE.INTER>
-23.1891

>  <SCORE.INTER.CONST>
1

>  <SCORE.INTER.POLAR>
0

>  <SCORE.INTER.ROT>
6

>  <SCORE.INTER.SOLV>
20.2006

>  <SCORE.INTER.VDW>
-29.7929

>  <SCORE.INTER.norm>
-0.891889

>  <SCORE.INTRA>
-0.437914

>  <SCORE.INTRA.DIHEDRAL>
-3.53742

>  <SCORE.INTRA.DIHEDRAL.0>
9.33621

>  <SCORE.INTRA.POLAR>
0

>  <SCORE.INTRA.POLAR.0>
0

>  <SCORE.INTRA.REPUL>
0

>  <SCORE.INTRA.REPUL.0>
0

>  <SCORE.INTRA.SOLV>
1.66671

>  <SCORE.INTRA.SOLV.lig_0>
-65.9238

>  <SCORE.INTRA.VDW>
0.497443

>  <SCORE.INTRA.VDW.0>
-0.405582

>  <SCORE.INTRA.norm>
-0.0168428

>  <SCORE.RESTR>
0.0083952

>  <SCORE.RESTR.CAVITY>
0.0083952

>  <SCORE.RESTR.norm>
0.000322892

>  <SCORE.SYSTEM>
0

>  <SCORE.SYSTEM.CONST>
0

>  <SCORE.SYSTEM.DIHEDRAL>
0

>  <SCORE.SYSTEM.SOLV>
0

>  <SCORE.SYSTEM.norm>
0

>  <SCORE.heavy>
26

>  <SCORE.norm>
-0.908409

>  <RMSD>
6.659

$$$$
ligand
 OpenBabel11021811443D
libRbt.so/2013.1/901 2013/11/27
 26 28  0  0  0  0  0  0  0  0999 V2000
   23.5981   45.0903   67.3278 C   0  0  0  0  0  0  0  0  0  0  0  0
   22.2940   38.2845   66.0668 C   0  0  0  0  0  0  0  0  0  0  0  0
   23.1175   34.5087   71.4753 P   0  0  1  0  0  0  0  0  0  0  0  0
   25.2762   34.5551   72.8983 P   0  0  1  0  0  0  0  0  0  0  0  0
   24.7441   39.6504   66.0976 C   0  0  0  0  0  0  0  0  0  0  0  0
   23.2316   41.4520   66.9798 C   0  0  0  0  0  0  0  0  0  0  0  0
   24.4421   41.0907   66.4226 C   0  0  0  0  0  0  0  0  0  0  0  0
   25.3794   42.0934   66.1683 C   0  0  0  0  0  0  0  0  0  0  0  0
   26.6099   41.7825   65.6091 N   0  0  0  0  0  0  0  0  0  0  0  0
   25.0727   43.3528   66.4649 N   0  0  0  0  0  0  0  0  0  0  0  0
   23.9070   43.6527   67.0001 C   0  0  0  0  0  0  0  0  0  0  0  0
   23.0001   42.7292   67.2525 N   0  0  0  0  0  0  0  0  0  0  0  0
   22.0568   33.5191   71.7705 O   0  0  0  0  0  0  0  0  0  0  0  0
   24.2139   35.3036   73.7346 O   0  0  0  0  0  0  0  0  0  0  0  0
   24.3775   37.6317   69.3188 S   0  0  0  0  0  0  0  0  0  0  0  0
   25.2211   38.7112   68.2509 C   0  0  0  0  0  0  0  0  0  0  0  0
   22.9867   35.7539   72.4854 O   0  0  0  0  0  0  0  0  0  0  0  0
   26.0149   33.4619   73.8199 O   0  5  0  0  0  0  0  0  0  0  0  0
   24.3881   38.8065   67.2404 N   0  0  0  0  0  0  0  0  0  0  0  0
   24.5609   33.8181   71.6582 O   0  0  0  0  0  0  0  0  0  0  0  0
   26.3162   35.5664   72.3660 O   0  0  0  0  0  0  0  0  0  0  0  0
   23.2406   38.1638   67.2344 C   0  0  2  0  0  0  0  0  0  0  0  0
   22.9308   37.3827   68.3004 C   0  0  2  0  0  0  0  0  0  0  0  0
   21.7066   36.5431   68.5555 C   0  0  0  0  0  0  0  0  0  0  0  0
   21.8162   35.8823   69.9316 C   0  0  0  0  0  0  0  0  0  0  0  0
   22.9614   35.0280   69.9591 O   0  0  0  0  0  0  0  0  0  0  0  0
  1 11  1  0  0  0  0
  3 13  1  1  0  0  0
  3 17  1  0  0  0  0
  3 20  1  0  0  0  0
  3 26  1  0  0  0  0
  4 14  1  0  0  0  0
  4 18  1  1  0  0  0
  4 21  2  0  0  0  0
  4 20  1  0  0  0  0
  5 19  1  0  0  0  0
  5  7  1  0  0  0  0
  6  7  2  0  0  0  0
  6 12  1  0  0  0  0
  7  8  1  0  0  0  0
  8  9  1  0  0  0  0
  8 10  2  0  0  0  0
 10 11  1  0  0  0  0
 11 12  2  0  0  0  0
 14 17  1  0  0  0  0
 15 23  1  0  0  0  0
 15 16  1  0  0  0  0
 16 19  1  0  0  0  0
 19 22  1  0  0  0  0
 22  2  1  6  0  0  0
 22 23  1  0  0  0  0
 23 24  1  1  0  0  0
 24 25  1  0  0  0  0
 25 26  1  0  0  0  0
M  CHG  1  18  -1
M  END
>  <CHROM.1>
-80.73796781,-47.34829441,1.60480183,-61.33308491,173.32923792,72.78553816
24.01256779,37.72432330,69.44283607,-1.55381629,0.62545382,2.49081005

>  <Name>
ligand

>  <RI>
0

>  <Rbt.Current_Directory>
/home/itssahil/PROJECTS/Mol_Feturizer/New_Systems/rnas/2HOL

>  <Rbt.Executable>
rbdock ($Id: //depot/dev/client3/rdock/2013.1/src/exe/rbdock.cxx#4 $)

>  <Rbt.Library>
libRbt.so (2013.1, Build901 2013/11/27)

>  <Rbt.Parameter_File>
/export/apps/rDock/src/rDock_2013.1_src/data/scripts/dock_solv.prm

>  <Rbt.Receptor>
prm/pocket_docking_8.prm

>  <SCORE>
-15.5155

>  <SCORE.INTER>
-11.4296

>  <SCORE.INTER.CONST>
1

>  <SCORE.INTER.POLAR>
0

>  <SCORE.INTER.ROT>
6

>  <SCORE.INTER.SOLV>
7.12229

>  <SCORE.INTER.VDW>
-17.5938

>  <SCORE.INTER.norm>
-0.439599

>  <SCORE.INTRA>
-4.0859

>  <SCORE.INTRA.DIHEDRAL>
-4.29761

>  <SCORE.INTRA.DIHEDRAL.0>
9.33621

>  <SCORE.INTRA.POLAR>
0

>  <SCORE.INTRA.POLAR.0>
0

>  <SCORE.INTRA.REPUL>
0

>  <SCORE.INTRA.REPUL.0>
0

>  <SCORE.INTRA.SOLV>
-0.589131

>  <SCORE.INTRA.SOLV.lig_0>
-65.9238

>  <SCORE.INTRA.VDW>
-1.64253

>  <SCORE.INTRA.VDW.0>
-0.405582

>  <SCORE.INTRA.norm>
-0.15715

>  <SCORE.RESTR>
0

>  <SCORE.RESTR.CAVITY>
0

>  <SCORE.RESTR.norm>
0

>  <SCORE.SYSTEM>
0

>  <SCORE.SYSTEM.CONST>
0

>  <SCORE.SYSTEM.DIHEDRAL>
0

>  <SCORE.SYSTEM.SOLV>
0

>  <SCORE.SYSTEM.norm>
0

>  <SCORE.heavy>
26

>  <SCORE.norm>
-0.596749

>  <RMSD>
6.662

$$$$
ligand
 OpenBabel11021811443D
libRbt.so/2013.1/901 2013/11/27
 26 28  0  0  0  0  0  0  0  0999 V2000
   23.6356   45.0488   67.2479 C   0  0  0  0  0  0  0  0  0  0  0  0
   22.4041   38.2305   66.0990 C   0  0  0  0  0  0  0  0  0  0  0  0
   23.1156   34.4733   71.4932 P   0  0  1  0  0  0  0  0  0  0  0  0
   25.2870   34.5556   72.8949 P   0  0  1  0  0  0  0  0  0  0  0  0
   24.8571   39.5880   66.1966 C   0  0  0  0  0  0  0  0  0  0  0  0
   23.3070   41.3996   66.9882 C   0  0  0  0  0  0  0  0  0  0  0  0
   24.5351   41.0338   66.4743 C   0  0  0  0  0  0  0  0  0  0  0  0
   25.4713   42.0373   66.2188 C   0  0  0  0  0  0  0  0  0  0  0  0
   26.7192   41.7220   65.7021 N   0  0  0  0  0  0  0  0  0  0  0  0
   25.1468   43.3015   66.4728 N   0  0  0  0  0  0  0  0  0  0  0  0
   23.9646   43.6057   66.9677 C   0  0  0  0  0  0  0  0  0  0  0  0
   23.0582   42.6817   67.2199 N   0  0  0  0  0  0  0  0  0  0  0  0
   22.0693   33.4738   71.8061 O   0  0  0  0  0  0  0  0  0  0  0  0
   24.2242   35.2982   73.7357 O   0  0  0  0  0  0  0  0  0  0  0  0
   24.3581   37.6366   69.4414 S   0  0  0  0  0  0  0  0  0  0  0  0
   25.2469   38.6912   68.3852 C   0  0  0  0  0  0  0  0  0  0  0  0
   22.9800   35.7247   72.4949 O   0  0  0  0  0  0  0  0  0  0  0  0
   26.0472   33.4781   73.8177 O   0  5  0  0  0  0  0  0  0  0  0  0
   24.4538   38.7688   67.3417 N   0  0  0  0  0  0  0  0  0  0  0  0
   24.5685   33.8008   71.6674 O   0  0  0  0  0  0  0  0  0  0  0  0
   26.3101   35.5746   72.3449 O   0  0  0  0  0  0  0  0  0  0  0  0
   23.3046   38.1302   67.3044 C   0  0  2  0  0  0  0  0  0  0  0  0
   22.9506   37.3721   68.3732 C   0  0  2  0  0  0  0  0  0  0  0  0
   21.7139   36.5422   68.5980 C   0  0  0  0  0  0  0  0  0  0  0  0
   21.8037   35.8467   69.9582 C   0  0  0  0  0  0  0  0  0  0  0  0
   22.9391   34.9790   69.9746 O   0  0  0  0  0  0  0  0  0  0  0  0
  1 11  1  0  0  0  0
  3 13  1  1  0  0  0
  3 17  1  0  0  0  0
  3 20  1  0  0  0  0
  3 26  1  0  0  0  0
  4 14  1  0  0  0  0
  4 18  1  1  0  0  0
  4 21  2  0  0  0  0
  4 20  1  0  0  0  0
  5 19  1  0  0  0  0
  5  7  1  0  0  0  0
  6  7  2  0  0  0  0
  6 12  1  0  0  0  0
  7  8  1  0  0  0  0
  8  9  1  0  0  0  0
  8 10  2  0  0  0  0
 10 11  1  0  0  0  0
 11 12  2  0  0  0  0
 14 17  1  0  0  0  0
 15 23  1  0  0  0  0
 15 16  1  0  0  0  0
 16 19  1  0  0  0  0
 19 22  1  0  0  0  0
 22  2  1  6  0  0  0
 22 23  1  0  0  0  0
 23 24  1  1  0  0  0
 24 25  1  0  0  0  0
 25 26  1  0  0  0  0
M  CHG  1  18  -1
M  END
>  <CHROM.1>
-81.35990668,-46.32098988,-1.53695459,-61.24077095,170.82544174,74.21320522
24.04429570,37.69616257,69.47494292,-1.54393558,0.59463564,2.48645432

>  <Name>
ligand

>  <RI>
0

>  <Rbt.Current_Directory>
/home/itssahil/PROJECTS/Mol_Feturizer/New_Systems/rnas/2HOL

>  <Rbt.Executable>
rbdock ($Id: //depot/dev/client3/rdock/2013.1/src/exe/rbdock.cxx#4 $)

>  <Rbt.Library>
libRbt.so (2013.1, Build901 2013/11/27)

>  <Rbt.Parameter_File>
/export/apps/rDock/src/rDock_2013.1_src/data/scripts/dock_solv.prm

>  <Rbt.Receptor>
prm/pocket_docking_8.prm

>  <SCORE>
-15.5102

>  <SCORE.INTER>
-11.4887

>  <SCORE.INTER.CONST>
1

>  <SCORE.INTER.POLAR>
0

>  <SCORE.INTER.ROT>
6

>  <SCORE.INTER.SOLV>
7.0464

>  <SCORE.INTER.VDW>
-17.6079

>  <SCORE.INTER.norm>
-0.441873

>  <SCORE.INTRA>
-4.02148

>  <SCORE.INTRA.DIHEDRAL>
-4.05248

>  <SCORE.INTRA.DIHEDRAL.0>
9.33621

>  <SCORE.INTRA.POLAR>
0

>  <SCORE.INTRA.POLAR.0>
0

>  <SCORE.INTRA.REPUL>
0

>  <SCORE.INTRA.REPUL.0>
0

>  <SCORE.INTRA.SOLV>
-0.57173

>  <SCORE.INTRA.SOLV.lig_0>
-65.9238

>  <SCORE.INTRA.VDW>
-1.70938

>  <SCORE.INTRA.VDW.0>
-0.405582

>  <SCORE.INTRA.norm>
-0.154672

>  <SCORE.RESTR>
0

>  <SCORE.RESTR.CAVITY>
0

>  <SCORE.RESTR.norm>
0

>  <SCORE.SYSTEM>
0

>  <SCORE.SYSTEM.CONST>
0

>  <SCORE.SYSTEM.DIHEDRAL>
0

>  <SCORE.SYSTEM.SOLV>
0

>  <SCORE.SYSTEM.norm>
0

>  <SCORE.heavy>
26

>  <SCORE.norm>
-0.596546

>  <RMSD>
6.688

$$$$
ligand
 OpenBabel11021811443D
libRbt.so/2013.1/901 2013/11/27
 26 28  0  0  0  0  0  0  0  0999 V2000
   26.4783   41.6087   61.6205 C   0  0  0  0  0  0  0  0  0  0  0  0
   25.5402   39.2395   67.4226 C   0  0  0  0  0  0  0  0  0  0  0  0
   23.8821   35.7014   70.4188 P   0  0  1  0  0  0  0  0  0  0  0  0
   24.2895   35.3144   72.9429 P   0  0  1  0  0  0  0  0  0  0  0  0
   25.2240   42.0145   67.1595 C   0  0  0  0  0  0  0  0  0  0  0  0
   24.5781   41.6198   64.7639 C   0  0  0  0  0  0  0  0  0  0  0  0
   25.5574   41.9073   65.6937 C   0  0  0  0  0  0  0  0  0  0  0  0
   26.8644   42.0965   65.2415 C   0  0  0  0  0  0  0  0  0  0  0  0
   27.8844   42.3868   66.1353 N   0  0  0  0  0  0  0  0  0  0  0  0
   27.1186   41.9885   63.9407 N   0  0  0  0  0  0  0  0  0  0  0  0
   26.1525   41.7173   63.0873 C   0  0  0  0  0  0  0  0  0  0  0  0
   24.9079   41.5328   63.4822 N   0  0  0  0  0  0  0  0  0  0  0  0
   24.9678   36.2369   69.5667 O   0  0  0  0  0  0  0  0  0  0  0  0
   24.9160   34.0940   72.2314 O   0  0  0  0  0  0  0  0  0  0  0  0
   21.8386   40.4194   67.9214 S   0  0  0  0  0  0  0  0  0  0  0  0
   22.8779   41.7704   67.5869 C   0  0  0  0  0  0  0  0  0  0  0  0
   24.0901   34.1194   70.6232 O   0  0  0  0  0  0  0  0  0  0  0  0
   25.3426   35.9223   73.9974 O   0  5  0  0  0  0  0  0  0  0  0  0
   24.0490   41.1916   67.4549 N   0  0  0  0  0  0  0  0  0  0  0  0
   23.9128   36.4366   71.8513 O   0  0  0  0  0  0  0  0  0  0  0  0
   23.0108   34.8726   73.6895 O   0  0  0  0  0  0  0  0  0  0  0  0
   24.1885   39.8896   67.5784 C   0  0  2  0  0  0  0  0  0  0  0  0
   23.0887   39.1445   67.8572 C   0  0  2  0  0  0  0  0  0  0  0  0
   22.9578   37.6569   68.0536 C   0  0  0  0  0  0  0  0  0  0  0  0
   22.3900   37.3719   69.4459 C   0  0  0  0  0  0  0  0  0  0  0  0
   22.4609   35.9695   69.7105 O   0  0  0  0  0  0  0  0  0  0  0  0
  1 11  1  0  0  0  0
  3 13  1  6  0  0  0
  3 17  1  0  0  0  0
  3 20  1  0  0  0  0
  3 26  1  0  0  0  0
  4 14  1  0  0  0  0
  4 18  1  1  0  0  0
  4 21  2  0  0  0  0
  4 20  1  0  0  0  0
  5 19  1  0  0  0  0
  5  7  1  0  0  0  0
  6  7  2  0  0  0  0
  6 12  1  0  0  0  0
  7  8  1  0  0  0  0
  8  9  1  0  0  0  0
  8 10  2  0  0  0  0
 10 11  1  0  0  0  0
 11 12  2  0  0  0  0
 14 17  1  0  0  0  0
 15 23  1  0  0  0  0
 15 16  1  0  0  0  0
 16 19  1  0  0  0  0
 19 22  1  0  0  0  0
 22  2  1  1  0  0  0
 22 23  1  0  0  0  0
 23 24  1  6  0  0  0
 24 25  1  0  0  0  0
 25 26  1  0  0  0  0
M  CHG  1  18  -1
M  END
>  <CHROM.1>
-101.47120257,26.95114410,-58.97594912,-171.04300953,90.48391115,-54.69599362
24.38938058,38.53239090,68.51767239,-1.40223290,-0.20296486,2.32281610

>  <Name>
ligand

>  <RI>
0

>  <Rbt.Current_Directory>
/home/itssahil/PROJECTS/Mol_Feturizer/New_Systems/rnas/2HOL

>  <Rbt.Executable>
rbdock ($Id: //depot/dev/client3/rdock/2013.1/src/exe/rbdock.cxx#4 $)

>  <Rbt.Library>
libRbt.so (2013.1, Build901 2013/11/27)

>  <Rbt.Parameter_File>
/export/apps/rDock/src/rDock_2013.1_src/data/scripts/dock_solv.prm

>  <Rbt.Receptor>
prm/blind_docking_100.prm

>  <SCORE>
-9.89765

>  <SCORE.INTER>
-9.22745

>  <SCORE.INTER.CONST>
1

>  <SCORE.INTER.POLAR>
0

>  <SCORE.INTER.ROT>
6

>  <SCORE.INTER.SOLV>
10.3975

>  <SCORE.INTER.VDW>
-17.2175

>  <SCORE.INTER.norm>
-0.354902

>  <SCORE.INTRA>
-0.672278

>  <SCORE.INTRA.DIHEDRAL>
-0.148596

>  <SCORE.INTRA.DIHEDRAL.0>
9.33621

>  <SCORE.INTRA.POLAR>
0

>  <SCORE.INTRA.POLAR.0>
0

>  <SCORE.INTRA.REPUL>
0

>  <SCORE.INTRA.REPUL.0>
0

>  <SCORE.INTRA.SOLV>
0.819083

>  <SCORE.INTRA.SOLV.lig_0>
-65.9238

>  <SCORE.INTRA.VDW>
-1.00752

>  <SCORE.INTRA.VDW.0>
-0.405582

>  <SCORE.INTRA.norm>
-0.0258568

>  <SCORE.RESTR>
0.00206784

>  <SCORE.RESTR.CAVITY>
0.00206784

>  <SCORE.RESTR.norm>
7.95323e-05

>  <SCORE.SYSTEM>
0

>  <SCORE.SYSTEM.CONST>
0

>  <SCORE.SYSTEM.DIHEDRAL>
0

>  <SCORE.SYSTEM.SOLV>
0

>  <SCORE.SYSTEM.norm>
0

>  <SCORE.heavy>
26

>  <SCORE.norm>
-0.380679

>  <RMSD>
6.797

$$$$
ligand
 OpenBabel11021811443D
libRbt.so/2013.1/901 2013/11/27
 26 28  0  0  0  0  0  0  0  0999 V2000
   26.5994   37.5731   71.2230 C   0  0  0  0  0  0  0  0  0  0  0  0
   21.5459   39.4578   68.7526 C   0  0  0  0  0  0  0  0  0  0  0  0
   23.3957   45.2499   66.7907 P   0  0  1  0  0  0  0  0  0  0  0  0
   25.6814   44.5515   65.8037 P   0  0  1  0  0  0  0  0  0  0  0  0
   22.3742   37.1251   67.4328 C   0  0  0  0  0  0  0  0  0  0  0  0
   23.2978   36.9040   69.7587 C   0  0  0  0  0  0  0  0  0  0  0  0
   23.4935   37.2442   68.4349 C   0  0  0  0  0  0  0  0  0  0  0  0
   24.7546   37.7011   68.0483 C   0  0  0  0  0  0  0  0  0  0  0  0
   25.0022   38.0560   66.7306 N   0  0  0  0  0  0  0  0  0  0  0  0
   25.7142   37.7967   68.9638 N   0  0  0  0  0  0  0  0  0  0  0  0
   25.4854   37.4567   70.2156 C   0  0  0  0  0  0  0  0  0  0  0  0
   24.3055   37.0219   70.6130 N   0  0  0  0  0  0  0  0  0  0  0  0
   23.2667   46.5260   67.5300 O   0  0  0  0  0  0  0  0  0  0  0  0
   25.0920   45.5690   64.8010 O   0  0  0  0  0  0  0  0  0  0  0  0
   22.2841   40.0237   64.9477 S   0  0  0  0  0  0  0  0  0  0  0  0
   22.5563   38.3661   65.3900 C   0  0  0  0  0  0  0  0  0  0  0  0
   23.3308   45.5364   65.2091 O   0  0  0  0  0  0  0  0  0  0  0  0
   27.2017   44.9530   66.1473 O   0  5  0  0  0  0  0  0  0  0  0  0
   22.2661   38.3709   66.6705 N   0  0  0  0  0  0  0  0  0  0  0  0
   24.8046   44.5597   67.1542 O   0  0  0  0  0  0  0  0  0  0  0  0
   25.6512   43.1387   65.1787 O   0  0  0  0  0  0  0  0  0  0  0  0
   21.8771   39.4687   67.2815 C   0  0  2  0  0  0  0  0  0  0  0  0
   21.7877   40.6144   66.5591 C   0  0  2  0  0  0  0  0  0  0  0  0
   21.3799   41.9976   66.9940 C   0  0  0  0  0  0  0  0  0  0  0  0
   22.4647   43.0008   66.5953 C   0  0  0  0  0  0  0  0  0  0  0  0
   22.1934   44.2631   67.2078 O   0  0  0  0  0  0  0  0  0  0  0  0
  1 11  1  0  0  0  0
  3 13  1  1  0  0  0
  3 17  1  0  0  0  0
  3 20  1  0  0  0  0
  3 26  1  0  0  0  0
  4 14  1  0  0  0  0
  4 18  1  1  0  0  0
  4 21  2  0  0  0  0
  4 20  1  0  0  0  0
  5 19  1  0  0  0  0
  5  7  1  0  0  0  0
  6  7  2  0  0  0  0
  6 12  1  0  0  0  0
  7  8  1  0  0  0  0
  8  9  1  0  0  0  0
  8 10  2  0  0  0  0
 10 11  1  0  0  0  0
 11 12  2  0  0  0  0
 14 17  1  0  0  0  0
 15 23  1  0  0  0  0
 15 16  1  0  0  0  0
 16 19  1  0  0  0  0
 19 22  1  0  0  0  0
 22  2  1  1  0  0  0
 22 23  1  0  0  0  0
 23 24  1  6  0  0  0
 24 25  1  0  0  0  0
 25 26  1  0  0  0  0
M  CHG  1  18  -1
M  END
>  <CHROM.1>
113.01942423,130.63395921,-53.68241484,-169.93423366,178.01746813,-172.91998624
23.80181140,41.36882254,67.09209652,-1.63163053,-0.48649103,-0.35963019

>  <Name>
ligand

>  <RI>
0

>  <Rbt.Current_Directory>
/home/itssahil/PROJECTS/Mol_Feturizer/New_Systems/rnas/2HOL

>  <Rbt.Executable>
rbdock ($Id: //depot/dev/client3/rdock/2013.1/src/exe/rbdock.cxx#4 $)

>  <Rbt.Library>
libRbt.so (2013.1, Build901 2013/11/27)

>  <Rbt.Parameter_File>
/export/apps/rDock/src/rDock_2013.1_src/data/scripts/dock_solv.prm

>  <Rbt.Receptor>
prm/pocket_docking_7.prm

>  <SCORE>
-16.8069

>  <SCORE.INTER>
-15.2386

>  <SCORE.INTER.CONST>
1

>  <SCORE.INTER.POLAR>
0

>  <SCORE.INTER.ROT>
6

>  <SCORE.INTER.SOLV>
15.7865

>  <SCORE.INTER.VDW>
-23.0212

>  <SCORE.INTER.norm>
-0.586101

>  <SCORE.INTRA>
-1.56827

>  <SCORE.INTRA.DIHEDRAL>
-3.72041

>  <SCORE.INTRA.DIHEDRAL.0>
9.33621

>  <SCORE.INTRA.POLAR>
0

>  <SCORE.INTRA.POLAR.0>
0

>  <SCORE.INTRA.REPUL>
0

>  <SCORE.INTRA.REPUL.0>
0

>  <SCORE.INTRA.SOLV>
3.22653

>  <SCORE.INTRA.SOLV.lig_0>
-65.9238

>  <SCORE.INTRA.VDW>
-1.32133

>  <SCORE.INTRA.VDW.0>
-0.405582

>  <SCORE.INTRA.norm>
-0.060318

>  <SCORE.RESTR>
0

>  <SCORE.RESTR.CAVITY>
0

>  <SCORE.RESTR.norm>
0

>  <SCORE.SYSTEM>
0

>  <SCORE.SYSTEM.CONST>
0

>  <SCORE.SYSTEM.DIHEDRAL>
0

>  <SCORE.SYSTEM.SOLV>
0

>  <SCORE.SYSTEM.norm>
0

>  <SCORE.heavy>
26

>  <SCORE.norm>
-0.646419

>  <RMSD>
6.827

$$$$
ligand
 OpenBabel11021811443D
libRbt.so/2013.1/901 2013/11/27
 26 28  0  0  0  0  0  0  0  0999 V2000
   23.0216   31.9539   70.5425 C   0  0  0  0  0  0  0  0  0  0  0  0
   25.5363   38.5815   68.4498 C   0  0  0  0  0  0  0  0  0  0  0  0
   25.5650   42.5586   66.5442 P   0  0  1  0  0  0  0  0  0  0  0  0
   23.3655   43.9182   66.5555 P   0  0  1  0  0  0  0  0  0  0  0  0
   23.1045   37.5240   69.3650 C   0  0  0  0  0  0  0  0  0  0  0  0
   21.9990   35.2682   69.3332 C   0  0  0  0  0  0  0  0  0  0  0  0
   23.0839   36.0498   69.6774 C   0  0  0  0  0  0  0  0  0  0  0  0
   24.1615   35.4397   70.3218 C   0  0  0  0  0  0  0  0  0  0  0  0
   25.2747   36.1810   70.6888 N   0  0  0  0  0  0  0  0  0  0  0  0
   24.1025   34.1374   70.5840 N   0  0  0  0  0  0  0  0  0  0  0  0
   23.0493   33.4281   70.2336 C   0  0  0  0  0  0  0  0  0  0  0  0
   22.0153   33.9742   69.6241 N   0  0  0  0  0  0  0  0  0  0  0  0
   26.7714   43.1067   65.8841 O   0  0  0  0  0  0  0  0  0  0  0  0
   24.2316   44.5243   67.6827 O   0  0  0  0  0  0  0  0  0  0  0  0
   23.0176   37.7905   65.5563 S   0  0  0  0  0  0  0  0  0  0  0  0
   22.3295   37.3917   67.1005 C   0  0  0  0  0  0  0  0  0  0  0  0
   25.4175   43.1999   68.0122 O   0  0  0  0  0  0  0  0  0  0  0  0
   22.7920   45.0983   65.6233 O   0  5  0  0  0  0  0  0  0  0  0  0
   23.2976   37.7160   67.9260 N   0  0  0  0  0  0  0  0  0  0  0  0
   24.2634   42.9194   65.6673 O   0  0  0  0  0  0  0  0  0  0  0  0
   22.1873   43.1358   67.1778 O   0  0  0  0  0  0  0  0  0  0  0  0
   24.4343   38.2126   67.4889 C   0  0  2  0  0  0  0  0  0  0  0  0
   24.5962   38.3785   66.1514 C   0  0  2  0  0  0  0  0  0  0  0  0
   25.7764   38.9132   65.3833 C   0  0  0  0  0  0  0  0  0  0  0  0
   25.7071   40.4413   65.3358 C   0  0  0  0  0  0  0  0  0  0  0  0
   25.6999   40.9587   66.6678 O   0  0  0  0  0  0  0  0  0  0  0  0
  1 11  1  0  0  0  0
  3 13  1  6  0  0  0
  3 17  1  0  0  0  0
  3 20  1  0  0  0  0
  3 26  1  0  0  0  0
  4 14  1  0  0  0  0
  4 18  1  6  0  0  0
  4 21  2  0  0  0  0
  4 20  1  0  0  0  0
  5 19  1  0  0  0  0
  5  7  1  0  0  0  0
  6  7  2  0  0  0  0
  6 12  1  0  0  0  0
  7  8  1  0  0  0  0
  8  9  1  0  0  0  0
  8 10  2  0  0  0  0
 10 11  1  0  0  0  0
 11 12  2  0  0  0  0
 14 17  1  0  0  0  0
 15 23  1  0  0  0  0
 15 16  1  0  0  0  0
 16 19  1  0  0  0  0
 19 22  1  0  0  0  0
 22  2  1  6  0  0  0
 22 23  1  0  0  0  0
 23 24  1  1  0  0  0
 24 25  1  0  0  0  0
 25 26  1  0  0  0  0
M  CHG  1  18  -1
M  END
>  <CHROM.1>
69.78219253,-72.88059612,95.08745580,58.65300953,-177.72024736,-64.95374016
24.06043474,39.39873519,67.57113758,1.69563909,-0.18593277,2.80885535

>  <Name>
ligand

>  <RI>
0

>  <Rbt.Current_Directory>
/home/itssahil/PROJECTS/Mol_Feturizer/New_Systems/rnas/2HOL

>  <Rbt.Executable>
rbdock ($Id: //depot/dev/client3/rdock/2013.1/src/exe/rbdock.cxx#4 $)

>  <Rbt.Library>
libRbt.so (2013.1, Build901 2013/11/27)

>  <Rbt.Parameter_File>
/export/apps/rDock/src/rDock_2013.1_src/data/scripts/dock_solv.prm

>  <Rbt.Receptor>
prm/pocket_docking_8.prm

>  <SCORE>
-18.1699

>  <SCORE.INTER>
-15.2273

>  <SCORE.INTER.CONST>
1

>  <SCORE.INTER.POLAR>
0

>  <SCORE.INTER.ROT>
6

>  <SCORE.INTER.SOLV>
10.4865

>  <SCORE.INTER.VDW>
-21.247

>  <SCORE.INTER.norm>
-0.585665

>  <SCORE.INTRA>
-2.94262

>  <SCORE.INTRA.DIHEDRAL>
-4.49101

>  <SCORE.INTRA.DIHEDRAL.0>
9.33621

>  <SCORE.INTRA.POLAR>
0

>  <SCORE.INTRA.POLAR.0>
0

>  <SCORE.INTRA.REPUL>
0

>  <SCORE.INTRA.REPUL.0>
0

>  <SCORE.INTRA.SOLV>
1.95146

>  <SCORE.INTRA.SOLV.lig_0>
-65.9238

>  <SCORE.INTRA.VDW>
-1.67285

>  <SCORE.INTRA.VDW.0>
-0.405582

>  <SCORE.INTRA.norm>
-0.113178

>  <SCORE.RESTR>
0

>  <SCORE.RESTR.CAVITY>
0

>  <SCORE.RESTR.norm>
0

>  <SCORE.SYSTEM>
0

>  <SCORE.SYSTEM.CONST>
0

>  <SCORE.SYSTEM.DIHEDRAL>
0

>  <SCORE.SYSTEM.SOLV>
0

>  <SCORE.SYSTEM.norm>
0

>  <SCORE.heavy>
26

>  <SCORE.norm>
-0.698843

>  <RMSD>
6.919

$$$$
ligand
 OpenBabel11021811443D
libRbt.so/2013.1/901 2013/11/27
 26 28  0  0  0  0  0  0  0  0999 V2000
   25.0387   46.7865   64.4945 C   0  0  0  0  0  0  0  0  0  0  0  0
   22.5485   41.4725   67.9325 C   0  0  0  0  0  0  0  0  0  0  0  0
   21.8857   36.4102   69.3084 P   0  0  1  0  0  0  0  0  0  0  0  0
   23.0928   34.5402   70.6246 P   0  0  1  0  0  0  0  0  0  0  0  0
   25.1827   42.4148   68.1395 C   0  0  0  0  0  0  0  0  0  0  0  0
   24.0664   44.4316   67.1405 C   0  0  0  0  0  0  0  0  0  0  0  0
   25.1459   43.5715   67.1742 C   0  0  0  0  0  0  0  0  0  0  0  0
   26.2027   43.8007   66.2914 C   0  0  0  0  0  0  0  0  0  0  0  0
   27.3098   42.9653   66.2853 N   0  0  0  0  0  0  0  0  0  0  0  0
   26.1298   44.8293   65.4517 N   0  0  0  0  0  0  0  0  0  0  0  0
   25.0825   45.6282   65.4567 C   0  0  0  0  0  0  0  0  0  0  0  0
   24.0679   45.4388   66.2775 N   0  0  0  0  0  0  0  0  0  0  0  0
   20.4905   36.7718   69.6463 O   0  0  0  0  0  0  0  0  0  0  0  0
   23.1815   35.7977   71.5184 O   0  0  0  0  0  0  0  0  0  0  0  0
   25.1565   39.1488   66.1602 S   0  0  0  0  0  0  0  0  0  0  0  0
   25.9415   40.5182   66.8853 C   0  0  0  0  0  0  0  0  0  0  0  0
   22.8917   37.1333   70.3345 O   0  0  0  0  0  0  0  0  0  0  0  0
   22.5728   33.2933   71.4994 O   0  5  0  0  0  0  0  0  0  0  0  0
   24.9308   41.1664   67.4163 N   0  0  0  0  0  0  0  0  0  0  0  0
   22.0663   34.8134   69.4145 O   0  0  0  0  0  0  0  0  0  0  0  0
   24.4911   34.2185   70.0510 O   0  0  0  0  0  0  0  0  0  0  0  0
   23.6988   40.7171   67.3159 C   0  0  2  0  0  0  0  0  0  0  0  0
   23.4849   39.5610   66.6376 C   0  0  2  0  0  0  0  0  0  0  0  0
   22.1975   38.8277   66.3662 C   0  0  0  0  0  0  0  0  0  0  0  0
   21.6796   38.2041   67.6643 C   0  0  0  0  0  0  0  0  0  0  0  0
   22.2159   36.8871   67.8062 O   0  0  0  0  0  0  0  0  0  0  0  0
  1 11  1  0  0  0  0
  3 13  1  1  0  0  0
  3 17  1  0  0  0  0
  3 20  1  0  0  0  0
  3 26  1  0  0  0  0
  4 14  1  0  0  0  0
  4 18  1  1  0  0  0
  4 21  2  0  0  0  0
  4 20  1  0  0  0  0
  5 19  1  0  0  0  0
  5  7  1  0  0  0  0
  6  7  2  0  0  0  0
  6 12  1  0  0  0  0
  7  8  1  0  0  0  0
  8  9  1  0  0  0  0
  8 10  2  0  0  0  0
 10 11  1  0  0  0  0
 11 12  2  0  0  0  0
 14 17  1  0  0  0  0
 15 23  1  0  0  0  0
 15 16  1  0  0  0  0
 16 19  1  0  0  0  0
 19 22  1  0  0  0  0
 22  2  1  6  0  0  0
 22 23  1  0  0  0  0
 23 24  1  1  0  0  0
 24 25  1  0  0  0  0
 25 26  1  0  0  0  0
M  CHG  1  18  -1
M  END
>  <CHROM.1>
88.31122352,105.28411381,108.93429066,-89.90901370,168.67146611,43.70318547
23.74253276,39.35949332,68.02505210,1.30851164,0.07282351,-0.40450172

>  <Name>
ligand

>  <RI>
0

>  <Rbt.Current_Directory>
/home/itssahil/PROJECTS/Mol_Feturizer/New_Systems/rnas/2HOL

>  <Rbt.Executable>
rbdock ($Id: //depot/dev/client3/rdock/2013.1/src/exe/rbdock.cxx#4 $)

>  <Rbt.Library>
libRbt.so (2013.1, Build901 2013/11/27)

>  <Rbt.Parameter_File>
/export/apps/rDock/src/rDock_2013.1_src/data/scripts/dock_solv.prm

>  <Rbt.Receptor>
prm/pocket_docking_8.prm

>  <SCORE>
-13.6785

>  <SCORE.INTER>
-12.2549

>  <SCORE.INTER.CONST>
1

>  <SCORE.INTER.POLAR>
0

>  <SCORE.INTER.ROT>
6

>  <SCORE.INTER.SOLV>
14.2835

>  <SCORE.INTER.VDW>
-20.5311

>  <SCORE.INTER.norm>
-0.471342

>  <SCORE.INTRA>
-1.4236

>  <SCORE.INTRA.DIHEDRAL>
-0.95228

>  <SCORE.INTRA.DIHEDRAL.0>
9.33621

>  <SCORE.INTRA.POLAR>
0

>  <SCORE.INTRA.POLAR.0>
0

>  <SCORE.INTRA.REPUL>
0

>  <SCORE.INTRA.REPUL.0>
0

>  <SCORE.INTRA.SOLV>
0.939517

>  <SCORE.INTRA.SOLV.lig_0>
-65.9238

>  <SCORE.INTRA.VDW>
-1.41722

>  <SCORE.INTRA.VDW.0>
-0.405582

>  <SCORE.INTRA.norm>
-0.054754

>  <SCORE.RESTR>
0

>  <SCORE.RESTR.CAVITY>
0

>  <SCORE.RESTR.norm>
0

>  <SCORE.SYSTEM>
0

>  <SCORE.SYSTEM.CONST>
0

>  <SCORE.SYSTEM.DIHEDRAL>
0

>  <SCORE.SYSTEM.SOLV>
0

>  <SCORE.SYSTEM.norm>
0

>  <SCORE.heavy>
26

>  <SCORE.norm>
-0.526096

>  <RMSD>
6.963

$$$$
ligand
 OpenBabel11021811443D
libRbt.so/2013.1/901 2013/11/27
 26 28  0  0  0  0  0  0  0  0999 V2000
   25.8315   36.0090   70.9097 C   0  0  0  0  0  0  0  0  0  0  0  0
   20.5194   39.3919   65.3135 C   0  0  0  0  0  0  0  0  0  0  0  0
   23.4577   44.7844   65.5245 P   0  0  1  0  0  0  0  0  0  0  0  0
   25.5981   45.3115   64.1726 P   0  0  1  0  0  0  0  0  0  0  0  0
   21.8797   37.9550   67.3020 C   0  0  0  0  0  0  0  0  0  0  0  0
   24.2697   37.5900   67.9851 C   0  0  0  0  0  0  0  0  0  0  0  0
   22.9246   37.4394   68.2578 C   0  0  0  0  0  0  0  0  0  0  0  0
   22.5571   36.7975   69.4417 C   0  0  0  0  0  0  0  0  0  0  0  0
   21.2192   36.6207   69.7615 N   0  0  0  0  0  0  0  0  0  0  0  0
   23.5093   36.3524   70.2562 N   0  0  0  0  0  0  0  0  0  0  0  0
   24.7813   36.5218   69.9591 C   0  0  0  0  0  0  0  0  0  0  0  0
   25.1615   37.1235   68.8489 N   0  0  0  0  0  0  0  0  0  0  0  0
   23.1792   45.5109   66.7839 O   0  0  0  0  0  0  0  0  0  0  0  0
   24.5941   46.4285   63.8088 O   0  0  0  0  0  0  0  0  0  0  0  0
   21.9788   41.6802   68.1377 S   0  0  0  0  0  0  0  0  0  0  0  0
   22.3482   40.0105   68.4428 C   0  0  0  0  0  0  0  0  0  0  0  0
   23.0104   45.6893   64.2720 O   0  0  0  0  0  0  0  0  0  0  0  0
   27.0158   45.9671   64.5607 O   0  5  0  0  0  0  0  0  0  0  0  0
   21.7895   39.4123   67.4162 N   0  0  0  0  0  0  0  0  0  0  0  0
   25.0340   44.4701   65.4243 O   0  0  0  0  0  0  0  0  0  0  0  0
   25.7810   44.3710   62.9604 O   0  0  0  0  0  0  0  0  0  0  0  0
   21.1546   40.0935   66.4874 C   0  0  2  0  0  0  0  0  0  0  0  0
   21.0775   41.4428   66.6134 C   0  0  2  0  0  0  0  0  0  0  0  0
   20.4191   42.4577   65.7161 C   0  0  0  0  0  0  0  0  0  0  0  0
   21.2575   43.7377   65.6885 C   0  0  0  0  0  0  0  0  0  0  0  0
   22.6345   43.4005   65.5089 O   0  0  0  0  0  0  0  0  0  0  0  0
  1 11  1  0  0  0  0
  3 13  1  1  0  0  0
  3 17  1  0  0  0  0
  3 20  1  0  0  0  0
  3 26  1  0  0  0  0
  4 14  1  0  0  0  0
  4 18  1  1  0  0  0
  4 21  2  0  0  0  0
  4 20  1  0  0  0  0
  5 19  1  0  0  0  0
  5  7  1  0  0  0  0
  6  7  2  0  0  0  0
  6 12  1  0  0  0  0
  7  8  1  0  0  0  0
  8  9  1  0  0  0  0
  8 10  2  0  0  0  0
 10 11  1  0  0  0  0
 11 12  2  0  0  0  0
 14 17  1  0  0  0  0
 15 23  1  0  0  0  0
 15 16  1  0  0  0  0
 16 19  1  0  0  0  0
 19 22  1  0  0  0  0
 22  2  1  1  0  0  0
 22 23  1  0  0  0  0
 23 24  1  6  0  0  0
 24 25  1  0  0  0  0
 25 26  1  0  0  0  0
M  CHG  1  18  -1
M  END
>  <CHROM.1>
-14.11789834,-75.37522149,36.01603319,46.04045904,-178.68226105,56.32993204
23.30521564,41.57970909,66.68420278,-1.70818562,-0.05529480,-0.52152880

>  <Name>
ligand

>  <RI>
0

>  <Rbt.Current_Directory>
/home/itssahil/PROJECTS/Mol_Feturizer/New_Systems/rnas/2HOL

>  <Rbt.Executable>
rbdock ($Id: //depot/dev/client3/rdock/2013.1/src/exe/rbdock.cxx#4 $)

>  <Rbt.Library>
libRbt.so (2013.1, Build901 2013/11/27)

>  <Rbt.Parameter_File>
/export/apps/rDock/src/rDock_2013.1_src/data/scripts/dock_solv.prm

>  <Rbt.Receptor>
prm/pocket_docking_7.prm

>  <SCORE>
-17.1572

>  <SCORE.INTER>
-14.9113

>  <SCORE.INTER.CONST>
1

>  <SCORE.INTER.POLAR>
0

>  <SCORE.INTER.ROT>
6

>  <SCORE.INTER.SOLV>
13.9546

>  <SCORE.INTER.VDW>
-22.1924

>  <SCORE.INTER.norm>
-0.573511

>  <SCORE.INTRA>
-2.24592

>  <SCORE.INTRA.DIHEDRAL>
-3.63217

>  <SCORE.INTRA.DIHEDRAL.0>
9.33621

>  <SCORE.INTRA.POLAR>
0

>  <SCORE.INTRA.POLAR.0>
0

>  <SCORE.INTRA.REPUL>
0

>  <SCORE.INTRA.REPUL.0>
0

>  <SCORE.INTRA.SOLV>
-0.171619

>  <SCORE.INTRA.SOLV.lig_0>
-65.9238

>  <SCORE.INTRA.VDW>
-0.344019

>  <SCORE.INTRA.VDW.0>
-0.405582

>  <SCORE.INTRA.norm>
-0.0863814

>  <SCORE.RESTR>
0

>  <SCORE.RESTR.CAVITY>
0

>  <SCORE.RESTR.norm>
0

>  <SCORE.SYSTEM>
0

>  <SCORE.SYSTEM.CONST>
0

>  <SCORE.SYSTEM.DIHEDRAL>
0

>  <SCORE.SYSTEM.SOLV>
0

>  <SCORE.SYSTEM.norm>
0

>  <SCORE.heavy>
26

>  <SCORE.norm>
-0.659892

>  <RMSD>
6.975

$$$$
ligand
 OpenBabel11021811443D
libRbt.so/2013.1/901 2013/11/27
 26 28  0  0  0  0  0  0  0  0999 V2000
   27.6907   39.2879   70.0137 C   0  0  0  0  0  0  0  0  0  0  0  0
   21.6709   39.6189   68.6884 C   0  0  0  0  0  0  0  0  0  0  0  0
   23.6375   43.7963   66.2680 P   0  0  1  0  0  0  0  0  0  0  0  0
   24.7834   45.4847   64.6797 P   0  0  1  0  0  0  0  0  0  0  0  0
   22.8402   37.1983   67.8866 C   0  0  0  0  0  0  0  0  0  0  0  0
   24.4038   37.6626   69.7975 C   0  0  0  0  0  0  0  0  0  0  0  0
   24.1244   37.7519   68.4483 C   0  0  0  0  0  0  0  0  0  0  0  0
   25.0620   38.3677   67.6174 C   0  0  0  0  0  0  0  0  0  0  0  0
   24.8286   38.4830   66.2552 N   0  0  0  0  0  0  0  0  0  0  0  0
   26.1807   38.8478   68.1526 N   0  0  0  0  0  0  0  0  0  0  0  0
   26.4091   38.7369   69.4451 C   0  0  0  0  0  0  0  0  0  0  0  0
   25.5438   38.1611   70.2568 N   0  0  0  0  0  0  0  0  0  0  0  0
   24.2165   43.5247   67.6031 O   0  0  0  0  0  0  0  0  0  0  0  0
   23.9739   46.3415   65.6790 O   0  0  0  0  0  0  0  0  0  0  0  0
   21.6848   39.1311   64.8020 S   0  0  0  0  0  0  0  0  0  0  0  0
   22.4141   37.7703   65.5981 C   0  0  0  0  0  0  0  0  0  0  0  0
   22.7736   45.1522   66.3226 O   0  0  0  0  0  0  0  0  0  0  0  0
   26.2841   46.0564   64.5723 O   0  5  0  0  0  0  0  0  0  0  0  0
   22.3217   38.1088   66.8633 N   0  0  0  0  0  0  0  0  0  0  0  0
   24.8246   43.9587   65.1919 O   0  0  0  0  0  0  0  0  0  0  0  0
   24.1100   45.5435   63.2902 O   0  0  0  0  0  0  0  0  0  0  0  0
   21.7708   39.2450   67.2310 C   0  0  2  0  0  0  0  0  0  0  0  0
   21.3006   40.0778   66.2677 C   0  0  2  0  0  0  0  0  0  0  0  0
   20.6362   41.4233   66.3982 C   0  0  0  0  0  0  0  0  0  0  0  0
   21.6697   42.4650   66.8327 C   0  0  0  0  0  0  0  0  0  0  0  0
   22.6871   42.5707   65.8348 O   0  0  0  0  0  0  0  0  0  0  0  0
  1 11  1  0  0  0  0
  3 13  1  1  0  0  0
  3 17  1  0  0  0  0
  3 20  1  0  0  0  0
  3 26  1  0  0  0  0
  4 14  1  0  0  0  0
  4 18  1  6  0  0  0
  4 21  2  0  0  0  0
  4 20  1  0  0  0  0
  5 19  1  0  0  0  0
  5  7  1  0  0  0  0
  6  7  2  0  0  0  0
  6 12  1  0  0  0  0
  7  8  1  0  0  0  0
  8  9  1  0  0  0  0
  8 10  2  0  0  0  0
 10 11  1  0  0  0  0
 11 12  2  0  0  0  0
 14 17  1  0  0  0  0
 15 23  1  0  0  0  0
 15 16  1  0  0  0  0
 16 19  1  0  0  0  0
 19 22  1  0  0  0  0
 22  2  1  6  0  0  0
 22 23  1  0  0  0  0
 23 24  1  1  0  0  0
 24 25  1  0  0  0  0
 25 26  1  0  0  0  0
M  CHG  1  18  -1
M  END
>  <CHROM.1>
106.30477412,140.38855667,-108.86780270,61.80142311,173.45588510,59.25995761
23.73011688,41.37323845,66.64991083,-1.60343298,-0.49984716,-0.42280702

>  <Name>
ligand

>  <RI>
0

>  <Rbt.Current_Directory>
/home/itssahil/PROJECTS/Mol_Feturizer/New_Systems/rnas/2HOL

>  <Rbt.Executable>
rbdock ($Id: //depot/dev/client3/rdock/2013.1/src/exe/rbdock.cxx#4 $)

>  <Rbt.Library>
libRbt.so (2013.1, Build901 2013/11/27)

>  <Rbt.Parameter_File>
/export/apps/rDock/src/rDock_2013.1_src/data/scripts/dock_solv.prm

>  <Rbt.Receptor>
prm/pocket_docking_6.prm

>  <SCORE>
-13.8505

>  <SCORE.INTER>
-12.3871

>  <SCORE.INTER.CONST>
1

>  <SCORE.INTER.POLAR>
0

>  <SCORE.INTER.ROT>
6

>  <SCORE.INTER.SOLV>
12.6676

>  <SCORE.INTER.VDW>
-20.0806

>  <SCORE.INTER.norm>
-0.476425

>  <SCORE.INTRA>
-1.4634

>  <SCORE.INTRA.DIHEDRAL>
-4.49423

>  <SCORE.INTRA.DIHEDRAL.0>
9.33621

>  <SCORE.INTRA.POLAR>
0

>  <SCORE.INTRA.POLAR.0>
0

>  <SCORE.INTRA.REPUL>
0

>  <SCORE.INTRA.REPUL.0>
0

>  <SCORE.INTRA.SOLV>
3.22517

>  <SCORE.INTRA.SOLV.lig_0>
-65.9238

>  <SCORE.INTRA.VDW>
-0.828874

>  <SCORE.INTRA.VDW.0>
-0.405582

>  <SCORE.INTRA.norm>
-0.0562848

>  <SCORE.RESTR>
0

>  <SCORE.RESTR.CAVITY>
0

>  <SCORE.RESTR.norm>
0

>  <SCORE.SYSTEM>
0

>  <SCORE.SYSTEM.CONST>
0

>  <SCORE.SYSTEM.DIHEDRAL>
0

>  <SCORE.SYSTEM.SOLV>
0

>  <SCORE.SYSTEM.norm>
0

>  <SCORE.heavy>
26

>  <SCORE.norm>
-0.53271

>  <RMSD>
6.980

$$$$
ligand
 OpenBabel11021811443D
libRbt.so/2013.1/901 2013/11/27
 26 28  0  0  0  0  0  0  0  0999 V2000
   23.2483   46.3262   67.0076 C   0  0  0  0  0  0  0  0  0  0  0  0
   23.0989   39.5485   67.7890 C   0  0  0  0  0  0  0  0  0  0  0  0
   22.5830   35.5016   70.2368 P   0  0  1  0  0  0  0  0  0  0  0  0
   22.7717   33.4595   71.8117 P   0  0  1  0  0  0  0  0  0  0  0  0
   22.9515   40.8929   65.3313 C   0  0  0  0  0  0  0  0  0  0  0  0
   22.0206   42.8981   66.5247 C   0  0  0  0  0  0  0  0  0  0  0  0
   23.0313   42.3312   65.7742 C   0  0  0  0  0  0  0  0  0  0  0  0
   24.1295   43.1241   65.4364 C   0  0  0  0  0  0  0  0  0  0  0  0
   25.1708   42.6020   64.6836 N   0  0  0  0  0  0  0  0  0  0  0  0
   24.1598   44.3900   65.8423 N   0  0  0  0  0  0  0  0  0  0  0  0
   23.1754   44.8892   66.5612 C   0  0  0  0  0  0  0  0  0  0  0  0
   22.1243   44.1670   66.8967 N   0  0  0  0  0  0  0  0  0  0  0  0
   23.8072   36.1606   69.7282 O   0  0  0  0  0  0  0  0  0  0  0  0
   22.9956   32.9045   70.3870 O   0  0  0  0  0  0  0  0  0  0  0  0
   19.5048   39.5165   66.2322 S   0  0  0  0  0  0  0  0  0  0  0  0
   20.6152   40.3714   65.2057 C   0  0  0  0  0  0  0  0  0  0  0  0
   22.2683   34.1959   69.3514 O   0  0  0  0  0  0  0  0  0  0  0  0
   23.9328   32.9214   72.7879 O   0  5  0  0  0  0  0  0  0  0  0  0
   21.7391   40.2797   65.8781 N   0  0  0  0  0  0  0  0  0  0  0  0
   22.8055   35.0688   71.7720 O   0  0  0  0  0  0  0  0  0  0  0  0
   21.3978   32.9861   72.3369 O   0  0  0  0  0  0  0  0  0  0  0  0
   21.8001   39.6464   67.0292 C   0  0  2  0  0  0  0  0  0  0  0  0
   20.6648   39.0889   67.5220 C   0  0  2  0  0  0  0  0  0  0  0  0
   20.4449   38.3204   68.7986 C   0  0  0  0  0  0  0  0  0  0  0  0
   21.4006   37.1262   68.8488 C   0  0  0  0  0  0  0  0  0  0  0  0
   21.3434   36.5253   70.1441 O   0  0  0  0  0  0  0  0  0  0  0  0
  1 11  1  0  0  0  0
  3 13  1  6  0  0  0
  3 17  1  0  0  0  0
  3 20  1  0  0  0  0
  3 26  1  0  0  0  0
  4 14  1  0  0  0  0
  4 18  1  1  0  0  0
  4 21  2  0  0  0  0
  4 20  1  0  0  0  0
  5 19  1  0  0  0  0
  5  7  1  0  0  0  0
  6  7  2  0  0  0  0
  6 12  1  0  0  0  0
  7  8  1  0  0  0  0
  8  9  1  0  0  0  0
  8 10  2  0  0  0  0
 10 11  1  0  0  0  0
 11 12  2  0  0  0  0
 14 17  1  0  0  0  0
 15 23  1  0  0  0  0
 15 16  1  0  0  0  0
 16 19  1  0  0  0  0
 19 22  1  0  0  0  0
 22  2  1  1  0  0  0
 22 23  1  0  0  0  0
 23 24  1  6  0  0  0
 24 25  1  0  0  0  0
 25 26  1  0  0  0  0
M  CHG  1  18  -1
M  END
>  <CHROM.1>
87.65445663,-2.94755795,123.68410109,170.82485627,-167.84584743,45.90298571
22.34237334,38.47061168,68.38499989,-1.55087745,0.46756441,2.61322358

>  <Name>
ligand

>  <RI>
0

>  <Rbt.Current_Directory>
/home/itssahil/PROJECTS/Mol_Feturizer/New_Systems/rnas/2HOL

>  <Rbt.Executable>
rbdock ($Id: //depot/dev/client3/rdock/2013.1/src/exe/rbdock.cxx#4 $)

>  <Rbt.Library>
libRbt.so (2013.1, Build901 2013/11/27)

>  <Rbt.Parameter_File>
/export/apps/rDock/src/rDock_2013.1_src/data/scripts/dock_solv.prm

>  <Rbt.Receptor>
prm/pocket_docking_8.prm

>  <SCORE>
-15.2137

>  <SCORE.INTER>
-13.0561

>  <SCORE.INTER.CONST>
1

>  <SCORE.INTER.POLAR>
0

>  <SCORE.INTER.ROT>
6

>  <SCORE.INTER.SOLV>
10.7341

>  <SCORE.INTER.VDW>
-19.8821

>  <SCORE.INTER.norm>
-0.502159

>  <SCORE.INTRA>
-2.15759

>  <SCORE.INTRA.DIHEDRAL>
-3.43083

>  <SCORE.INTRA.DIHEDRAL.0>
9.33621

>  <SCORE.INTRA.POLAR>
0

>  <SCORE.INTRA.POLAR.0>
0

>  <SCORE.INTRA.REPUL>
0

>  <SCORE.INTRA.REPUL.0>
0

>  <SCORE.INTRA.SOLV>
-0.463219

>  <SCORE.INTRA.SOLV.lig_0>
-65.9238

>  <SCORE.INTRA.VDW>
-0.210567

>  <SCORE.INTRA.VDW.0>
-0.405582

>  <SCORE.INTRA.norm>
-0.0829842

>  <SCORE.RESTR>
0

>  <SCORE.RESTR.CAVITY>
0

>  <SCORE.RESTR.norm>
0

>  <SCORE.SYSTEM>
0

>  <SCORE.SYSTEM.CONST>
0

>  <SCORE.SYSTEM.DIHEDRAL>
0

>  <SCORE.SYSTEM.SOLV>
0

>  <SCORE.SYSTEM.norm>
0

>  <SCORE.heavy>
26

>  <SCORE.norm>
-0.585143

>  <RMSD>
7.023

$$$$
ligand
 OpenBabel11021811443D
libRbt.so/2013.1/901 2013/11/27
 26 28  0  0  0  0  0  0  0  0999 V2000
   22.9487   46.2799   66.8601 C   0  0  0  0  0  0  0  0  0  0  0  0
   26.8073   40.9090   68.5274 C   0  0  0  0  0  0  0  0  0  0  0  0
   22.1050   38.5102   67.0014 P   0  0  1  0  0  0  0  0  0  0  0  0
   20.4357   40.1073   65.8399 P   0  0  1  0  0  0  0  0  0  0  0  0
   27.4449   42.7999   66.5557 C   0  0  0  0  0  0  0  0  0  0  0  0
   25.3419   43.6120   67.6645 C   0  0  0  0  0  0  0  0  0  0  0  0
   26.2552   43.7216   66.6349 C   0  0  0  0  0  0  0  0  0  0  0  0
   26.0489   44.7084   65.6693 C   0  0  0  0  0  0  0  0  0  0  0  0
   26.9370   44.8592   64.6148 N   0  0  0  0  0  0  0  0  0  0  0  0
   24.9843   45.4985   65.7722 N   0  0  0  0  0  0  0  0  0  0  0  0
   24.1402   45.3621   66.7742 C   0  0  0  0  0  0  0  0  0  0  0  0
   24.3065   44.4401   67.7023 N   0  0  0  0  0  0  0  0  0  0  0  0
   21.6071   37.3297   67.7431 O   0  0  0  0  0  0  0  0  0  0  0  0
   20.5908   38.9042   64.8825 O   0  0  0  0  0  0  0  0  0  0  0  0
   26.3681   39.5392   64.8842 S   0  0  0  0  0  0  0  0  0  0  0  0
   26.9182   41.1867   64.8626 C   0  0  0  0  0  0  0  0  0  0  0  0
   22.1529   38.1757   65.4286 O   0  0  0  0  0  0  0  0  0  0  0  0
   18.8728   40.4220   66.0605 O   0  5  0  0  0  0  0  0  0  0  0  0
   27.0030   41.4660   66.1427 N   0  0  0  0  0  0  0  0  0  0  0  0
   21.1190   39.7579   67.2554 O   0  0  0  0  0  0  0  0  0  0  0  0
   21.1278   41.3447   65.2255 O   0  0  0  0  0  0  0  0  0  0  0  0
   26.7035   40.5733   67.0610 C   0  0  2  0  0  0  0  0  0  0  0  0
   26.2912   39.3443   66.6585 C   0  0  2  0  0  0  0  0  0  0  0  0
   25.8856   38.1480   67.4791 C   0  0  0  0  0  0  0  0  0  0  0  0
   24.4308   37.7856   67.1722 C   0  0  0  0  0  0  0  0  0  0  0  0
   23.5842   38.8842   67.5165 O   0  0  0  0  0  0  0  0  0  0  0  0
  1 11  1  0  0  0  0
  3 13  1  1  0  0  0
  3 17  1  0  0  0  0
  3 20  1  0  0  0  0
  3 26  1  0  0  0  0
  4 14  1  0  0  0  0
  4 18  1  1  0  0  0
  4 21  2  0  0  0  0
  4 20  1  0  0  0  0
  5 19  1  0  0  0  0
  5  7  1  0  0  0  0
  6  7  2  0  0  0  0
  6 12  1  0  0  0  0
  7  8  1  0  0  0  0
  8  9  1  0  0  0  0
  8 10  2  0  0  0  0
 10 11  1  0  0  0  0
 11 12  2  0  0  0  0
 14 17  1  0  0  0  0
 15 23  1  0  0  0  0
 15 16  1  0  0  0  0
 16 19  1  0  0  0  0
 19 22  1  0  0  0  0
 22  2  1  6  0  0  0
 22 23  1  0  0  0  0
 23 24  1  1  0  0  0
 24 25  1  0  0  0  0
 25 26  1  0  0  0  0
M  CHG  1  18  -1
M  END
>  <CHROM.1>
87.73705565,73.28084893,-61.44381646,-60.96997931,173.08489031,64.43880351
23.94437493,40.95617113,66.39013725,0.80804859,-0.03300943,-0.05361653

>  <Name>
ligand

>  <RI>
0

>  <Rbt.Current_Directory>
/home/itssahil/PROJECTS/Mol_Feturizer/New_Systems/rnas/2HOL

>  <Rbt.Executable>
rbdock ($Id: //depot/dev/client3/rdock/2013.1/src/exe/rbdock.cxx#4 $)

>  <Rbt.Library>
libRbt.so (2013.1, Build901 2013/11/27)

>  <Rbt.Parameter_File>
/export/apps/rDock/src/rDock_2013.1_src/data/scripts/dock_solv.prm

>  <Rbt.Receptor>
prm/pocket_docking_7.prm

>  <SCORE>
-16.495

>  <SCORE.INTER>
-12.5663

>  <SCORE.INTER.CONST>
1

>  <SCORE.INTER.POLAR>
0

>  <SCORE.INTER.ROT>
6

>  <SCORE.INTER.SOLV>
15.9613

>  <SCORE.INTER.VDW>
-21.298

>  <SCORE.INTER.norm>
-0.48332

>  <SCORE.INTRA>
-3.92866

>  <SCORE.INTRA.DIHEDRAL>
-3.90136

>  <SCORE.INTRA.DIHEDRAL.0>
9.33621

>  <SCORE.INTRA.POLAR>
0

>  <SCORE.INTRA.POLAR.0>
0

>  <SCORE.INTRA.REPUL>
0

>  <SCORE.INTRA.REPUL.0>
0

>  <SCORE.INTRA.SOLV>
-0.120706

>  <SCORE.INTRA.SOLV.lig_0>
-65.9238

>  <SCORE.INTRA.VDW>
-1.91763

>  <SCORE.INTRA.VDW.0>
-0.405582

>  <SCORE.INTRA.norm>
-0.151102

>  <SCORE.RESTR>
0

>  <SCORE.RESTR.CAVITY>
0

>  <SCORE.RESTR.norm>
0

>  <SCORE.SYSTEM>
0

>  <SCORE.SYSTEM.CONST>
0

>  <SCORE.SYSTEM.DIHEDRAL>
0

>  <SCORE.SYSTEM.SOLV>
0

>  <SCORE.SYSTEM.norm>
0

>  <SCORE.heavy>
26

>  <SCORE.norm>
-0.634423

>  <RMSD>
7.103

$$$$
ligand
 OpenBabel11021811443D
libRbt.so/2013.1/901 2013/11/27
 26 28  0  0  0  0  0  0  0  0999 V2000
   25.4150   35.9140   73.0568 C   0  0  0  0  0  0  0  0  0  0  0  0
   22.6260   37.4082   65.9953 C   0  0  0  0  0  0  0  0  0  0  0  0
   23.7292   43.9783   66.3005 P   0  0  1  0  0  0  0  0  0  0  0  0
   24.9041   45.5708   64.6362 P   0  0  1  0  0  0  0  0  0  0  0  0
   21.9291   36.7780   68.6386 C   0  0  0  0  0  0  0  0  0  0  0  0
   22.4202   35.8735   70.9304 C   0  0  0  0  0  0  0  0  0  0  0  0
   22.8529   36.5501   69.8073 C   0  0  0  0  0  0  0  0  0  0  0  0
   24.1680   37.0175   69.7817 C   0  0  0  0  0  0  0  0  0  0  0  0
   24.6509   37.7033   68.6772 N   0  0  0  0  0  0  0  0  0  0  0  0
   24.9500   36.8004   70.8351 N   0  0  0  0  0  0  0  0  0  0  0  0
   24.4974   36.1457   71.8847 C   0  0  0  0  0  0  0  0  0  0  0  0
   23.2606   35.6916   71.9403 N   0  0  0  0  0  0  0  0  0  0  0  0
   24.3153   43.7422   67.6393 O   0  0  0  0  0  0  0  0  0  0  0  0
   24.1302   46.4883   65.6096 O   0  0  0  0  0  0  0  0  0  0  0  0
   21.9130   40.5710   68.1932 S   0  0  0  0  0  0  0  0  0  0  0  0
   21.7151   39.1162   69.1215 C   0  0  0  0  0  0  0  0  0  0  0  0
   22.9044   45.3594   66.3111 O   0  0  0  0  0  0  0  0  0  0  0  0
   26.4189   46.0951   64.4915 O   0  5  0  0  0  0  0  0  0  0  0  0
   21.9874   38.1851   68.2367 N   0  0  0  0  0  0  0  0  0  0  0  0
   24.9082   44.0652   65.2069 O   0  0  0  0  0  0  0  0  0  0  0  0
   24.2170   45.5951   63.2523 O   0  0  0  0  0  0  0  0  0  0  0  0
   22.3146   38.4891   66.9996 C   0  0  2  0  0  0  0  0  0  0  0  0
   22.3584   39.7986   66.6450 C   0  0  2  0  0  0  0  0  0  0  0  0
   22.6932   40.4260   65.3172 C   0  0  0  0  0  0  0  0  0  0  0  0
   23.5657   41.6633   65.5406 C   0  0  0  0  0  0  0  0  0  0  0  0
   22.7400   42.7644   65.9250 O   0  0  0  0  0  0  0  0  0  0  0  0
  1 11  1  0  0  0  0
  3 13  1  1  0  0  0
  3 17  1  0  0  0  0
  3 20  1  0  0  0  0
  3 26  1  0  0  0  0
  4 14  1  0  0  0  0
  4 18  1  6  0  0  0
  4 21  2  0  0  0  0
  4 20  1  0  0  0  0
  5 19  1  0  0  0  0
  5  7  1  0  0  0  0
  6  7  2  0  0  0  0
  6 12  1  0  0  0  0
  7  8  1  0  0  0  0
  8  9  1  0  0  0  0
  8 10  2  0  0  0  0
 10 11  1  0  0  0  0
 11 12  2  0  0  0  0
 14 17  1  0  0  0  0
 15 23  1  0  0  0  0
 15 16  1  0  0  0  0
 16 19  1  0  0  0  0
 19 22  1  0  0  0  0
 22  2  1  6  0  0  0
 22 23  1  0  0  0  0
 23 24  1  1  0  0  0
 24 25  1  0  0  0  0
 25 26  1  0  0  0  0
M  CHG  1  18  -1
M  END
>  <CHROM.1>
-56.74674615,131.41692776,40.87735948,-79.88485131,173.85159203,-76.88881717
23.56417313,40.90012603,67.44747170,-1.69922849,-0.76300512,-0.64662713

>  <Name>
ligand

>  <RI>
0

>  <Rbt.Current_Directory>
/home/itssahil/PROJECTS/Mol_Feturizer/New_Systems/rnas/2HOL

>  <Rbt.Executable>
rbdock ($Id: //depot/dev/client3/rdock/2013.1/src/exe/rbdock.cxx#4 $)

>  <Rbt.Library>
libRbt.so (2013.1, Build901 2013/11/27)

>  <Rbt.Parameter_File>
/export/apps/rDock/src/rDock_2013.1_src/data/scripts/dock_solv.prm

>  <Rbt.Receptor>
prm/pocket_docking_6.prm

>  <SCORE>
-16.002

>  <SCORE.INTER>
-14.8753

>  <SCORE.INTER.CONST>
1

>  <SCORE.INTER.POLAR>
0

>  <SCORE.INTER.ROT>
6

>  <SCORE.INTER.SOLV>
13.5323

>  <SCORE.INTER.VDW>
-22.0277

>  <SCORE.INTER.norm>
-0.572129

>  <SCORE.INTRA>
-1.12928

>  <SCORE.INTRA.DIHEDRAL>
-2.31149

>  <SCORE.INTRA.DIHEDRAL.0>
9.33621

>  <SCORE.INTRA.POLAR>
0

>  <SCORE.INTRA.POLAR.0>
0

>  <SCORE.INTRA.REPUL>
0

>  <SCORE.INTRA.REPUL.0>
0

>  <SCORE.INTRA.SOLV>
3.75385

>  <SCORE.INTRA.SOLV.lig_0>
-65.9238

>  <SCORE.INTRA.VDW>
-1.85046

>  <SCORE.INTRA.VDW.0>
-0.405582

>  <SCORE.INTRA.norm>
-0.0434339

>  <SCORE.RESTR>
0.00265759

>  <SCORE.RESTR.CAVITY>
0.00265759

>  <SCORE.RESTR.norm>
0.000102215

>  <SCORE.SYSTEM>
0

>  <SCORE.SYSTEM.CONST>
0

>  <SCORE.SYSTEM.DIHEDRAL>
0

>  <SCORE.SYSTEM.SOLV>
0

>  <SCORE.SYSTEM.norm>
0

>  <SCORE.heavy>
26

>  <SCORE.norm>
-0.61546

>  <RMSD>
7.106

$$$$
ligand
 OpenBabel11021811443D
libRbt.so/2013.1/901 2013/11/27
 26 28  0  0  0  0  0  0  0  0999 V2000
   26.0647   36.0589   72.6424 C   0  0  0  0  0  0  0  0  0  0  0  0
   22.7741   37.5576   66.1546 C   0  0  0  0  0  0  0  0  0  0  0  0
   25.1553   43.3769   66.5171 P   0  0  1  0  0  0  0  0  0  0  0  0
   23.6711   45.4912   66.4002 P   0  0  1  0  0  0  0  0  0  0  0  0
   21.9820   37.0114   68.7898 C   0  0  0  0  0  0  0  0  0  0  0  0
   24.2981   37.3626   69.6977 C   0  0  0  0  0  0  0  0  0  0  0  0
   23.0618   36.7583   69.8102 C   0  0  0  0  0  0  0  0  0  0  0  0
   22.8371   35.9071   70.8936 C   0  0  0  0  0  0  0  0  0  0  0  0
   21.6126   35.2755   71.0516 N   0  0  0  0  0  0  0  0  0  0  0  0
   23.8172   35.7060   71.7695 N   0  0  0  0  0  0  0  0  0  0  0  0
   24.9806   36.3070   71.6263 C   0  0  0  0  0  0  0  0  0  0  0  0
   25.2247   37.1164   70.6142 N   0  0  0  0  0  0  0  0  0  0  0  0
   26.6299   43.5069   66.5336 O   0  0  0  0  0  0  0  0  0  0  0  0
   24.0949   45.3653   67.8810 O   0  0  0  0  0  0  0  0  0  0  0  0
   21.9637   40.7873   68.2173 S   0  0  0  0  0  0  0  0  0  0  0  0
   21.7385   39.3630   69.1858 C   0  0  0  0  0  0  0  0  0  0  0  0
   24.5773   43.6266   67.9974 O   0  0  0  0  0  0  0  0  0  0  0  0
   23.9310   46.9960   65.8918 O   0  5  0  0  0  0  0  0  0  0  0  0
   22.0483   38.4047   68.3434 N   0  0  0  0  0  0  0  0  0  0  0  0
   24.5325   44.4653   65.5067 O   0  0  0  0  0  0  0  0  0  0  0  0
   22.1689   45.1551   66.2659 O   0  0  0  0  0  0  0  0  0  0  0  0
   22.4200   38.6693   67.1099 C   0  0  2  0  0  0  0  0  0  0  0  0
   22.4705   39.9666   66.7135 C   0  0  2  0  0  0  0  0  0  0  0  0
   22.8515   40.5515   65.3788 C   0  0  0  0  0  0  0  0  0  0  0  0
   23.3964   41.9678   65.5768 C   0  0  0  0  0  0  0  0  0  0  0  0
   24.7515   41.8978   66.0250 O   0  0  0  0  0  0  0  0  0  0  0  0
  1 11  1  0  0  0  0
  3 13  1  1  0  0  0
  3 17  1  0  0  0  0
  3 20  1  0  0  0  0
  3 26  1  0  0  0  0
  4 14  1  0  0  0  0
  4 18  1  6  0  0  0
  4 21  2  0  0  0  0
  4 20  1  0  0  0  0
  5 19  1  0  0  0  0
  5  7  1  0  0  0  0
  6  7  2  0  0  0  0
  6 12  1  0  0  0  0
  7  8  1  0  0  0  0
  8  9  1  0  0  0  0
  8 10  2  0  0  0  0
 10 11  1  0  0  0  0
 11 12  2  0  0  0  0
 14 17  1  0  0  0  0
 15 23  1  0  0  0  0
 15 16  1  0  0  0  0
 16 19  1  0  0  0  0
 19 22  1  0  0  0  0
 22  2  1  6  0  0  0
 22 23  1  0  0  0  0
 23 24  1  1  0  0  0
 24 25  1  0  0  0  0
 25 26  1  0  0  0  0
M  CHG  1  18  -1
M  END
>  <CHROM.1>
-68.18807570,-36.22302730,26.75103720,79.06612329,-167.91642481,-159.87028381
23.62330447,40.75633099,67.95455624,-1.65399988,-0.62786726,-0.51626179

>  <Name>
ligand

>  <RI>
0

>  <Rbt.Current_Directory>
/home/itssahil/PROJECTS/Mol_Feturizer/New_Systems/rnas/2HOL

>  <Rbt.Executable>
rbdock ($Id: //depot/dev/client3/rdock/2013.1/src/exe/rbdock.cxx#4 $)

>  <Rbt.Library>
libRbt.so (2013.1, Build901 2013/11/27)

>  <Rbt.Parameter_File>
/export/apps/rDock/src/rDock_2013.1_src/data/scripts/dock_solv.prm

>  <Rbt.Receptor>
prm/pocket_docking_7.prm

>  <SCORE>
-17.9065

>  <SCORE.INTER>
-15.3054

>  <SCORE.INTER.CONST>
1

>  <SCORE.INTER.POLAR>
0

>  <SCORE.INTER.ROT>
6

>  <SCORE.INTER.SOLV>
17.9108

>  <SCORE.INTER.VDW>
-23.7739

>  <SCORE.INTER.norm>
-0.58867

>  <SCORE.INTRA>
-2.60106

>  <SCORE.INTRA.DIHEDRAL>
-1.95079

>  <SCORE.INTRA.DIHEDRAL.0>
9.33621

>  <SCORE.INTRA.POLAR>
0

>  <SCORE.INTRA.POLAR.0>
0

>  <SCORE.INTRA.REPUL>
0

>  <SCORE.INTRA.REPUL.0>
0

>  <SCORE.INTRA.SOLV>
0.219799

>  <SCORE.INTRA.SOLV.lig_0>
-65.9238

>  <SCORE.INTRA.VDW>
-1.73556

>  <SCORE.INTRA.VDW.0>
-0.405582

>  <SCORE.INTRA.norm>
-0.100041

>  <SCORE.RESTR>
0

>  <SCORE.RESTR.CAVITY>
0

>  <SCORE.RESTR.norm>
0

>  <SCORE.SYSTEM>
0

>  <SCORE.SYSTEM.CONST>
0

>  <SCORE.SYSTEM.DIHEDRAL>
0

>  <SCORE.SYSTEM.SOLV>
0

>  <SCORE.SYSTEM.norm>
0

>  <SCORE.heavy>
26

>  <SCORE.norm>
-0.68871

>  <RMSD>
7.185

$$$$
ligand
 OpenBabel11021811443D
libRbt.so/2013.1/901 2013/11/27
 26 28  0  0  0  0  0  0  0  0999 V2000
   28.6195   37.9688   67.5754 C   0  0  0  0  0  0  0  0  0  0  0  0
   21.8787   39.9138   68.6670 C   0  0  0  0  0  0  0  0  0  0  0  0
   23.6820   43.5656   67.0898 P   0  0  1  0  0  0  0  0  0  0  0  0
   23.9755   45.1556   65.0719 P   0  0  1  0  0  0  0  0  0  0  0  0
   22.9674   37.4192   67.9877 C   0  0  0  0  0  0  0  0  0  0  0  0
   25.0372   38.2014   66.7977 C   0  0  0  0  0  0  0  0  0  0  0  0
   24.4636   37.5639   67.8798 C   0  0  0  0  0  0  0  0  0  0  0  0
   25.3049   37.0571   68.8718 C   0  0  0  0  0  0  0  0  0  0  0  0
   24.7784   36.4079   69.9785 N   0  0  0  0  0  0  0  0  0  0  0  0
   26.6200   37.2007   68.7371 N   0  0  0  0  0  0  0  0  0  0  0  0
   27.1248   37.8203   67.6900 C   0  0  0  0  0  0  0  0  0  0  0  0
   26.3576   38.3101   66.7357 N   0  0  0  0  0  0  0  0  0  0  0  0
   24.7982   43.3615   68.0406 O   0  0  0  0  0  0  0  0  0  0  0  0
   23.6805   46.0722   66.2806 O   0  0  0  0  0  0  0  0  0  0  0  0
   21.4357   39.0231   64.8785 S   0  0  0  0  0  0  0  0  0  0  0  0
   22.2672   37.7506   65.7192 C   0  0  0  0  0  0  0  0  0  0  0  0
   22.9105   44.9300   67.4518 O   0  0  0  0  0  0  0  0  0  0  0  0
   25.2628   45.7075   64.2790 O   0  5  0  0  0  0  0  0  0  0  0  0
   22.3225   38.2195   66.9443 N   0  0  0  0  0  0  0  0  0  0  0  0
   24.2646   43.6592   65.5914 O   0  0  0  0  0  0  0  0  0  0  0  0
   22.7540   45.1452   64.1256 O   0  0  0  0  0  0  0  0  0  0  0  0
   21.8084   39.3896   67.2549 C   0  0  2  0  0  0  0  0  0  0  0  0
   21.2193   40.1187   66.2731 C   0  0  2  0  0  0  0  0  0  0  0  0
   20.5624   41.4725   66.3412 C   0  0  0  0  0  0  0  0  0  0  0  0
   21.6278   42.5652   66.2277 C   0  0  0  0  0  0  0  0  0  0  0  0
   22.6580   42.3267   67.1890 O   0  0  0  0  0  0  0  0  0  0  0  0
  1 11  1  0  0  0  0
  3 13  1  1  0  0  0
  3 17  1  0  0  0  0
  3 20  1  0  0  0  0
  3 26  1  0  0  0  0
  4 14  1  0  0  0  0
  4 18  1  6  0  0  0
  4 21  2  0  0  0  0
  4 20  1  0  0  0  0
  5 19  1  0  0  0  0
  5  7  1  0  0  0  0
  6  7  2  0  0  0  0
  6 12  1  0  0  0  0
  7  8  1  0  0  0  0
  8  9  1  0  0  0  0
  8 10  2  0  0  0  0
 10 11  1  0  0  0  0
 11 12  2  0  0  0  0
 14 17  1  0  0  0  0
 15 23  1  0  0  0  0
 15 16  1  0  0  0  0
 16 19  1  0  0  0  0
 19 22  1  0  0  0  0
 22  2  1  6  0  0  0
 22 23  1  0  0  0  0
 23 24  1  1  0  0  0
 24 25  1  0  0  0  0
 25 26  1  0  0  0  0
M  CHG  1  18  -1
M  END
>  <CHROM.1>
79.24019579,-9.20095917,-96.46412381,-52.13727418,-175.87202888,-178.52914430
23.68880653,41.05962105,66.72575267,-1.39745975,-0.24480547,-0.24589184

>  <Name>
ligand

>  <RI>
0

>  <Rbt.Current_Directory>
/home/itssahil/PROJECTS/Mol_Feturizer/New_Systems/rnas/2HOL

>  <Rbt.Executable>
rbdock ($Id: //depot/dev/client3/rdock/2013.1/src/exe/rbdock.cxx#4 $)

>  <Rbt.Library>
libRbt.so (2013.1, Build901 2013/11/27)

>  <Rbt.Parameter_File>
/export/apps/rDock/src/rDock_2013.1_src/data/scripts/dock_solv.prm

>  <Rbt.Receptor>
prm/pocket_docking_7.prm

>  <SCORE>
-16.5398

>  <SCORE.INTER>
-13.2202

>  <SCORE.INTER.CONST>
1

>  <SCORE.INTER.POLAR>
0

>  <SCORE.INTER.ROT>
6

>  <SCORE.INTER.SOLV>
15.5538

>  <SCORE.INTER.VDW>
-21.5981

>  <SCORE.INTER.norm>
-0.508471

>  <SCORE.INTRA>
-3.31958

>  <SCORE.INTRA.DIHEDRAL>
-4.24144

>  <SCORE.INTRA.DIHEDRAL.0>
9.33621

>  <SCORE.INTRA.POLAR>
0

>  <SCORE.INTRA.POLAR.0>
0

>  <SCORE.INTRA.REPUL>
0

>  <SCORE.INTRA.REPUL.0>
0

>  <SCORE.INTRA.SOLV>
0.707917

>  <SCORE.INTRA.SOLV.lig_0>
-65.9238

>  <SCORE.INTRA.VDW>
-1.55282

>  <SCORE.INTRA.VDW.0>
-0.405582

>  <SCORE.INTRA.norm>
-0.127676

>  <SCORE.RESTR>
0

>  <SCORE.RESTR.CAVITY>
0

>  <SCORE.RESTR.norm>
0

>  <SCORE.SYSTEM>
0

>  <SCORE.SYSTEM.CONST>
0

>  <SCORE.SYSTEM.DIHEDRAL>
0

>  <SCORE.SYSTEM.SOLV>
0

>  <SCORE.SYSTEM.norm>
0

>  <SCORE.heavy>
26

>  <SCORE.norm>
-0.636147

>  <RMSD>
7.194

$$$$
ligand
 OpenBabel11021811443D
libRbt.so/2013.1/901 2013/11/27
 26 28  0  0  0  0  0  0  0  0999 V2000
   21.0514   36.8147   69.5413 C   0  0  0  0  0  0  0  0  0  0  0  0
   26.6184   39.7485   66.9791 C   0  0  0  0  0  0  0  0  0  0  0  0
   24.1962   45.0364   66.4149 P   0  0  1  0  0  0  0  0  0  0  0  0
   22.0114   43.6927   66.7424 P   0  0  1  0  0  0  0  0  0  0  0  0
   26.6007   38.0441   69.2072 C   0  0  0  0  0  0  0  0  0  0  0  0
   24.2169   38.3401   68.4713 C   0  0  0  0  0  0  0  0  0  0  0  0
   25.1322   37.7178   69.2967 C   0  0  0  0  0  0  0  0  0  0  0  0
   24.6627   36.7783   70.2163 C   0  0  0  0  0  0  0  0  0  0  0  0
   25.5413   36.1258   71.0682 N   0  0  0  0  0  0  0  0  0  0  0  0
   23.3588   36.5221   70.2675 N   0  0  0  0  0  0  0  0  0  0  0  0
   22.5208   37.1358   69.4575 C   0  0  0  0  0  0  0  0  0  0  0  0
   22.9321   38.0283   68.5782 N   0  0  0  0  0  0  0  0  0  0  0  0
   24.2011   46.2459   65.5613 O   0  0  0  0  0  0  0  0  0  0  0  0
   21.9045   44.8962   67.7058 O   0  0  0  0  0  0  0  0  0  0  0  0
   27.1448   41.6418   70.3674 S   0  0  0  0  0  0  0  0  0  0  0  0
   26.9596   39.9355   70.6354 C   0  0  0  0  0  0  0  0  0  0  0  0
   23.6298   45.4103   67.8733 O   0  0  0  0  0  0  0  0  0  0  0  0
   20.6542   43.5657   65.8866 O   0  5  0  0  0  0  0  0  0  0  0  0
   26.7957   39.4807   69.4146 N   0  0  0  0  0  0  0  0  0  0  0  0
   23.2570   43.9121   65.7460 O   0  0  0  0  0  0  0  0  0  0  0  0
   22.2271   42.3990   67.5594 O   0  0  0  0  0  0  0  0  0  0  0  0
   26.8066   40.2864   68.3752 C   0  0  2  0  0  0  0  0  0  0  0  0
   26.9838   41.6152   68.5882 C   0  0  2  0  0  0  0  0  0  0  0  0
   27.0345   42.7506   67.5998 C   0  0  0  0  0  0  0  0  0  0  0  0
   25.6309   43.3317   67.4144 C   0  0  0  0  0  0  0  0  0  0  0  0
   25.6968   44.4681   66.5506 O   0  0  0  0  0  0  0  0  0  0  0  0
  1 11  1  0  0  0  0
  3 13  1  6  0  0  0
  3 17  1  0  0  0  0
  3 20  1  0  0  0  0
  3 26  1  0  0  0  0
  4 14  1  0  0  0  0
  4 18  1  6  0  0  0
  4 21  2  0  0  0  0
  4 20  1  0  0  0  0
  5 19  1  0  0  0  0
  5  7  1  0  0  0  0
  6  7  2  0  0  0  0
  6 12  1  0  0  0  0
  7  8  1  0  0  0  0
  8  9  1  0  0  0  0
  8 10  2  0  0  0  0
 10 11  1  0  0  0  0
 11 12  2  0  0  0  0
 14 17  1  0  0  0  0
 15 23  1  0  0  0  0
 15 16  1  0  0  0  0
 16 19  1  0  0  0  0
 19 22  1  0  0  0  0
 22  2  1  1  0  0  0
 22 23  1  0  0  0  0
 23 24  1  6  0  0  0
 24 25  1  0  0  0  0
 25 26  1  0  0  0  0
M  CHG  1  18  -1
M  END
>  <CHROM.1>
88.49993366,57.03876475,-88.70386816,175.90089627,-179.33071017,178.27177596
24.44874670,41.40419814,68.15334387,1.38586910,0.23472179,2.75501616

>  <Name>
ligand

>  <RI>
0

>  <Rbt.Current_Directory>
/home/itssahil/PROJECTS/Mol_Feturizer/New_Systems/rnas/2HOL

>  <Rbt.Executable>
rbdock ($Id: //depot/dev/client3/rdock/2013.1/src/exe/rbdock.cxx#4 $)

>  <Rbt.Library>
libRbt.so (2013.1, Build901 2013/11/27)

>  <Rbt.Parameter_File>
/export/apps/rDock/src/rDock_2013.1_src/data/scripts/dock_solv.prm

>  <Rbt.Receptor>
prm/pocket_docking_7.prm

>  <SCORE>
-19.108

>  <SCORE.INTER>
-15.106

>  <SCORE.INTER.CONST>
1

>  <SCORE.INTER.POLAR>
0

>  <SCORE.INTER.ROT>
6

>  <SCORE.INTER.SOLV>
15.3264

>  <SCORE.INTER.VDW>
-22.7795

>  <SCORE.INTER.norm>
-0.581

>  <SCORE.INTRA>
-4.00195

>  <SCORE.INTRA.DIHEDRAL>
-4.36741

>  <SCORE.INTRA.DIHEDRAL.0>
9.33621

>  <SCORE.INTRA.POLAR>
0

>  <SCORE.INTRA.POLAR.0>
0

>  <SCORE.INTRA.REPUL>
0

>  <SCORE.INTRA.REPUL.0>
0

>  <SCORE.INTRA.SOLV>
0.104445

>  <SCORE.INTRA.SOLV.lig_0>
-65.9238

>  <SCORE.INTRA.VDW>
-1.87047

>  <SCORE.INTRA.VDW.0>
-0.405582

>  <SCORE.INTRA.norm>
-0.153921

>  <SCORE.RESTR>
0

>  <SCORE.RESTR.CAVITY>
0

>  <SCORE.RESTR.norm>
0

>  <SCORE.SYSTEM>
0

>  <SCORE.SYSTEM.CONST>
0

>  <SCORE.SYSTEM.DIHEDRAL>
0

>  <SCORE.SYSTEM.SOLV>
0

>  <SCORE.SYSTEM.norm>
0

>  <SCORE.heavy>
26

>  <SCORE.norm>
-0.734921

>  <RMSD>
7.197

$$$$
ligand
 OpenBabel11021811443D
libRbt.so/2013.1/901 2013/11/27
 26 28  0  0  0  0  0  0  0  0999 V2000
   26.4960   43.7387   64.0462 C   0  0  0  0  0  0  0  0  0  0  0  0
   25.1534   38.7050   68.3232 C   0  0  0  0  0  0  0  0  0  0  0  0
   20.7102   40.1883   66.4208 P   0  0  1  0  0  0  0  0  0  0  0  0
   22.3945   42.1158   66.7877 P   0  0  1  0  0  0  0  0  0  0  0  0
   26.3726   38.3312   65.8246 C   0  0  0  0  0  0  0  0  0  0  0  0
   25.3734   40.2859   64.6029 C   0  0  0  0  0  0  0  0  0  0  0  0
   26.4067   39.7627   65.3545 C   0  0  0  0  0  0  0  0  0  0  0  0
   27.4837   40.5935   65.6682 C   0  0  0  0  0  0  0  0  0  0  0  0
   28.5467   40.1158   66.4200 N   0  0  0  0  0  0  0  0  0  0  0  0
   27.4783   41.8490   65.2302 N   0  0  0  0  0  0  0  0  0  0  0  0
   26.4690   42.3088   64.5195 C   0  0  0  0  0  0  0  0  0  0  0  0
   25.4371   41.5499   64.2061 N   0  0  0  0  0  0  0  0  0  0  0  0
   19.5361   40.3878   65.5414 O   0  0  0  0  0  0  0  0  0  0  0  0
   22.7705   41.4925   65.4245 O   0  0  0  0  0  0  0  0  0  0  0  0
   22.7786   37.0472   65.6861 S   0  0  0  0  0  0  0  0  0  0  0  0
   24.3411   37.3649   64.9969 C   0  0  0  0  0  0  0  0  0  0  0  0
   22.0037   39.8580   65.5233 O   0  0  0  0  0  0  0  0  0  0  0  0
   22.2921   43.7151   66.6387 O   0  5  0  0  0  0  0  0  0  0  0  0
   24.9820   37.9091   66.0054 N   0  0  0  0  0  0  0  0  0  0  0  0
   20.9757   41.5289   67.2728 O   0  0  0  0  0  0  0  0  0  0  0  0
   23.4803   41.7647   67.8295 O   0  0  0  0  0  0  0  0  0  0  0  0
   24.4034   38.0796   67.1742 C   0  0  2  0  0  0  0  0  0  0  0  0
   23.1125   37.6865   67.3207 C   0  0  2  0  0  0  0  0  0  0  0  0
   22.2132   37.7640   68.5266 C   0  0  0  0  0  0  0  0  0  0  0  0
   21.3948   39.0560   68.4733 C   0  0  0  0  0  0  0  0  0  0  0  0
   20.4267   38.9629   67.4264 O   0  0  0  0  0  0  0  0  0  0  0  0
  1 11  1  0  0  0  0
  3 13  1  6  0  0  0
  3 17  1  0  0  0  0
  3 20  1  0  0  0  0
  3 26  1  0  0  0  0
  4 14  1  0  0  0  0
  4 18  1  6  0  0  0
  4 21  2  0  0  0  0
  4 20  1  0  0  0  0
  5 19  1  0  0  0  0
  5  7  1  0  0  0  0
  6  7  2  0  0  0  0
  6 12  1  0  0  0  0
  7  8  1  0  0  0  0
  8  9  1  0  0  0  0
  8 10  2  0  0  0  0
 10 11  1  0  0  0  0
 11 12  2  0  0  0  0
 14 17  1  0  0  0  0
 15 23  1  0  0  0  0
 15 16  1  0  0  0  0
 16 19  1  0  0  0  0
 19 22  1  0  0  0  0
 22  2  1  6  0  0  0
 22 23  1  0  0  0  0
 23 24  1  1  0  0  0
 24 25  1  0  0  0  0
 25 26  1  0  0  0  0
M  CHG  1  18  -1
M  END
>  <CHROM.1>
90.15409545,-29.35218360,-86.54113354,70.48896601,-121.66818555,-163.96141505
23.60070936,40.09961236,66.24091689,0.27462202,0.23423310,-0.18260392

>  <Name>
ligand

>  <RI>
0

>  <Rbt.Current_Directory>
/home/itssahil/PROJECTS/Mol_Feturizer/New_Systems/rnas/2HOL

>  <Rbt.Executable>
rbdock ($Id: //depot/dev/client3/rdock/2013.1/src/exe/rbdock.cxx#4 $)

>  <Rbt.Library>
libRbt.so (2013.1, Build901 2013/11/27)

>  <Rbt.Parameter_File>
/export/apps/rDock/src/rDock_2013.1_src/data/scripts/dock_solv.prm

>  <Rbt.Receptor>
prm/pocket_docking_8.prm

>  <SCORE>
-15.7247

>  <SCORE.INTER>
-13.5144

>  <SCORE.INTER.CONST>
1

>  <SCORE.INTER.POLAR>
0

>  <SCORE.INTER.ROT>
6

>  <SCORE.INTER.SOLV>
13.3256

>  <SCORE.INTER.VDW>
-21.0515

>  <SCORE.INTER.norm>
-0.519783

>  <SCORE.INTRA>
-2.21036

>  <SCORE.INTRA.DIHEDRAL>
3.58503

>  <SCORE.INTRA.DIHEDRAL.0>
9.33621

>  <SCORE.INTRA.POLAR>
0

>  <SCORE.INTRA.POLAR.0>
0

>  <SCORE.INTRA.REPUL>
0

>  <SCORE.INTRA.REPUL.0>
0

>  <SCORE.INTRA.SOLV>
2.2543

>  <SCORE.INTRA.SOLV.lig_0>
-65.9238

>  <SCORE.INTRA.VDW>
-5.13003

>  <SCORE.INTRA.VDW.0>
-0.405582

>  <SCORE.INTRA.norm>
-0.0850139

>  <SCORE.RESTR>
0

>  <SCORE.RESTR.CAVITY>
0

>  <SCORE.RESTR.norm>
0

>  <SCORE.SYSTEM>
0

>  <SCORE.SYSTEM.CONST>
0

>  <SCORE.SYSTEM.DIHEDRAL>
0

>  <SCORE.SYSTEM.SOLV>
0

>  <SCORE.SYSTEM.norm>
0

>  <SCORE.heavy>
26

>  <SCORE.norm>
-0.604797

>  <RMSD>
7.217

$$$$
ligand
 OpenBabel11021811443D
libRbt.so/2013.1/901 2013/11/27
 26 28  0  0  0  0  0  0  0  0999 V2000
   28.4984   42.3248   63.6108 C   0  0  0  0  0  0  0  0  0  0  0  0
   23.6454   40.7124   67.3301 C   0  0  0  0  0  0  0  0  0  0  0  0
   22.2822   44.4597   66.8874 P   0  0  1  0  0  0  0  0  0  0  0  0
   24.2714   44.6415   65.2453 P   0  0  1  0  0  0  0  0  0  0  0  0
   25.1055   38.5813   66.2364 C   0  0  0  0  0  0  0  0  0  0  0  0
   25.5296   40.3585   64.5120 C   0  0  0  0  0  0  0  0  0  0  0  0
   26.0047   39.5717   65.5422 C   0  0  0  0  0  0  0  0  0  0  0  0
   27.3393   39.7171   65.9250 C   0  0  0  0  0  0  0  0  0  0  0  0
   27.8651   38.9500   66.9538 N   0  0  0  0  0  0  0  0  0  0  0  0
   28.1013   40.5985   65.2841 N   0  0  0  0  0  0  0  0  0  0  0  0
   27.6055   41.3326   64.3093 C   0  0  0  0  0  0  0  0  0  0  0  0
   26.3495   41.2192   63.9237 N   0  0  0  0  0  0  0  0  0  0  0  0
   22.1513   45.4249   68.0023 O   0  0  0  0  0  0  0  0  0  0  0  0
   23.2496   45.7014   64.7755 O   0  0  0  0  0  0  0  0  0  0  0  0
   21.5942   38.6151   64.7346 S   0  0  0  0  0  0  0  0  0  0  0  0
   23.1987   37.9748   64.9164 C   0  0  0  0  0  0  0  0  0  0  0  0
   21.7150   45.1209   65.5350 O   0  0  0  0  0  0  0  0  0  0  0  0
   25.7317   45.3101   65.3494 O   0  5  0  0  0  0  0  0  0  0  0  0
   23.7222   38.7897   65.8028 N   0  0  0  0  0  0  0  0  0  0  0  0
   23.8339   44.0775   66.6886 O   0  0  0  0  0  0  0  0  0  0  0  0
   24.3093   43.4789   64.2281 O   0  0  0  0  0  0  0  0  0  0  0  0
   23.0304   39.7858   66.3118 C   0  0  2  0  0  0  0  0  0  0  0  0
   21.7515   39.9656   65.8938 C   0  0  2  0  0  0  0  0  0  0  0  0
   20.7443   41.0101   66.2976 C   0  0  0  0  0  0  0  0  0  0  0  0
   21.3053   42.4034   66.0040 C   0  0  0  0  0  0  0  0  0  0  0  0
   21.4428   43.1283   67.2278 O   0  0  0  0  0  0  0  0  0  0  0  0
  1 11  1  0  0  0  0
  3 13  1  1  0  0  0
  3 17  1  0  0  0  0
  3 20  1  0  0  0  0
  3 26  1  0  0  0  0
  4 14  1  0  0  0  0
  4 18  1  1  0  0  0
  4 21  2  0  0  0  0
  4 20  1  0  0  0  0
  5 19  1  0  0  0  0
  5  7  1  0  0  0  0
  6  7  2  0  0  0  0
  6 12  1  0  0  0  0
  7  8  1  0  0  0  0
  8  9  1  0  0  0  0
  8 10  2  0  0  0  0
 10 11  1  0  0  0  0
 11 12  2  0  0  0  0
 14 17  1  0  0  0  0
 15 23  1  0  0  0  0
 15 16  1  0  0  0  0
 16 19  1  0  0  0  0
 19 22  1  0  0  0  0
 22  2  1  6  0  0  0
 22 23  1  0  0  0  0
 23 24  1  1  0  0  0
 24 25  1  0  0  0  0
 25 26  1  0  0  0  0
M  CHG  1  18  -1
M  END
>  <CHROM.1>
102.06512197,-9.49969240,-121.80875982,-117.15650253,169.69612945,164.76425508
24.00367997,41.92529451,65.68545037,-1.01384879,0.22214315,0.03703191

>  <Name>
ligand

>  <RI>
0

>  <Rbt.Current_Directory>
/home/itssahil/PROJECTS/Mol_Feturizer/New_Systems/rnas/2HOL

>  <Rbt.Executable>
rbdock ($Id: //depot/dev/client3/rdock/2013.1/src/exe/rbdock.cxx#4 $)

>  <Rbt.Library>
libRbt.so (2013.1, Build901 2013/11/27)

>  <Rbt.Parameter_File>
/export/apps/rDock/src/rDock_2013.1_src/data/scripts/dock_solv.prm

>  <Rbt.Receptor>
prm/pocket_docking_6.prm

>  <SCORE>
-12.5396

>  <SCORE.INTER>
-12.3506

>  <SCORE.INTER.CONST>
1

>  <SCORE.INTER.POLAR>
0

>  <SCORE.INTER.ROT>
6

>  <SCORE.INTER.SOLV>
11.2108

>  <SCORE.INTER.VDW>
-19.5707

>  <SCORE.INTER.norm>
-0.475024

>  <SCORE.INTRA>
-0.189015

>  <SCORE.INTRA.DIHEDRAL>
1.5942

>  <SCORE.INTRA.DIHEDRAL.0>
9.33621

>  <SCORE.INTRA.POLAR>
0

>  <SCORE.INTRA.POLAR.0>
0

>  <SCORE.INTRA.REPUL>
0

>  <SCORE.INTRA.REPUL.0>
0

>  <SCORE.INTRA.SOLV>
2.22189

>  <SCORE.INTRA.SOLV.lig_0>
-65.9238

>  <SCORE.INTRA.VDW>
-2.09706

>  <SCORE.INTRA.VDW.0>
-0.405582

>  <SCORE.INTRA.norm>
-0.0072698

>  <SCORE.RESTR>
0

>  <SCORE.RESTR.CAVITY>
0

>  <SCORE.RESTR.norm>
0

>  <SCORE.SYSTEM>
0

>  <SCORE.SYSTEM.CONST>
0

>  <SCORE.SYSTEM.DIHEDRAL>
0

>  <SCORE.SYSTEM.SOLV>
0

>  <SCORE.SYSTEM.norm>
0

>  <SCORE.heavy>
26

>  <SCORE.norm>
-0.482294

>  <RMSD>
7.249

$$$$
ligand
 OpenBabel11021811443D
libRbt.so/2013.1/901 2013/11/27
 26 28  0  0  0  0  0  0  0  0999 V2000
   27.8407   38.6769   72.6207 C   0  0  0  0  0  0  0  0  0  0  0  0
   23.4000   38.7497   65.8257 C   0  0  0  0  0  0  0  0  0  0  0  0
   22.1386   43.4311   66.7912 P   0  0  1  0  0  0  0  0  0  0  0  0
   24.5757   43.2269   65.9513 P   0  0  1  0  0  0  0  0  0  0  0  0
   24.6448   37.5631   68.0420 C   0  0  0  0  0  0  0  0  0  0  0  0
   25.3631   37.1110   70.4066 C   0  0  0  0  0  0  0  0  0  0  0  0
   25.4913   37.8591   69.2532 C   0  0  0  0  0  0  0  0  0  0  0  0
   26.4253   38.8964   69.2373 C   0  0  0  0  0  0  0  0  0  0  0  0
   26.5919   39.6775   68.1035 N   0  0  0  0  0  0  0  0  0  0  0  0
   27.1494   39.1287   70.3282 N   0  0  0  0  0  0  0  0  0  0  0  0
   26.9979   38.3870   71.4061 C   0  0  0  0  0  0  0  0  0  0  0  0
   26.1245   37.4001   71.4535 N   0  0  0  0  0  0  0  0  0  0  0  0
   21.7172   44.6247   67.5588 O   0  0  0  0  0  0  0  0  0  0  0  0
   23.8670   44.1568   64.9408 O   0  0  0  0  0  0  0  0  0  0  0  0
   21.2469   38.9555   69.0912 S   0  0  0  0  0  0  0  0  0  0  0  0
   22.7515   38.1417   69.3936 C   0  0  0  0  0  0  0  0  0  0  0  0
   22.1228   43.7703   65.2188 O   0  0  0  0  0  0  0  0  0  0  0  0
   25.9638   43.8955   66.4166 O   0  5  0  0  0  0  0  0  0  0  0  0
   23.3215   38.1675   68.2111 N   0  0  0  0  0  0  0  0  0  0  0  0
   23.6278   43.0072   67.2342 O   0  0  0  0  0  0  0  0  0  0  0  0
   24.8604   41.8636   65.2819 O   0  0  0  0  0  0  0  0  0  0  0  0
   22.7317   38.7270   67.1772 C   0  0  2  0  0  0  0  0  0  0  0  0
   21.5034   39.2775   67.3527 C   0  0  2  0  0  0  0  0  0  0  0  0
   20.6078   39.9704   66.3594 C   0  0  0  0  0  0  0  0  0  0  0  0
   21.2156   41.3219   65.9772 C   0  0  0  0  0  0  0  0  0  0  0  0
   21.1257   42.2152   67.0889 O   0  0  0  0  0  0  0  0  0  0  0  0
  1 11  1  0  0  0  0
  3 13  1  1  0  0  0
  3 17  1  0  0  0  0
  3 20  1  0  0  0  0
  3 26  1  0  0  0  0
  4 14  1  0  0  0  0
  4 18  1  1  0  0  0
  4 21  2  0  0  0  0
  4 20  1  0  0  0  0
  5 19  1  0  0  0  0
  5  7  1  0  0  0  0
  6  7  2  0  0  0  0
  6 12  1  0  0  0  0
  7  8  1  0  0  0  0
  8  9  1  0  0  0  0
  8 10  2  0  0  0  0
 10 11  1  0  0  0  0
 11 12  2  0  0  0  0
 14 17  1  0  0  0  0
 15 23  1  0  0  0  0
 15 16  1  0  0  0  0
 16 19  1  0  0  0  0
 19 22  1  0  0  0  0
 22  2  1  6  0  0  0
 22 23  1  0  0  0  0
 23 24  1  1  0  0  0
 24 25  1  0  0  0  0
 25 26  1  0  0  0  0
M  CHG  1  18  -1
M  END
>  <CHROM.1>
-39.04164564,80.91024169,109.77806425,-70.30445528,163.73903047,156.71346115
23.77879374,40.66079485,67.78032307,-1.11257895,-0.31035938,-0.53962686

>  <Name>
ligand

>  <RI>
0

>  <Rbt.Current_Directory>
/home/itssahil/PROJECTS/Mol_Feturizer/New_Systems/rnas/2HOL

>  <Rbt.Executable>
rbdock ($Id: //depot/dev/client3/rdock/2013.1/src/exe/rbdock.cxx#4 $)

>  <Rbt.Library>
libRbt.so (2013.1, Build901 2013/11/27)

>  <Rbt.Parameter_File>
/export/apps/rDock/src/rDock_2013.1_src/data/scripts/dock_solv.prm

>  <Rbt.Receptor>
prm/pocket_docking_4.prm

>  <SCORE>
-14.5521

>  <SCORE.INTER>
-13.0908

>  <SCORE.INTER.CONST>
1

>  <SCORE.INTER.POLAR>
0

>  <SCORE.INTER.ROT>
6

>  <SCORE.INTER.SOLV>
10.5042

>  <SCORE.INTER.VDW>
-19.8286

>  <SCORE.INTER.norm>
-0.503494

>  <SCORE.INTRA>
-1.46123

>  <SCORE.INTRA.DIHEDRAL>
-2.32477

>  <SCORE.INTRA.DIHEDRAL.0>
9.33621

>  <SCORE.INTRA.POLAR>
0

>  <SCORE.INTRA.POLAR.0>
0

>  <SCORE.INTRA.REPUL>
0

>  <SCORE.INTRA.REPUL.0>
0

>  <SCORE.INTRA.SOLV>
2.62375

>  <SCORE.INTRA.SOLV.lig_0>
-65.9238

>  <SCORE.INTRA.VDW>
-1.61072

>  <SCORE.INTRA.VDW.0>
-0.405582

>  <SCORE.INTRA.norm>
-0.0562011

>  <SCORE.RESTR>
0

>  <SCORE.RESTR.CAVITY>
0

>  <SCORE.RESTR.norm>
0

>  <SCORE.SYSTEM>
0

>  <SCORE.SYSTEM.CONST>
0

>  <SCORE.SYSTEM.DIHEDRAL>
0

>  <SCORE.SYSTEM.SOLV>
0

>  <SCORE.SYSTEM.norm>
0

>  <SCORE.heavy>
26

>  <SCORE.norm>
-0.559695

>  <RMSD>
7.273

$$$$
ligand
 OpenBabel11021811443D
libRbt.so/2013.1/901 2013/11/27
 26 28  0  0  0  0  0  0  0  0999 V2000
   24.2505   44.4086   67.3820 C   0  0  0  0  0  0  0  0  0  0  0  0
   22.2054   37.7860   66.9958 C   0  0  0  0  0  0  0  0  0  0  0  0
   23.4414   32.9751   70.4592 P   0  0  1  0  0  0  0  0  0  0  0  0
   24.7374   33.4337   72.6494 P   0  0  1  0  0  0  0  0  0  0  0  0
   24.7827   38.8009   66.5519 C   0  0  0  0  0  0  0  0  0  0  0  0
   23.5477   40.8036   67.4325 C   0  0  0  0  0  0  0  0  0  0  0  0
   24.6431   40.2854   66.7708 C   0  0  0  0  0  0  0  0  0  0  0  0
   25.6184   41.1715   66.3100 C   0  0  0  0  0  0  0  0  0  0  0  0
   26.7374   40.7013   65.6391 N   0  0  0  0  0  0  0  0  0  0  0  0
   25.4557   42.4747   66.5188 N   0  0  0  0  0  0  0  0  0  0  0  0
   24.3968   42.9258   67.1594 C   0  0  0  0  0  0  0  0  0  0  0  0
   23.4578   42.1154   67.6069 N   0  0  0  0  0  0  0  0  0  0  0  0
   23.7910   31.8048   69.6227 O   0  0  0  0  0  0  0  0  0  0  0  0
   23.7090   32.3349   73.0002 O   0  0  0  0  0  0  0  0  0  0  0  0
   24.6685   37.0764   69.9575 S   0  0  0  0  0  0  0  0  0  0  0  0
   25.4655   37.9542   68.6880 C   0  0  0  0  0  0  0  0  0  0  0  0
   22.4944   32.5052   71.6717 O   0  0  0  0  0  0  0  0  0  0  0  0
   26.1924   32.9996   73.1830 O   0  5  0  0  0  0  0  0  0  0  0  0
   24.5048   38.0939   67.8040 N   0  0  0  0  0  0  0  0  0  0  0  0
   24.7873   33.6314   71.0522 O   0  0  0  0  0  0  0  0  0  0  0  0
   24.3187   34.7614   73.3198 O   0  0  0  0  0  0  0  0  0  0  0  0
   23.2987   37.6162   68.0204 C   0  0  2  0  0  0  0  0  0  0  0  0
   23.0619   36.9598   69.1847 C   0  0  2  0  0  0  0  0  0  0  0  0
   21.7963   36.3158   69.6870 C   0  0  0  0  0  0  0  0  0  0  0  0
   22.1421   35.0428   70.4628 C   0  0  0  0  0  0  0  0  0  0  0  0
   22.6655   34.0644   69.5623 O   0  0  0  0  0  0  0  0  0  0  0  0
  1 11  1  0  0  0  0
  3 13  1  6  0  0  0
  3 17  1  0  0  0  0
  3 20  1  0  0  0  0
  3 26  1  0  0  0  0
  4 14  1  0  0  0  0
  4 18  1  1  0  0  0
  4 21  2  0  0  0  0
  4 20  1  0  0  0  0
  5 19  1  0  0  0  0
  5  7  1  0  0  0  0
  6  7  2  0  0  0  0
  6 12  1  0  0  0  0
  7  8  1  0  0  0  0
  8  9  1  0  0  0  0
  8 10  2  0  0  0  0
 10 11  1  0  0  0  0
 11 12  2  0  0  0  0
 14 17  1  0  0  0  0
 15 23  1  0  0  0  0
 15 16  1  0  0  0  0
 16 19  1  0  0  0  0
 19 22  1  0  0  0  0
 22  2  1  6  0  0  0
 22 23  1  0  0  0  0
 23 24  1  1  0  0  0
 24 25  1  0  0  0  0
 25 26  1  0  0  0  0
M  CHG  1  18  -1
M  END
>  <CHROM.1>
-83.85019186,-47.16011119,-36.54082727,-67.73889600,161.83781289,169.52088138
24.09494795,36.73382635,69.46255404,-1.47564095,0.73820574,2.55609624

>  <Name>
ligand

>  <RI>
0

>  <Rbt.Current_Directory>
/home/itssahil/PROJECTS/Mol_Feturizer/New_Systems/rnas/2HOL

>  <Rbt.Executable>
rbdock ($Id: //depot/dev/client3/rdock/2013.1/src/exe/rbdock.cxx#4 $)

>  <Rbt.Library>
libRbt.so (2013.1, Build901 2013/11/27)

>  <Rbt.Parameter_File>
/export/apps/rDock/src/rDock_2013.1_src/data/scripts/dock_solv.prm

>  <Rbt.Receptor>
prm/blind_docking_100.prm

>  <SCORE>
-14.5503

>  <SCORE.INTER>
-10.9768

>  <SCORE.INTER.CONST>
1

>  <SCORE.INTER.POLAR>
0

>  <SCORE.INTER.ROT>
6

>  <SCORE.INTER.SOLV>
14.0504

>  <SCORE.INTER.VDW>
-19.6013

>  <SCORE.INTER.norm>
-0.422186

>  <SCORE.INTRA>
-3.653

>  <SCORE.INTRA.DIHEDRAL>
-2.48189

>  <SCORE.INTRA.DIHEDRAL.0>
9.33621

>  <SCORE.INTRA.POLAR>
0

>  <SCORE.INTRA.POLAR.0>
0

>  <SCORE.INTRA.REPUL>
0

>  <SCORE.INTRA.REPUL.0>
0

>  <SCORE.INTRA.SOLV>
0.118986

>  <SCORE.INTRA.SOLV.lig_0>
-65.9238

>  <SCORE.INTRA.VDW>
-2.47154

>  <SCORE.INTRA.VDW.0>
-0.405582

>  <SCORE.INTRA.norm>
-0.1405

>  <SCORE.RESTR>
0.0795684

>  <SCORE.RESTR.CAVITY>
0.0795684

>  <SCORE.RESTR.norm>
0.00306032

>  <SCORE.SYSTEM>
0

>  <SCORE.SYSTEM.CONST>
0

>  <SCORE.SYSTEM.DIHEDRAL>
0

>  <SCORE.SYSTEM.SOLV>
0

>  <SCORE.SYSTEM.norm>
0

>  <SCORE.heavy>
26

>  <SCORE.norm>
-0.559625

>  <RMSD>
7.299

$$$$
ligand
 OpenBabel11021811443D
libRbt.so/2013.1/901 2013/11/27
 26 28  0  0  0  0  0  0  0  0999 V2000
   22.2344   43.1744   66.7718 C   0  0  0  0  0  0  0  0  0  0  0  0
   21.6033   35.6216   70.0110 C   0  0  0  0  0  0  0  0  0  0  0  0
   24.5591   35.1789   75.1386 P   0  0  1  0  0  0  0  0  0  0  0  0
   26.0950   33.1110   74.9113 P   0  0  1  0  0  0  0  0  0  0  0  0
   21.9945   37.6448   68.1076 C   0  0  0  0  0  0  0  0  0  0  0  0
   21.8655   40.0792   68.7149 C   0  0  0  0  0  0  0  0  0  0  0  0
   22.0582   39.1081   67.7526 C   0  0  0  0  0  0  0  0  0  0  0  0
   22.3140   39.5161   66.4423 C   0  0  0  0  0  0  0  0  0  0  0  0
   22.5141   38.5798   65.4389 N   0  0  0  0  0  0  0  0  0  0  0  0
   22.3572   40.8167   66.1689 N   0  0  0  0  0  0  0  0  0  0  0  0
   22.1721   41.7099   67.1191 C   0  0  0  0  0  0  0  0  0  0  0  0
   21.9283   41.3574   68.3662 N   0  0  0  0  0  0  0  0  0  0  0  0
   23.5082   35.2101   76.1809 O   0  0  0  0  0  0  0  0  0  0  0  0
   26.6789   33.9326   76.0828 O   0  0  0  0  0  0  0  0  0  0  0  0
   25.1609   37.2489   70.2058 S   0  0  0  0  0  0  0  0  0  0  0  0
   24.2159   37.9788   68.9442 C   0  0  0  0  0  0  0  0  0  0  0  0
   25.9755   35.5726   75.7918 O   0  0  0  0  0  0  0  0  0  0  0  0
   25.9465   31.5711   75.3550 O   0  5  0  0  0  0  0  0  0  0  0  0
   23.0848   37.3176   69.0290 N   0  0  0  0  0  0  0  0  0  0  0  0
   24.6494   33.6977   74.5128 O   0  0  0  0  0  0  0  0  0  0  0  0
   27.0428   33.2067   73.6948 O   0  0  0  0  0  0  0  0  0  0  0  0
   22.9089   36.3712   69.9253 C   0  0  2  0  0  0  0  0  0  0  0  0
   23.9328   36.0790   70.7672 C   0  0  2  0  0  0  0  0  0  0  0  0
   24.0107   35.0562   71.8702 C   0  0  0  0  0  0  0  0  0  0  0  0
   23.2685   35.5754   73.1037 C   0  0  0  0  0  0  0  0  0  0  0  0
   24.1933   36.2298   73.9747 O   0  0  0  0  0  0  0  0  0  0  0  0
  1 11  1  0  0  0  0
  3 13  1  1  0  0  0
  3 17  1  0  0  0  0
  3 20  1  0  0  0  0
  3 26  1  0  0  0  0
  4 14  1  0  0  0  0
  4 18  1  1  0  0  0
  4 21  2  0  0  0  0
  4 20  1  0  0  0  0
  5 19  1  0  0  0  0
  5  7  1  0  0  0  0
  6  7  2  0  0  0  0
  6 12  1  0  0  0  0
  7  8  1  0  0  0  0
  8  9  1  0  0  0  0
  8 10  2  0  0  0  0
 10 11  1  0  0  0  0
 11 12  2  0  0  0  0
 14 17  1  0  0  0  0
 15 23  1  0  0  0  0
 15 16  1  0  0  0  0
 16 19  1  0  0  0  0
 19 22  1  0  0  0  0
 22  2  1  6  0  0  0
 22 23  1  0  0  0  0
 23 24  1  1  0  0  0
 24 25  1  0  0  0  0
 25 26  1  0  0  0  0
M  CHG  1  18  -1
M  END
>  <CHROM.1>
-31.22802793,-64.48560386,101.98305525,-93.69667880,-99.88604984,-82.55160571
23.97698582,36.60565619,71.44420052,2.72718030,1.23512799,-2.03379216

>  <Name>
ligand

>  <RI>
0

>  <Rbt.Current_Directory>
/home/itssahil/PROJECTS/Mol_Feturizer/New_Systems/rnas/2HOL

>  <Rbt.Executable>
rbdock ($Id: //depot/dev/client3/rdock/2013.1/src/exe/rbdock.cxx#4 $)

>  <Rbt.Library>
libRbt.so (2013.1, Build901 2013/11/27)

>  <Rbt.Parameter_File>
/export/apps/rDock/src/rDock_2013.1_src/data/scripts/dock_solv.prm

>  <Rbt.Receptor>
prm/blind_docking_100.prm

>  <SCORE>
-13.2303

>  <SCORE.INTER>
-15.4

>  <SCORE.INTER.CONST>
1

>  <SCORE.INTER.POLAR>
0

>  <SCORE.INTER.ROT>
6

>  <SCORE.INTER.SOLV>
16.5904

>  <SCORE.INTER.VDW>
-23.3968

>  <SCORE.INTER.norm>
-0.592309

>  <SCORE.INTRA>
2.16971

>  <SCORE.INTRA.DIHEDRAL>
4.7625

>  <SCORE.INTRA.DIHEDRAL.0>
9.33621

>  <SCORE.INTRA.POLAR>
0

>  <SCORE.INTRA.POLAR.0>
0

>  <SCORE.INTRA.REPUL>
0

>  <SCORE.INTRA.REPUL.0>
0

>  <SCORE.INTRA.SOLV>
0.730826

>  <SCORE.INTRA.SOLV.lig_0>
-65.9238

>  <SCORE.INTRA.VDW>
-0.576949

>  <SCORE.INTRA.VDW.0>
-0.405582

>  <SCORE.INTRA.norm>
0.0834505

>  <SCORE.RESTR>
0

>  <SCORE.RESTR.CAVITY>
0

>  <SCORE.RESTR.norm>
0

>  <SCORE.SYSTEM>
0

>  <SCORE.SYSTEM.CONST>
0

>  <SCORE.SYSTEM.DIHEDRAL>
0

>  <SCORE.SYSTEM.SOLV>
0

>  <SCORE.SYSTEM.norm>
0

>  <SCORE.heavy>
26

>  <SCORE.norm>
-0.508858

>  <RMSD>
7.325

$$$$
ligand
 OpenBabel11021811443D
libRbt.so/2013.1/901 2013/11/27
 26 28  0  0  0  0  0  0  0  0999 V2000
   26.6691   36.9365   72.0730 C   0  0  0  0  0  0  0  0  0  0  0  0
   21.2423   39.0743   69.3391 C   0  0  0  0  0  0  0  0  0  0  0  0
   23.7663   44.0243   66.9793 P   0  0  1  0  0  0  0  0  0  0  0  0
   24.6882   45.1504   64.8419 P   0  0  1  0  0  0  0  0  0  0  0  0
   22.0099   36.4224   68.8410 C   0  0  0  0  0  0  0  0  0  0  0  0
   24.2712   37.4019   69.3297 C   0  0  0  0  0  0  0  0  0  0  0  0
   23.2426   36.5575   69.6974 C   0  0  0  0  0  0  0  0  0  0  0  0
   23.3732   35.8321   70.8829 C   0  0  0  0  0  0  0  0  0  0  0  0
   22.3685   34.9700   71.2961 N   0  0  0  0  0  0  0  0  0  0  0  0
   24.4787   35.9755   71.6079 N   0  0  0  0  0  0  0  0  0  0  0  0
   25.4339   36.7963   71.2220 C   0  0  0  0  0  0  0  0  0  0  0  0
   25.3413   37.4954   70.1077 N   0  0  0  0  0  0  0  0  0  0  0  0
   24.6937   43.6021   68.0531 O   0  0  0  0  0  0  0  0  0  0  0  0
   24.6422   46.2664   65.9098 O   0  0  0  0  0  0  0  0  0  0  0  0
   22.3658   38.4686   65.6360 S   0  0  0  0  0  0  0  0  0  0  0  0
   22.4709   37.0022   66.5612 C   0  0  0  0  0  0  0  0  0  0  0  0
   23.4698   45.5997   67.1140 O   0  0  0  0  0  0  0  0  0  0  0  0
   26.1301   45.1484   64.1268 O   0  5  0  0  0  0  0  0  0  0  0  0
   22.0660   37.3945   67.7469 N   0  0  0  0  0  0  0  0  0  0  0  0
   24.4346   43.7243   65.5451 O   0  0  0  0  0  0  0  0  0  0  0  0
   23.5903   45.4059   63.7850 O   0  0  0  0  0  0  0  0  0  0  0  0
   21.7065   38.6395   67.9719 C   0  0  2  0  0  0  0  0  0  0  0  0
   21.7701   39.5267   66.9466 C   0  0  2  0  0  0  0  0  0  0  0  0
   21.4294   40.9937   66.9200 C   0  0  0  0  0  0  0  0  0  0  0  0
   22.7160   41.8197   66.9872 C   0  0  0  0  0  0  0  0  0  0  0  0
   22.3860   43.2048   67.1081 O   0  0  0  0  0  0  0  0  0  0  0  0
  1 11  1  0  0  0  0
  3 13  1  1  0  0  0
  3 17  1  0  0  0  0
  3 20  1  0  0  0  0
  3 26  1  0  0  0  0
  4 14  1  0  0  0  0
  4 18  1  6  0  0  0
  4 21  2  0  0  0  0
  4 20  1  0  0  0  0
  5 19  1  0  0  0  0
  5  7  1  0  0  0  0
  6  7  2  0  0  0  0
  6 12  1  0  0  0  0
  7  8  1  0  0  0  0
  8  9  1  0  0  0  0
  8 10  2  0  0  0  0
 10 11  1  0  0  0  0
 11 12  2  0  0  0  0
 14 17  1  0  0  0  0
 15 23  1  0  0  0  0
 15 16  1  0  0  0  0
 16 19  1  0  0  0  0
 19 22  1  0  0  0  0
 22  2  1  1  0  0  0
 22 23  1  0  0  0  0
 23 24  1  6  0  0  0
 24 25  1  0  0  0  0
 25 26  1  0  0  0  0
M  CHG  1  18  -1
M  END
>  <CHROM.1>
98.72533052,-6.20734993,-78.66427083,-173.77307240,-172.75490286,-59.64313428
23.53766810,40.65527694,67.59583067,-1.67275786,-0.73693499,-0.56168420

>  <Name>
ligand

>  <RI>
0

>  <Rbt.Current_Directory>
/home/itssahil/PROJECTS/Mol_Feturizer/New_Systems/rnas/2HOL

>  <Rbt.Executable>
rbdock ($Id: //depot/dev/client3/rdock/2013.1/src/exe/rbdock.cxx#4 $)

>  <Rbt.Library>
libRbt.so (2013.1, Build901 2013/11/27)

>  <Rbt.Parameter_File>
/export/apps/rDock/src/rDock_2013.1_src/data/scripts/dock_solv.prm

>  <Rbt.Receptor>
prm/blind_docking_100.prm

>  <SCORE>
-18.2991

>  <SCORE.INTER>
-14.9183

>  <SCORE.INTER.CONST>
1

>  <SCORE.INTER.POLAR>
0

>  <SCORE.INTER.ROT>
6

>  <SCORE.INTER.SOLV>
14.1408

>  <SCORE.INTER.VDW>
-22.2591

>  <SCORE.INTER.norm>
-0.573782

>  <SCORE.INTRA>
-3.38082

>  <SCORE.INTRA.DIHEDRAL>
-3.89144

>  <SCORE.INTRA.DIHEDRAL.0>
9.33621

>  <SCORE.INTRA.POLAR>
0

>  <SCORE.INTRA.POLAR.0>
0

>  <SCORE.INTRA.REPUL>
0

>  <SCORE.INTRA.REPUL.0>
0

>  <SCORE.INTRA.SOLV>
-0.422628

>  <SCORE.INTRA.SOLV.lig_0>
-65.9238

>  <SCORE.INTRA.VDW>
-1.22378

>  <SCORE.INTRA.VDW.0>
-0.405582

>  <SCORE.INTRA.norm>
-0.130032

>  <SCORE.RESTR>
0

>  <SCORE.RESTR.CAVITY>
0

>  <SCORE.RESTR.norm>
0

>  <SCORE.SYSTEM>
0

>  <SCORE.SYSTEM.CONST>
0

>  <SCORE.SYSTEM.DIHEDRAL>
0

>  <SCORE.SYSTEM.SOLV>
0

>  <SCORE.SYSTEM.norm>
0

>  <SCORE.heavy>
26

>  <SCORE.norm>
-0.703813

>  <RMSD>
7.334

$$$$
ligand
 OpenBabel11021811443D
libRbt.so/2013.1/901 2013/11/27
 26 28  0  0  0  0  0  0  0  0999 V2000
   25.9854   36.0289   72.7685 C   0  0  0  0  0  0  0  0  0  0  0  0
   22.8782   37.5918   66.2280 C   0  0  0  0  0  0  0  0  0  0  0  0
   24.1453   43.8917   67.0391 P   0  0  1  0  0  0  0  0  0  0  0  0
   23.9622   45.7034   65.2032 P   0  0  1  0  0  0  0  0  0  0  0  0
   21.9956   36.9589   68.8144 C   0  0  0  0  0  0  0  0  0  0  0  0
   24.2846   37.3261   69.7824 C   0  0  0  0  0  0  0  0  0  0  0  0
   23.0507   36.7117   69.8617 C   0  0  0  0  0  0  0  0  0  0  0  0
   22.8052   35.8560   70.9369 C   0  0  0  0  0  0  0  0  0  0  0  0
   21.5821   35.2142   71.0618 N   0  0  0  0  0  0  0  0  0  0  0  0
   23.7641   35.6604   71.8372 N   0  0  0  0  0  0  0  0  0  0  0  0
   24.9258   36.2710   71.7254 C   0  0  0  0  0  0  0  0  0  0  0  0
   25.1893   37.0850   70.7219 N   0  0  0  0  0  0  0  0  0  0  0  0
   24.9134   44.1642   68.2749 O   0  0  0  0  0  0  0  0  0  0  0  0
   22.9212   46.0956   66.2759 O   0  0  0  0  0  0  0  0  0  0  0  0
   21.8794   40.7448   68.3263 S   0  0  0  0  0  0  0  0  0  0  0  0
   21.6601   39.2916   69.2523 C   0  0  0  0  0  0  0  0  0  0  0  0
   22.6782   44.5397   67.1643 O   0  0  0  0  0  0  0  0  0  0  0  0
   24.8563   46.9873   64.8257 O   0  5  0  0  0  0  0  0  0  0  0  0
   22.0354   38.3638   68.4025 N   0  0  0  0  0  0  0  0  0  0  0  0
   24.9117   44.5370   65.7783 O   0  0  0  0  0  0  0  0  0  0  0  0
   23.2312   45.1964   63.9398 O   0  0  0  0  0  0  0  0  0  0  0  0
   22.4492   38.6690   67.1920 C   0  0  2  0  0  0  0  0  0  0  0  0
   22.4743   39.9762   66.8272 C   0  0  2  0  0  0  0  0  0  0  0  0
   22.8913   40.6042   65.5232 C   0  0  0  0  0  0  0  0  0  0  0  0
   23.1236   42.1030   65.7274 C   0  0  0  0  0  0  0  0  0  0  0  0
   24.0137   42.3007   66.8278 O   0  0  0  0  0  0  0  0  0  0  0  0
  1 11  1  0  0  0  0
  3 13  1  1  0  0  0
  3 17  1  0  0  0  0
  3 20  1  0  0  0  0
  3 26  1  0  0  0  0
  4 14  1  0  0  0  0
  4 18  1  6  0  0  0
  4 21  2  0  0  0  0
  4 20  1  0  0  0  0
  5 19  1  0  0  0  0
  5  7  1  0  0  0  0
  6  7  2  0  0  0  0
  6 12  1  0  0  0  0
  7  8  1  0  0  0  0
  8  9  1  0  0  0  0
  8 10  2  0  0  0  0
 10 11  1  0  0  0  0
 11 12  2  0  0  0  0
 14 17  1  0  0  0  0
 15 23  1  0  0  0  0
 15 16  1  0  0  0  0
 16 19  1  0  0  0  0
 19 22  1  0  0  0  0
 22  2  1  6  0  0  0
 22 23  1  0  0  0  0
 23 24  1  1  0  0  0
 24 25  1  0  0  0  0
 25 26  1  0  0  0  0
M  CHG  1  18  -1
M  END
>  <CHROM.1>
-68.86415148,-37.91760933,15.93180878,51.92738937,-176.79167446,172.64843331
23.42733039,40.90635522,67.83921795,-1.62738797,-0.76855264,-0.55153635

>  <Name>
ligand

>  <RI>
0

>  <Rbt.Current_Directory>
/home/itssahil/PROJECTS/Mol_Feturizer/New_Systems/rnas/2HOL

>  <Rbt.Executable>
rbdock ($Id: //depot/dev/client3/rdock/2013.1/src/exe/rbdock.cxx#4 $)

>  <Rbt.Library>
libRbt.so (2013.1, Build901 2013/11/27)

>  <Rbt.Parameter_File>
/export/apps/rDock/src/rDock_2013.1_src/data/scripts/dock_solv.prm

>  <Rbt.Receptor>
prm/pocket_docking_7.prm

>  <SCORE>
-18.5233

>  <SCORE.INTER>
-14.7075

>  <SCORE.INTER.CONST>
1

>  <SCORE.INTER.POLAR>
0

>  <SCORE.INTER.ROT>
6

>  <SCORE.INTER.SOLV>
19.3499

>  <SCORE.INTER.VDW>
-23.855

>  <SCORE.INTER.norm>
-0.565673

>  <SCORE.INTRA>
-3.81583

>  <SCORE.INTRA.DIHEDRAL>
-4.28819

>  <SCORE.INTRA.DIHEDRAL.0>
9.33621

>  <SCORE.INTRA.POLAR>
0

>  <SCORE.INTRA.POLAR.0>
0

>  <SCORE.INTRA.REPUL>
0

>  <SCORE.INTRA.REPUL.0>
0

>  <SCORE.INTRA.SOLV>
0.185373

>  <SCORE.INTRA.SOLV.lig_0>
-65.9238

>  <SCORE.INTRA.VDW>
-1.76442

>  <SCORE.INTRA.VDW.0>
-0.405582

>  <SCORE.INTRA.norm>
-0.146763

>  <SCORE.RESTR>
0

>  <SCORE.RESTR.CAVITY>
0

>  <SCORE.RESTR.norm>
0

>  <SCORE.SYSTEM>
0

>  <SCORE.SYSTEM.CONST>
0

>  <SCORE.SYSTEM.DIHEDRAL>
0

>  <SCORE.SYSTEM.SOLV>
0

>  <SCORE.SYSTEM.norm>
0

>  <SCORE.heavy>
26

>  <SCORE.norm>
-0.712436

>  <RMSD>
7.342

$$$$
ligand
 OpenBabel11021811443D
libRbt.so/2013.1/901 2013/11/27
 26 28  0  0  0  0  0  0  0  0999 V2000
   26.6476   40.8189   64.1612 C   0  0  0  0  0  0  0  0  0  0  0  0
   21.3805   36.4794   69.1162 C   0  0  0  0  0  0  0  0  0  0  0  0
   24.1298   34.6963   75.0763 P   0  0  1  0  0  0  0  0  0  0  0  0
   26.4710   35.7822   75.2381 P   0  0  1  0  0  0  0  0  0  0  0  0
   22.8024   38.2904   67.5137 C   0  0  0  0  0  0  0  0  0  0  0  0
   24.6436   38.2169   65.8060 C   0  0  0  0  0  0  0  0  0  0  0  0
   23.8198   38.9610   66.6269 C   0  0  0  0  0  0  0  0  0  0  0  0
   23.9530   40.3505   66.6143 C   0  0  0  0  0  0  0  0  0  0  0  0
   23.1497   41.1429   67.4208 N   0  0  0  0  0  0  0  0  0  0  0  0
   24.8661   40.9035   65.8214 N   0  0  0  0  0  0  0  0  0  0  0  0
   25.6284   40.1556   65.0504 C   0  0  0  0  0  0  0  0  0  0  0  0
   25.5278   38.8408   65.0391 N   0  0  0  0  0  0  0  0  0  0  0  0
   23.6800   33.7466   76.1191 O   0  0  0  0  0  0  0  0  0  0  0  0
   25.5716   36.5946   76.1969 O   0  0  0  0  0  0  0  0  0  0  0  0
   25.0805   36.9969   70.2926 S   0  0  0  0  0  0  0  0  0  0  0  0
   24.7365   37.9648   68.8919 C   0  0  0  0  0  0  0  0  0  0  0  0
   23.9127   36.2041   75.5930 O   0  0  0  0  0  0  0  0  0  0  0  0
   27.8300   35.3690   75.9950 O   0  5  0  0  0  0  0  0  0  0  0  0
   23.4818   37.6634   68.6496 N   0  0  0  0  0  0  0  0  0  0  0  0
   25.6918   34.4537   74.7683 O   0  0  0  0  0  0  0  0  0  0  0  0
   26.8124   36.6434   74.0014 O   0  0  0  0  0  0  0  0  0  0  0  0
   22.8218   36.8142   69.4066 C   0  0  2  0  0  0  0  0  0  0  0  0
   23.4701   36.2398   70.4517 C   0  0  2  0  0  0  0  0  0  0  0  0
   22.9700   35.2443   71.4655 C   0  0  0  0  0  0  0  0  0  0  0  0
   23.7209   35.4358   72.7852 C   0  0  0  0  0  0  0  0  0  0  0  0
   23.2766   34.4611   73.7310 O   0  0  0  0  0  0  0  0  0  0  0  0
  1 11  1  0  0  0  0
  3 13  1  1  0  0  0
  3 17  1  0  0  0  0
  3 20  1  0  0  0  0
  3 26  1  0  0  0  0
  4 14  1  0  0  0  0
  4 18  1  1  0  0  0
  4 21  2  0  0  0  0
  4 20  1  0  0  0  0
  5 19  1  0  0  0  0
  5  7  1  0  0  0  0
  6  7  2  0  0  0  0
  6 12  1  0  0  0  0
  7  8  1  0  0  0  0
  8  9  1  0  0  0  0
  8 10  2  0  0  0  0
 10 11  1  0  0  0  0
 11 12  2  0  0  0  0
 14 17  1  0  0  0  0
 15 23  1  0  0  0  0
 15 16  1  0  0  0  0
 16 19  1  0  0  0  0
 19 22  1  0  0  0  0
 22  2  1  6  0  0  0
 22 23  1  0  0  0  0
 23 24  1  1  0  0  0
 24 25  1  0  0  0  0
 25 26  1  0  0  0  0
M  CHG  1  18  -1
M  END
>  <CHROM.1>
13.01010634,74.40636147,29.19369790,-178.06225269,178.61822652,177.86983659
24.59319466,36.98047159,71.06615967,-1.63459722,0.40024001,2.04209031

>  <Name>
ligand

>  <RI>
0

>  <Rbt.Current_Directory>
/home/itssahil/PROJECTS/Mol_Feturizer/New_Systems/rnas/2HOL

>  <Rbt.Executable>
rbdock ($Id: //depot/dev/client3/rdock/2013.1/src/exe/rbdock.cxx#4 $)

>  <Rbt.Library>
libRbt.so (2013.1, Build901 2013/11/27)

>  <Rbt.Parameter_File>
/export/apps/rDock/src/rDock_2013.1_src/data/scripts/dock_solv.prm

>  <Rbt.Receptor>
prm/blind_docking_100.prm

>  <SCORE>
-15.0619

>  <SCORE.INTER>
-12.5037

>  <SCORE.INTER.CONST>
1

>  <SCORE.INTER.POLAR>
0

>  <SCORE.INTER.ROT>
6

>  <SCORE.INTER.SOLV>
10.5526

>  <SCORE.INTER.VDW>
-19.4533

>  <SCORE.INTER.norm>
-0.480911

>  <SCORE.INTRA>
-2.55817

>  <SCORE.INTRA.DIHEDRAL>
-4.44857

>  <SCORE.INTRA.DIHEDRAL.0>
9.33621

>  <SCORE.INTRA.POLAR>
0

>  <SCORE.INTRA.POLAR.0>
0

>  <SCORE.INTRA.REPUL>
0

>  <SCORE.INTRA.REPUL.0>
0

>  <SCORE.INTRA.SOLV>
0.468184

>  <SCORE.INTRA.SOLV.lig_0>
-65.9238

>  <SCORE.INTRA.VDW>
-0.567979

>  <SCORE.INTRA.VDW.0>
-0.405582

>  <SCORE.INTRA.norm>
-0.0983913

>  <SCORE.RESTR>
0

>  <SCORE.RESTR.CAVITY>
0

>  <SCORE.RESTR.norm>
0

>  <SCORE.SYSTEM>
0

>  <SCORE.SYSTEM.CONST>
0

>  <SCORE.SYSTEM.DIHEDRAL>
0

>  <SCORE.SYSTEM.SOLV>
0

>  <SCORE.SYSTEM.norm>
0

>  <SCORE.heavy>
26

>  <SCORE.norm>
-0.579302

>  <RMSD>
7.383

$$$$
ligand
 OpenBabel11021811443D
libRbt.so/2013.1/901 2013/11/27
 26 28  0  0  0  0  0  0  0  0999 V2000
   31.0988   44.7503   64.7320 C   0  0  0  0  0  0  0  0  0  0  0  0
   24.7790   44.0160   63.6966 C   0  0  0  0  0  0  0  0  0  0  0  0
   25.8584   42.2621   67.9031 P   0  0  1  0  0  0  0  0  0  0  0  0
   26.6630   39.8073   67.7886 P   0  0  1  0  0  0  0  0  0  0  0  0
   25.9105   46.5369   63.2127 C   0  0  0  0  0  0  0  0  0  0  0  0
   27.9568   46.6519   64.6656 C   0  0  0  0  0  0  0  0  0  0  0  0
   27.2837   46.0631   63.6137 C   0  0  0  0  0  0  0  0  0  0  0  0
   27.9075   45.0172   62.9311 C   0  0  0  0  0  0  0  0  0  0  0  0
   27.2737   44.3929   61.8671 N   0  0  0  0  0  0  0  0  0  0  0  0
   29.1216   44.6319   63.3126 N   0  0  0  0  0  0  0  0  0  0  0  0
   29.7259   45.2187   64.3254 C   0  0  0  0  0  0  0  0  0  0  0  0
   29.1642   46.2092   64.9904 N   0  0  0  0  0  0  0  0  0  0  0  0
   25.6085   42.8993   69.2158 O   0  0  0  0  0  0  0  0  0  0  0  0
   27.9247   40.6412   68.1061 O   0  0  0  0  0  0  0  0  0  0  0  0
   23.6145   46.7413   66.2577 S   0  0  0  0  0  0  0  0  0  0  0  0
   24.7145   47.4161   65.0950 C   0  0  0  0  0  0  0  0  0  0  0  0
   27.4336   42.2996   67.5788 O   0  0  0  0  0  0  0  0  0  0  0  0
   26.5678   38.5654   68.8078 O   0  5  0  0  0  0  0  0  0  0  0  0
   24.9898   46.3774   64.3404 N   0  0  0  0  0  0  0  0  0  0  0  0
   25.3548   40.7330   67.9450 O   0  0  0  0  0  0  0  0  0  0  0  0
   26.7490   39.2780   66.3394 O   0  0  0  0  0  0  0  0  0  0  0  0
   24.4540   45.1991   64.5733 C   0  0  2  0  0  0  0  0  0  0  0  0
   23.6069   45.0701   65.6261 C   0  0  2  0  0  0  0  0  0  0  0  0
   22.8643   43.8569   66.1215 C   0  0  0  0  0  0  0  0  0  0  0  0
   23.6967   43.1486   67.1927 C   0  0  0  0  0  0  0  0  0  0  0  0
   25.0548   43.0586   66.7573 O   0  0  0  0  0  0  0  0  0  0  0  0
  1 11  1  0  0  0  0
  3 13  1  1  0  0  0
  3 17  1  0  0  0  0
  3 20  1  0  0  0  0
  3 26  1  0  0  0  0
  4 14  1  0  0  0  0
  4 18  1  1  0  0  0
  4 21  2  0  0  0  0
  4 20  1  0  0  0  0
  5 19  1  0  0  0  0
  5  7  1  0  0  0  0
  6  7  2  0  0  0  0
  6 12  1  0  0  0  0
  7  8  1  0  0  0  0
  8  9  1  0  0  0  0
  8 10  2  0  0  0  0
 10 11  1  0  0  0  0
 11 12  2  0  0  0  0
 14 17  1  0  0  0  0
 15 23  1  0  0  0  0
 15 16  1  0  0  0  0
 16 19  1  0  0  0  0
 19 22  1  0  0  0  0
 22  2  1  1  0  0  0
 22 23  1  0  0  0  0
 23 24  1  6  0  0  0
 24 25  1  0  0  0  0
 25 26  1  0  0  0  0
M  CHG  1  18  -1
M  END
>  <CHROM.1>
98.66394351,-59.98101486,-87.55960772,-44.89257607,-178.09595186,-52.13053555
26.23689540,43.61585007,65.96455112,-1.53998221,-0.34793369,2.54866452

>  <Name>
ligand

>  <RI>
0

>  <Rbt.Current_Directory>
/home/itssahil/PROJECTS/Mol_Feturizer/New_Systems/rnas/2HOL

>  <Rbt.Executable>
rbdock ($Id: //depot/dev/client3/rdock/2013.1/src/exe/rbdock.cxx#4 $)

>  <Rbt.Library>
libRbt.so (2013.1, Build901 2013/11/27)

>  <Rbt.Parameter_File>
/export/apps/rDock/src/rDock_2013.1_src/data/scripts/dock_solv.prm

>  <Rbt.Receptor>
prm/pocket_docking_7.prm

>  <SCORE>
-10.5988

>  <SCORE.INTER>
-8.07155

>  <SCORE.INTER.CONST>
1

>  <SCORE.INTER.POLAR>
0

>  <SCORE.INTER.ROT>
6

>  <SCORE.INTER.SOLV>
6.75214

>  <SCORE.INTER.VDW>
-15.2317

>  <SCORE.INTER.norm>
-0.310444

>  <SCORE.INTRA>
-2.54451

>  <SCORE.INTRA.DIHEDRAL>
-3.48428

>  <SCORE.INTRA.DIHEDRAL.0>
9.33621

>  <SCORE.INTRA.POLAR>
0

>  <SCORE.INTRA.POLAR.0>
0

>  <SCORE.INTRA.REPUL>
0

>  <SCORE.INTRA.REPUL.0>
0

>  <SCORE.INTRA.SOLV>
1.7544

>  <SCORE.INTRA.SOLV.lig_0>
-65.9238

>  <SCORE.INTRA.VDW>
-1.67957

>  <SCORE.INTRA.VDW.0>
-0.405582

>  <SCORE.INTRA.norm>
-0.0978658

>  <SCORE.RESTR>
0.0172987

>  <SCORE.RESTR.CAVITY>
0.0172987

>  <SCORE.RESTR.norm>
0.000665336

>  <SCORE.SYSTEM>
0

>  <SCORE.SYSTEM.CONST>
0

>  <SCORE.SYSTEM.DIHEDRAL>
0

>  <SCORE.SYSTEM.SOLV>
0

>  <SCORE.SYSTEM.norm>
0

>  <SCORE.heavy>
26

>  <SCORE.norm>
-0.407645

>  <RMSD>
7.496

$$$$
ligand
 OpenBabel11021811443D
libRbt.so/2013.1/901 2013/11/27
 26 28  0  0  0  0  0  0  0  0999 V2000
   27.4243   43.7267   65.7205 C   0  0  0  0  0  0  0  0  0  0  0  0
   24.7519   38.2982   68.6401 C   0  0  0  0  0  0  0  0  0  0  0  0
   20.6186   40.4250   66.0691 P   0  0  1  0  0  0  0  0  0  0  0  0
   22.3473   42.2163   66.7687 P   0  0  1  0  0  0  0  0  0  0  0  0
   26.4753   38.1578   66.4311 C   0  0  0  0  0  0  0  0  0  0  0  0
   25.7773   40.4441   65.6582 C   0  0  0  0  0  0  0  0  0  0  0  0
   26.7278   39.6317   66.2436 C   0  0  0  0  0  0  0  0  0  0  0  0
   27.9288   40.2103   66.6577 C   0  0  0  0  0  0  0  0  0  0  0  0
   28.9159   39.4373   67.2507 N   0  0  0  0  0  0  0  0  0  0  0  0
   28.1151   41.5134   66.4699 N   0  0  0  0  0  0  0  0  0  0  0  0
   27.1789   42.2527   65.9112 C   0  0  0  0  0  0  0  0  0  0  0  0
   26.0339   41.7368   65.5089 N   0  0  0  0  0  0  0  0  0  0  0  0
   19.5311   40.7731   65.1269 O   0  0  0  0  0  0  0  0  0  0  0  0
   22.8081   41.7173   65.3806 O   0  0  0  0  0  0  0  0  0  0  0  0
   22.9166   37.3333   65.3170 S   0  0  0  0  0  0  0  0  0  0  0  0
   24.6155   37.5658   65.0394 C   0  0  0  0  0  0  0  0  0  0  0  0
   21.9668   40.1226   65.2454 O   0  0  0  0  0  0  0  0  0  0  0  0
   22.3259   43.8256   66.7826 O   0  5  0  0  0  0  0  0  0  0  0  0
   25.0508   37.8776   66.2382 N   0  0  0  0  0  0  0  0  0  0  0  0
   20.8694   41.6561   67.0766 O   0  0  0  0  0  0  0  0  0  0  0  0
   23.3270   41.7056   67.8490 O   0  0  0  0  0  0  0  0  0  0  0  0
   24.2363   37.9400   67.2691 C   0  0  2  0  0  0  0  0  0  0  0  0
   22.9188   37.6818   67.0693 C   0  0  2  0  0  0  0  0  0  0  0  0
   21.7772   37.6844   68.0519 C   0  0  0  0  0  0  0  0  0  0  0  0
   21.0874   39.0504   68.0323 C   0  0  0  0  0  0  0  0  0  0  0  0
   20.2006   39.1193   66.9139 O   0  0  0  0  0  0  0  0  0  0  0  0
  1 11  1  0  0  0  0
  3 13  1  6  0  0  0
  3 17  1  0  0  0  0
  3 20  1  0  0  0  0
  3 26  1  0  0  0  0
  4 14  1  0  0  0  0
  4 18  1  1  0  0  0
  4 21  2  0  0  0  0
  4 20  1  0  0  0  0
  5 19  1  0  0  0  0
  5  7  1  0  0  0  0
  6  7  2  0  0  0  0
  6 12  1  0  0  0  0
  7  8  1  0  0  0  0
  8  9  1  0  0  0  0
  8 10  2  0  0  0  0
 10 11  1  0  0  0  0
 11 12  2  0  0  0  0
 14 17  1  0  0  0  0
 15 23  1  0  0  0  0
 15 16  1  0  0  0  0
 16 19  1  0  0  0  0
 19 22  1  0  0  0  0
 22  2  1  6  0  0  0
 22 23  1  0  0  0  0
 23 24  1  1  0  0  0
 24 25  1  0  0  0  0
 25 26  1  0  0  0  0
M  CHG  1  18  -1
M  END
>  <CHROM.1>
90.78610030,-14.34258253,-85.80224254,80.17721316,-124.96458141,-164.33656826
23.68849058,40.13011306,66.43905214,0.07433226,0.00584436,-0.05969431

>  <Name>
ligand

>  <RI>
0

>  <Rbt.Current_Directory>
/home/itssahil/PROJECTS/Mol_Feturizer/New_Systems/rnas/2HOL

>  <Rbt.Executable>
rbdock ($Id: //depot/dev/client3/rdock/2013.1/src/exe/rbdock.cxx#4 $)

>  <Rbt.Library>
libRbt.so (2013.1, Build901 2013/11/27)

>  <Rbt.Parameter_File>
/export/apps/rDock/src/rDock_2013.1_src/data/scripts/dock_solv.prm

>  <Rbt.Receptor>
prm/pocket_docking_5.prm

>  <SCORE>
-14.6446

>  <SCORE.INTER>
-13.2823

>  <SCORE.INTER.CONST>
1

>  <SCORE.INTER.POLAR>
0

>  <SCORE.INTER.ROT>
6

>  <SCORE.INTER.SOLV>
12.8889

>  <SCORE.INTER.VDW>
-20.7512

>  <SCORE.INTER.norm>
-0.510857

>  <SCORE.INTRA>
-1.36228

>  <SCORE.INTRA.DIHEDRAL>
4.46785

>  <SCORE.INTRA.DIHEDRAL.0>
9.33621

>  <SCORE.INTRA.POLAR>
0

>  <SCORE.INTRA.POLAR.0>
0

>  <SCORE.INTRA.REPUL>
0

>  <SCORE.INTRA.REPUL.0>
0

>  <SCORE.INTRA.SOLV>
1.93477

>  <SCORE.INTRA.SOLV.lig_0>
-65.9238

>  <SCORE.INTRA.VDW>
-4.56359

>  <SCORE.INTRA.VDW.0>
-0.405582

>  <SCORE.INTRA.norm>
-0.0523954

>  <SCORE.RESTR>
0

>  <SCORE.RESTR.CAVITY>
0

>  <SCORE.RESTR.norm>
0

>  <SCORE.SYSTEM>
0

>  <SCORE.SYSTEM.CONST>
0

>  <SCORE.SYSTEM.DIHEDRAL>
0

>  <SCORE.SYSTEM.SOLV>
0

>  <SCORE.SYSTEM.norm>
0

>  <SCORE.heavy>
26

>  <SCORE.norm>
-0.563252

>  <RMSD>
7.500

$$$$
ligand
 OpenBabel11021811443D
libRbt.so/2013.1/901 2013/11/27
 26 28  0  0  0  0  0  0  0  0999 V2000
   26.0464   36.7582   74.4970 C   0  0  0  0  0  0  0  0  0  0  0  0
   26.3859   40.4231   67.8492 C   0  0  0  0  0  0  0  0  0  0  0  0
   27.5247   43.4057   64.9668 P   0  0  1  0  0  0  0  0  0  0  0  0
   30.0537   43.9441   64.9412 P   0  0  1  0  0  0  0  0  0  0  0  0
   27.9978   39.6955   70.0268 C   0  0  0  0  0  0  0  0  0  0  0  0
   27.8401   39.2627   72.4965 C   0  0  0  0  0  0  0  0  0  0  0  0
   27.4806   38.9171   71.2091 C   0  0  0  0  0  0  0  0  0  0  0  0
   26.6254   37.8283   71.0303 C   0  0  0  0  0  0  0  0  0  0  0  0
   26.2348   37.4404   69.7573 N   0  0  0  0  0  0  0  0  0  0  0  0
   26.1949   37.1644   72.0990 N   0  0  0  0  0  0  0  0  0  0  0  0
   26.5594   37.5315   73.3104 C   0  0  0  0  0  0  0  0  0  0  0  0
   27.3660   38.5549   73.5131 N   0  0  0  0  0  0  0  0  0  0  0  0
   26.5988   44.1551   64.0876 O   0  0  0  0  0  0  0  0  0  0  0  0
   29.8106   43.0432   63.7093 O   0  0  0  0  0  0  0  0  0  0  0  0
   26.6920   43.2465   70.5467 S   0  0  0  0  0  0  0  0  0  0  0  0
   27.6055   41.8446   71.0133 C   0  0  0  0  0  0  0  0  0  0  0  0
   28.2436   42.2410   64.1216 O   0  0  0  0  0  0  0  0  0  0  0  0
   30.9027   45.2391   64.5022 O   0  5  0  0  0  0  0  0  0  0  0  0
   27.3848   41.0254   70.0113 N   0  0  0  0  0  0  0  0  0  0  0  0
   28.6389   44.4103   65.5523 O   0  0  0  0  0  0  0  0  0  0  0  0
   30.8400   43.1515   66.0095 O   0  0  0  0  0  0  0  0  0  0  0  0
   26.6288   41.3748   68.9933 C   0  0  2  0  0  0  0  0  0  0  0  0
   26.0655   42.6098   68.9995 C   0  0  2  0  0  0  0  0  0  0  0  0
   25.1659   43.2630   67.9831 C   0  0  0  0  0  0  0  0  0  0  0  0
   26.0105   43.8235   66.8366 C   0  0  0  0  0  0  0  0  0  0  0  0
   26.6990   42.7537   66.1859 O   0  0  0  0  0  0  0  0  0  0  0  0
  1 11  1  0  0  0  0
  3 13  1  6  0  0  0
  3 17  1  0  0  0  0
  3 20  1  0  0  0  0
  3 26  1  0  0  0  0
  4 14  1  0  0  0  0
  4 18  1  6  0  0  0
  4 21  2  0  0  0  0
  4 20  1  0  0  0  0
  5 19  1  0  0  0  0
  5  7  1  0  0  0  0
  6  7  2  0  0  0  0
  6 12  1  0  0  0  0
  7  8  1  0  0  0  0
  8  9  1  0  0  0  0
  8 10  2  0  0  0  0
 10 11  1  0  0  0  0
 11 12  2  0  0  0  0
 14 17  1  0  0  0  0
 15 23  1  0  0  0  0
 15 16  1  0  0  0  0
 16 19  1  0  0  0  0
 19 22  1  0  0  0  0
 22  2  1  1  0  0  0
 22 23  1  0  0  0  0
 23 24  1  6  0  0  0
 24 25  1  0  0  0  0
 25 26  1  0  0  0  0
M  CHG  1  18  -1
M  END
>  <CHROM.1>
62.35936768,-69.78806220,98.79007117,62.04368797,178.16865748,-55.88183963
27.57786222,41.66248953,68.21810200,-1.83979423,0.56030081,-0.79755892

>  <Name>
ligand

>  <RI>
0

>  <Rbt.Current_Directory>
/home/itssahil/PROJECTS/Mol_Feturizer/New_Systems/rnas/2HOL

>  <Rbt.Executable>
rbdock ($Id: //depot/dev/client3/rdock/2013.1/src/exe/rbdock.cxx#4 $)

>  <Rbt.Library>
libRbt.so (2013.1, Build901 2013/11/27)

>  <Rbt.Parameter_File>
/export/apps/rDock/src/rDock_2013.1_src/data/scripts/dock_solv.prm

>  <Rbt.Receptor>
prm/pocket_docking_8.prm

>  <SCORE>
-12.1676

>  <SCORE.INTER>
-9.50085

>  <SCORE.INTER.CONST>
1

>  <SCORE.INTER.POLAR>
0

>  <SCORE.INTER.ROT>
6

>  <SCORE.INTER.SOLV>
8.58738

>  <SCORE.INTER.VDW>
-16.7964

>  <SCORE.INTER.norm>
-0.365417

>  <SCORE.INTRA>
-2.67457

>  <SCORE.INTRA.DIHEDRAL>
-4.56044

>  <SCORE.INTRA.DIHEDRAL.0>
9.33621

>  <SCORE.INTRA.POLAR>
0

>  <SCORE.INTRA.POLAR.0>
0

>  <SCORE.INTRA.REPUL>
0

>  <SCORE.INTRA.REPUL.0>
0

>  <SCORE.INTRA.SOLV>
1.5764

>  <SCORE.INTRA.SOLV.lig_0>
-65.9238

>  <SCORE.INTRA.VDW>
-1.18255

>  <SCORE.INTRA.VDW.0>
-0.405582

>  <SCORE.INTRA.norm>
-0.102868

>  <SCORE.RESTR>
0.0078589

>  <SCORE.RESTR.CAVITY>
0.0078589

>  <SCORE.RESTR.norm>
0.000302265

>  <SCORE.SYSTEM>
0

>  <SCORE.SYSTEM.CONST>
0

>  <SCORE.SYSTEM.DIHEDRAL>
0

>  <SCORE.SYSTEM.SOLV>
0

>  <SCORE.SYSTEM.norm>
0

>  <SCORE.heavy>
26

>  <SCORE.norm>
-0.467983

>  <RMSD>
7.500

$$$$
ligand
 OpenBabel11021811443D
libRbt.so/2013.1/901 2013/11/27
 26 28  0  0  0  0  0  0  0  0999 V2000
   26.9331   37.4871   74.0235 C   0  0  0  0  0  0  0  0  0  0  0  0
   24.4606   38.2401   66.0638 C   0  0  0  0  0  0  0  0  0  0  0  0
   21.8703   42.1572   66.9952 P   0  0  1  0  0  0  0  0  0  0  0  0
   24.1663   43.1149   66.2898 P   0  0  1  0  0  0  0  0  0  0  0  0
   25.3283   37.3085   68.5635 C   0  0  0  0  0  0  0  0  0  0  0  0
   25.2563   36.4511   70.9239 C   0  0  0  0  0  0  0  0  0  0  0  0
   25.7539   37.3570   70.0084 C   0  0  0  0  0  0  0  0  0  0  0  0
   26.6615   38.3189   70.4552 C   0  0  0  0  0  0  0  0  0  0  0  0
   27.1900   39.2517   69.5754 N   0  0  0  0  0  0  0  0  0  0  0  0
   27.0079   38.3314   71.7390 N   0  0  0  0  0  0  0  0  0  0  0  0
   26.5122   37.4448   72.5777 C   0  0  0  0  0  0  0  0  0  0  0  0
   25.6529   36.5238   72.1875 N   0  0  0  0  0  0  0  0  0  0  0  0
   21.6916   41.5812   68.3472 O   0  0  0  0  0  0  0  0  0  0  0  0
   23.5015   44.2202   67.1410 O   0  0  0  0  0  0  0  0  0  0  0  0
   21.7296   38.5536   68.8540 S   0  0  0  0  0  0  0  0  0  0  0  0
   23.1901   37.8644   69.4937 C   0  0  0  0  0  0  0  0  0  0  0  0
   21.7543   43.7597   67.0743 O   0  0  0  0  0  0  0  0  0  0  0  0
   25.6709   42.8695   66.8060 O   0  5  0  0  0  0  0  0  0  0  0  0
   23.9683   37.8370   68.4366 N   0  0  0  0  0  0  0  0  0  0  0  0
   23.3215   41.7511   66.4271 O   0  0  0  0  0  0  0  0  0  0  0  0
   24.1960   43.5555   64.8091 O   0  0  0  0  0  0  0  0  0  0  0  0
   23.5543   38.2770   67.2684 C   0  0  2  0  0  0  0  0  0  0  0  0
   22.2890   38.7584   67.1697 C   0  0  2  0  0  0  0  0  0  0  0  0
   21.5607   39.3143   65.9741 C   0  0  0  0  0  0  0  0  0  0  0  0
   20.4459   40.2518   66.4435 C   0  0  0  0  0  0  0  0  0  0  0  0
   20.7314   41.5838   66.0118 O   0  0  0  0  0  0  0  0  0  0  0  0
  1 11  1  0  0  0  0
  3 13  1  1  0  0  0
  3 17  1  0  0  0  0
  3 20  1  0  0  0  0
  3 26  1  0  0  0  0
  4 14  1  0  0  0  0
  4 18  1  1  0  0  0
  4 21  2  0  0  0  0
  4 20  1  0  0  0  0
  5 19  1  0  0  0  0
  5  7  1  0  0  0  0
  6  7  2  0  0  0  0
  6 12  1  0  0  0  0
  7  8  1  0  0  0  0
  8  9  1  0  0  0  0
  8 10  2  0  0  0  0
 10 11  1  0  0  0  0
 11 12  2  0  0  0  0
 14 17  1  0  0  0  0
 15 23  1  0  0  0  0
 15 16  1  0  0  0  0
 16 19  1  0  0  0  0
 19 22  1  0  0  0  0
 22  2  1  6  0  0  0
 22 23  1  0  0  0  0
 23 24  1  1  0  0  0
 24 25  1  0  0  0  0
 25 26  1  0  0  0  0
M  CHG  1  18  -1
M  END
>  <CHROM.1>
-20.99382418,74.84812831,24.17916748,115.02070736,-76.82389065,-32.74992473
23.78493488,40.04452760,68.22560292,-1.06205476,-0.49168739,-0.51675186

>  <Name>
ligand

>  <RI>
0

>  <Rbt.Current_Directory>
/home/itssahil/PROJECTS/Mol_Feturizer/New_Systems/rnas/2HOL

>  <Rbt.Executable>
rbdock ($Id: //depot/dev/client3/rdock/2013.1/src/exe/rbdock.cxx#4 $)

>  <Rbt.Library>
libRbt.so (2013.1, Build901 2013/11/27)

>  <Rbt.Parameter_File>
/export/apps/rDock/src/rDock_2013.1_src/data/scripts/dock_solv.prm

>  <Rbt.Receptor>
prm/pocket_docking_6.prm

>  <SCORE>
-11.5329

>  <SCORE.INTER>
-14.0314

>  <SCORE.INTER.CONST>
1

>  <SCORE.INTER.POLAR>
0

>  <SCORE.INTER.ROT>
6

>  <SCORE.INTER.SOLV>
11.5952

>  <SCORE.INTER.VDW>
-20.8193

>  <SCORE.INTER.norm>
-0.539668

>  <SCORE.INTRA>
2.49848

>  <SCORE.INTRA.DIHEDRAL>
3.21132

>  <SCORE.INTRA.DIHEDRAL.0>
9.33621

>  <SCORE.INTRA.POLAR>
0

>  <SCORE.INTRA.POLAR.0>
0

>  <SCORE.INTRA.REPUL>
0

>  <SCORE.INTRA.REPUL.0>
0

>  <SCORE.INTRA.SOLV>
1.11479

>  <SCORE.INTRA.SOLV.lig_0>
-65.9238

>  <SCORE.INTRA.VDW>
0.335432

>  <SCORE.INTRA.VDW.0>
-0.405582

>  <SCORE.INTRA.norm>
0.0960955

>  <SCORE.RESTR>
0

>  <SCORE.RESTR.CAVITY>
0

>  <SCORE.RESTR.norm>
0

>  <SCORE.SYSTEM>
0

>  <SCORE.SYSTEM.CONST>
0

>  <SCORE.SYSTEM.DIHEDRAL>
0

>  <SCORE.SYSTEM.SOLV>
0

>  <SCORE.SYSTEM.norm>
0

>  <SCORE.heavy>
26

>  <SCORE.norm>
-0.443572

>  <RMSD>
7.517

$$$$
ligand
 OpenBabel11021811443D
libRbt.so/2013.1/901 2013/11/27
 26 28  0  0  0  0  0  0  0  0999 V2000
   27.3399   41.5966   59.0298 C   0  0  0  0  0  0  0  0  0  0  0  0
   23.6243   43.4724   65.5924 C   0  0  0  0  0  0  0  0  0  0  0  0
   21.7050   38.4988   68.3558 P   0  0  1  0  0  0  0  0  0  0  0  0
   21.9530   36.2638   69.6324 P   0  0  1  0  0  0  0  0  0  0  0  0
   26.0808   42.7163   64.4684 C   0  0  0  0  0  0  0  0  0  0  0  0
   25.5799   41.6416   62.2535 C   0  0  0  0  0  0  0  0  0  0  0  0
   26.4153   42.4206   63.0290 C   0  0  0  0  0  0  0  0  0  0  0  0
   27.5778   42.9279   62.4458 C   0  0  0  0  0  0  0  0  0  0  0  0
   28.4501   43.7153   63.1824 N   0  0  0  0  0  0  0  0  0  0  0  0
   27.8396   42.6400   61.1743 N   0  0  0  0  0  0  0  0  0  0  0  0
   27.0121   41.8963   60.4692 C   0  0  0  0  0  0  0  0  0  0  0  0
   25.9063   41.4018   60.9905 N   0  0  0  0  0  0  0  0  0  0  0  0
   20.8789   38.5635   67.1290 O   0  0  0  0  0  0  0  0  0  0  0  0
   20.5860   36.8385   70.0673 O   0  0  0  0  0  0  0  0  0  0  0  0
   24.2064   39.5992   65.6330 S   0  0  0  0  0  0  0  0  0  0  0  0
   25.5582   40.4196   64.9140 C   0  0  0  0  0  0  0  0  0  0  0  0
   20.7536   38.5897   69.6497 O   0  0  0  0  0  0  0  0  0  0  0  0
   21.7774   34.7222   69.2044 O   0  5  0  0  0  0  0  0  0  0  0  0
   25.1878   41.6772   64.9860 N   0  0  0  0  0  0  0  0  0  0  0  0
   22.5167   37.1081   68.3826 O   0  0  0  0  0  0  0  0  0  0  0  0
   22.9485   36.3604   70.8102 O   0  0  0  0  0  0  0  0  0  0  0  0
   24.0349   42.0235   65.5158 C   0  0  2  0  0  0  0  0  0  0  0  0
   23.2189   41.0458   65.9855 C   0  0  2  0  0  0  0  0  0  0  0  0
   21.8608   41.1512   66.6285 C   0  0  0  0  0  0  0  0  0  0  0  0
   21.9875   40.9144   68.1351 C   0  0  0  0  0  0  0  0  0  0  0  0
   22.7470   39.7265   68.3676 O   0  0  0  0  0  0  0  0  0  0  0  0
  1 11  1  0  0  0  0
  3 13  1  6  0  0  0
  3 17  1  0  0  0  0
  3 20  1  0  0  0  0
  3 26  1  0  0  0  0
  4 14  1  0  0  0  0
  4 18  1  6  0  0  0
  4 21  2  0  0  0  0
  4 20  1  0  0  0  0
  5 19  1  0  0  0  0
  5  7  1  0  0  0  0
  6  7  2  0  0  0  0
  6 12  1  0  0  0  0
  7  8  1  0  0  0  0
  8  9  1  0  0  0  0
  8 10  2  0  0  0  0
 10 11  1  0  0  0  0
 11 12  2  0  0  0  0
 14 17  1  0  0  0  0
 15 23  1  0  0  0  0
 15 16  1  0  0  0  0
 16 19  1  0  0  0  0
 19 22  1  0  0  0  0
 22  2  1  6  0  0  0
 22 23  1  0  0  0  0
 23 24  1  1  0  0  0
 24 25  1  0  0  0  0
 25 26  1  0  0  0  0
M  CHG  1  18  -1
M  END
>  <CHROM.1>
55.51829355,23.54469228,74.73284598,-49.30761473,-87.53110015,51.30925574
23.83579701,39.90327725,66.06113757,-0.59133293,-0.93052932,3.05856172

>  <Name>
ligand

>  <RI>
0

>  <Rbt.Current_Directory>
/home/itssahil/PROJECTS/Mol_Feturizer/New_Systems/rnas/2HOL

>  <Rbt.Executable>
rbdock ($Id: //depot/dev/client3/rdock/2013.1/src/exe/rbdock.cxx#4 $)

>  <Rbt.Library>
libRbt.so (2013.1, Build901 2013/11/27)

>  <Rbt.Parameter_File>
/export/apps/rDock/src/rDock_2013.1_src/data/scripts/dock_solv.prm

>  <Rbt.Receptor>
prm/pocket_docking_8.prm

>  <SCORE>
-11.3176

>  <SCORE.INTER>
-10.633

>  <SCORE.INTER.CONST>
1

>  <SCORE.INTER.POLAR>
0

>  <SCORE.INTER.ROT>
6

>  <SCORE.INTER.SOLV>
16.8682

>  <SCORE.INTER.VDW>
-20.3114

>  <SCORE.INTER.norm>
-0.408963

>  <SCORE.INTRA>
-0.686778

>  <SCORE.INTRA.DIHEDRAL>
-0.590966

>  <SCORE.INTRA.DIHEDRAL.0>
9.33621

>  <SCORE.INTRA.POLAR>
0

>  <SCORE.INTRA.POLAR.0>
0

>  <SCORE.INTRA.REPUL>
0

>  <SCORE.INTRA.REPUL.0>
0

>  <SCORE.INTRA.SOLV>
0.208135

>  <SCORE.INTRA.SOLV.lig_0>
-65.9238

>  <SCORE.INTRA.VDW>
-0.495362

>  <SCORE.INTRA.VDW.0>
-0.405582

>  <SCORE.INTRA.norm>
-0.0264145

>  <SCORE.RESTR>
0.00217256

>  <SCORE.RESTR.CAVITY>
0.00217256

>  <SCORE.RESTR.norm>
8.35602e-05

>  <SCORE.SYSTEM>
0

>  <SCORE.SYSTEM.CONST>
0

>  <SCORE.SYSTEM.DIHEDRAL>
0

>  <SCORE.SYSTEM.SOLV>
0

>  <SCORE.SYSTEM.norm>
0

>  <SCORE.heavy>
26

>  <SCORE.norm>
-0.435294

>  <RMSD>
7.535

$$$$
ligand
 OpenBabel11021811443D
libRbt.so/2013.1/901 2013/11/27
 26 28  0  0  0  0  0  0  0  0999 V2000
   22.5435   30.7101   69.7888 C   0  0  0  0  0  0  0  0  0  0  0  0
   26.1642   36.9600   69.5158 C   0  0  0  0  0  0  0  0  0  0  0  0
   24.9674   42.4531   66.7180 P   0  0  1  0  0  0  0  0  0  0  0  0
   23.3249   44.4495   66.7743 P   0  0  1  0  0  0  0  0  0  0  0  0
   23.9274   36.1039   70.9763 C   0  0  0  0  0  0  0  0  0  0  0  0
   24.4774   33.8184   70.0900 C   0  0  0  0  0  0  0  0  0  0  0  0
   23.5597   34.6765   70.6625 C   0  0  0  0  0  0  0  0  0  0  0  0
   22.2825   34.1882   70.9436 C   0  0  0  0  0  0  0  0  0  0  0  0
   21.3243   35.0100   71.5180 N   0  0  0  0  0  0  0  0  0  0  0  0
   21.9959   32.9240   70.6469 N   0  0  0  0  0  0  0  0  0  0  0  0
   22.9038   32.1382   70.1053 C   0  0  0  0  0  0  0  0  0  0  0  0
   24.1188   32.5688   69.8272 N   0  0  0  0  0  0  0  0  0  0  0  0
   26.3066   42.6125   66.1075 O   0  0  0  0  0  0  0  0  0  0  0  0
   24.3037   44.6866   67.9464 O   0  0  0  0  0  0  0  0  0  0  0  0
   22.7729   38.2167   68.0118 S   0  0  0  0  0  0  0  0  0  0  0  0
   22.5003   37.2592   69.4352 C   0  0  0  0  0  0  0  0  0  0  0  0
   24.9878   43.0350   68.2176 O   0  0  0  0  0  0  0  0  0  0  0  0
   23.1929   45.7958   65.9021 O   0  5  0  0  0  0  0  0  0  0  0  0
   23.7227   36.9341   69.7873 N   0  0  0  0  0  0  0  0  0  0  0  0
   23.8805   43.2584   65.8441 O   0  0  0  0  0  0  0  0  0  0  0  0
   21.9380   44.0614   67.3342 O   0  0  0  0  0  0  0  0  0  0  0  0
   24.7663   37.3407   69.0978 C   0  0  2  0  0  0  0  0  0  0  0  0
   24.5559   38.1052   67.9960 C   0  0  2  0  0  0  0  0  0  0  0  0
   25.5492   38.6979   67.0312 C   0  0  0  0  0  0  0  0  0  0  0  0
   25.6958   40.1968   67.3030 C   0  0  0  0  0  0  0  0  0  0  0  0
   24.5748   40.8917   66.7528 O   0  0  0  0  0  0  0  0  0  0  0  0
  1 11  1  0  0  0  0
  3 13  1  6  0  0  0
  3 17  1  0  0  0  0
  3 20  1  0  0  0  0
  3 26  1  0  0  0  0
  4 14  1  0  0  0  0
  4 18  1  6  0  0  0
  4 21  2  0  0  0  0
  4 20  1  0  0  0  0
  5 19  1  0  0  0  0
  5  7  1  0  0  0  0
  6  7  2  0  0  0  0
  6 12  1  0  0  0  0
  7  8  1  0  0  0  0
  8  9  1  0  0  0  0
  8 10  2  0  0  0  0
 10 11  1  0  0  0  0
 11 12  2  0  0  0  0
 14 17  1  0  0  0  0
 15 23  1  0  0  0  0
 15 16  1  0  0  0  0
 16 19  1  0  0  0  0
 19 22  1  0  0  0  0
 22  2  1  6  0  0  0
 22 23  1  0  0  0  0
 23 24  1  1  0  0  0
 24 25  1  0  0  0  0
 25 26  1  0  0  0  0
M  CHG  1  18  -1
M  END
>  <CHROM.1>
75.11282640,85.56356756,75.52542854,-77.60288178,-165.24888008,48.77243940
23.85785543,39.00654074,68.35748321,1.66594419,-0.33640524,2.83956811

>  <Name>
ligand

>  <RI>
0

>  <Rbt.Current_Directory>
/home/itssahil/PROJECTS/Mol_Feturizer/New_Systems/rnas/2HOL

>  <Rbt.Executable>
rbdock ($Id: //depot/dev/client3/rdock/2013.1/src/exe/rbdock.cxx#4 $)

>  <Rbt.Library>
libRbt.so (2013.1, Build901 2013/11/27)

>  <Rbt.Parameter_File>
/export/apps/rDock/src/rDock_2013.1_src/data/scripts/dock_solv.prm

>  <Rbt.Receptor>
prm/blind_docking_100.prm

>  <SCORE>
-15.7706

>  <SCORE.INTER>
-13.1799

>  <SCORE.INTER.CONST>
1

>  <SCORE.INTER.POLAR>
0

>  <SCORE.INTER.ROT>
6

>  <SCORE.INTER.SOLV>
14.9892

>  <SCORE.INTER.VDW>
-21.383

>  <SCORE.INTER.norm>
-0.506921

>  <SCORE.INTRA>
-2.5907

>  <SCORE.INTRA.DIHEDRAL>
-1.95761

>  <SCORE.INTRA.DIHEDRAL.0>
9.33621

>  <SCORE.INTRA.POLAR>
0

>  <SCORE.INTRA.POLAR.0>
0

>  <SCORE.INTRA.REPUL>
0

>  <SCORE.INTRA.REPUL.0>
0

>  <SCORE.INTRA.SOLV>
0.385225

>  <SCORE.INTRA.SOLV.lig_0>
-65.9238

>  <SCORE.INTRA.VDW>
-1.80451

>  <SCORE.INTRA.VDW.0>
-0.405582

>  <SCORE.INTRA.norm>
-0.0996424

>  <SCORE.RESTR>
0

>  <SCORE.RESTR.CAVITY>
0

>  <SCORE.RESTR.norm>
0

>  <SCORE.SYSTEM>
0

>  <SCORE.SYSTEM.CONST>
0

>  <SCORE.SYSTEM.DIHEDRAL>
0

>  <SCORE.SYSTEM.SOLV>
0

>  <SCORE.SYSTEM.norm>
0

>  <SCORE.heavy>
26

>  <SCORE.norm>
-0.606563

>  <RMSD>
7.541

$$$$
ligand
 OpenBabel11021811443D
libRbt.so/2013.1/901 2013/11/27
 26 28  0  0  0  0  0  0  0  0999 V2000
   28.0006   42.9412   66.5482 C   0  0  0  0  0  0  0  0  0  0  0  0
   21.7099   39.7390   68.0625 C   0  0  0  0  0  0  0  0  0  0  0  0
   20.5136   43.3758   65.5889 P   0  0  1  0  0  0  0  0  0  0  0  0
   22.8612   44.2024   66.2906 P   0  0  1  0  0  0  0  0  0  0  0  0
   24.2718   38.7447   67.4988 C   0  0  0  0  0  0  0  0  0  0  0  0
   25.0056   41.1406   67.6796 C   0  0  0  0  0  0  0  0  0  0  0  0
   25.2596   39.8545   67.2464 C   0  0  0  0  0  0  0  0  0  0  0  0
   26.4551   39.6081   66.5690 C   0  0  0  0  0  0  0  0  0  0  0  0
   26.7571   38.3336   66.1131 N   0  0  0  0  0  0  0  0  0  0  0  0
   27.2981   40.6154   66.3619 N   0  0  0  0  0  0  0  0  0  0  0  0
   27.0179   41.8268   66.7968 C   0  0  0  0  0  0  0  0  0  0  0  0
   25.8975   42.0925   67.4395 N   0  0  0  0  0  0  0  0  0  0  0  0
   19.3045   43.9777   66.1950 O   0  0  0  0  0  0  0  0  0  0  0  0
   22.3445   45.2427   65.2712 O   0  0  0  0  0  0  0  0  0  0  0  0
   22.0914   38.4747   64.3750 S   0  0  0  0  0  0  0  0  0  0  0  0
   23.5751   38.2702   65.2547 C   0  0  0  0  0  0  0  0  0  0  0  0
   21.0502   44.3240   64.4053 O   0  0  0  0  0  0  0  0  0  0  0  0
   23.4207   44.9595   67.5960 O   0  5  0  0  0  0  0  0  0  0  0  0
   23.2604   38.7404   66.4396 N   0  0  0  0  0  0  0  0  0  0  0  0
   21.6565   43.2211   66.7130 O   0  0  0  0  0  0  0  0  0  0  0  0
   23.9978   43.3756   65.6487 O   0  0  0  0  0  0  0  0  0  0  0  0
   22.0564   39.2036   66.6961 C   0  0  2  0  0  0  0  0  0  0  0  0
   21.1343   39.1958   65.7001 C   0  0  2  0  0  0  0  0  0  0  0  0
   19.7019   39.6615   65.7103 C   0  0  0  0  0  0  0  0  0  0  0  0
   19.6483   41.1457   66.0797 C   0  0  0  0  0  0  0  0  0  0  0  0
   20.1505   41.9249   64.9922 O   0  0  0  0  0  0  0  0  0  0  0  0
  1 11  1  0  0  0  0
  3 13  1  1  0  0  0
  3 17  1  0  0  0  0
  3 20  1  0  0  0  0
  3 26  1  0  0  0  0
  4 14  1  0  0  0  0
  4 18  1  1  0  0  0
  4 21  2  0  0  0  0
  4 20  1  0  0  0  0
  5 19  1  0  0  0  0
  5  7  1  0  0  0  0
  6  7  2  0  0  0  0
  6 12  1  0  0  0  0
  7  8  1  0  0  0  0
  8  9  1  0  0  0  0
  8 10  2  0  0  0  0
 10 11  1  0  0  0  0
 11 12  2  0  0  0  0
 14 17  1  0  0  0  0
 15 23  1  0  0  0  0
 15 16  1  0  0  0  0
 16 19  1  0  0  0  0
 19 22  1  0  0  0  0
 22  2  1  6  0  0  0
 22 23  1  0  0  0  0
 23 24  1  1  0  0  0
 24 25  1  0  0  0  0
 25 26  1  0  0  0  0
M  CHG  1  18  -1
M  END
>  <CHROM.1>
75.39532461,85.13726331,-121.18065279,71.48332909,-162.13108910,-58.37075213
22.99023489,41.52625587,66.15054974,-0.56451467,-0.19824557,0.04846883

>  <Name>
ligand

>  <RI>
0

>  <Rbt.Current_Directory>
/home/itssahil/PROJECTS/Mol_Feturizer/New_Systems/rnas/2HOL

>  <Rbt.Executable>
rbdock ($Id: //depot/dev/client3/rdock/2013.1/src/exe/rbdock.cxx#4 $)

>  <Rbt.Library>
libRbt.so (2013.1, Build901 2013/11/27)

>  <Rbt.Parameter_File>
/export/apps/rDock/src/rDock_2013.1_src/data/scripts/dock_solv.prm

>  <Rbt.Receptor>
prm/pocket_docking_4.prm

>  <SCORE>
-19.88

>  <SCORE.INTER>
-16.8216

>  <SCORE.INTER.CONST>
1

>  <SCORE.INTER.POLAR>
0

>  <SCORE.INTER.ROT>
6

>  <SCORE.INTER.SOLV>
14.8346

>  <SCORE.INTER.VDW>
-23.7593

>  <SCORE.INTER.norm>
-0.646985

>  <SCORE.INTRA>
-3.18712

>  <SCORE.INTRA.DIHEDRAL>
-2.81916

>  <SCORE.INTRA.DIHEDRAL.0>
9.33621

>  <SCORE.INTRA.POLAR>
0

>  <SCORE.INTRA.POLAR.0>
0

>  <SCORE.INTRA.REPUL>
0

>  <SCORE.INTRA.REPUL.0>
0

>  <SCORE.INTRA.SOLV>
2.23843

>  <SCORE.INTRA.SOLV.lig_0>
-65.9238

>  <SCORE.INTRA.VDW>
-2.89676

>  <SCORE.INTRA.VDW.0>
-0.405582

>  <SCORE.INTRA.norm>
-0.122581

>  <SCORE.RESTR>
0.128755

>  <SCORE.RESTR.CAVITY>
0.128755

>  <SCORE.RESTR.norm>
0.00495211

>  <SCORE.SYSTEM>
0

>  <SCORE.SYSTEM.CONST>
0

>  <SCORE.SYSTEM.DIHEDRAL>
0

>  <SCORE.SYSTEM.SOLV>
0

>  <SCORE.SYSTEM.norm>
0

>  <SCORE.heavy>
26

>  <SCORE.norm>
-0.764614

>  <RMSD>
7.560

$$$$
ligand
 OpenBabel11021811443D
libRbt.so/2013.1/901 2013/11/27
 26 28  0  0  0  0  0  0  0  0999 V2000
   22.0134   37.6275   68.2444 C   0  0  0  0  0  0  0  0  0  0  0  0
   24.6913   43.5623   67.2598 C   0  0  0  0  0  0  0  0  0  0  0  0
   20.4326   43.3681   65.6597 P   0  0  1  0  0  0  0  0  0  0  0  0
   19.9078   40.8369   65.5971 P   0  0  1  0  0  0  0  0  0  0  0  0
   26.0397   41.2361   66.4597 C   0  0  0  0  0  0  0  0  0  0  0  0
   23.6400   40.6291   66.8890 C   0  0  0  0  0  0  0  0  0  0  0  0
   24.9751   40.2800   66.9325 C   0  0  0  0  0  0  0  0  0  0  0  0
   25.3138   39.0186   67.4252 C   0  0  0  0  0  0  0  0  0  0  0  0
   26.6406   38.6203   67.4902 N   0  0  0  0  0  0  0  0  0  0  0  0
   24.3452   38.2061   67.8373 N   0  0  0  0  0  0  0  0  0  0  0  0
   23.0832   38.5780   67.7736 C   0  0  0  0  0  0  0  0  0  0  0  0
   22.7302   39.7625   67.3137 N   0  0  0  0  0  0  0  0  0  0  0  0
   19.4226   44.3217   66.1718 O   0  0  0  0  0  0  0  0  0  0  0  0
   20.3082   41.1398   67.0586 O   0  0  0  0  0  0  0  0  0  0  0  0
   24.8200   43.1206   63.3700 S   0  0  0  0  0  0  0  0  0  0  0  0
   25.6236   41.8037   64.1682 C   0  0  0  0  0  0  0  0  0  0  0  0
   21.2130   42.6967   66.8958 O   0  0  0  0  0  0  0  0  0  0  0  0
   18.5372   39.9935   65.5779 O   0  5  0  0  0  0  0  0  0  0  0  0
   25.4819   42.1207   65.4344 N   0  0  0  0  0  0  0  0  0  0  0  0
   19.6991   42.2205   64.8003 O   0  0  0  0  0  0  0  0  0  0  0  0
   21.0267   40.0155   64.9182 O   0  0  0  0  0  0  0  0  0  0  0  0
   24.8470   43.2126   65.8013 C   0  0  2  0  0  0  0  0  0  0  0  0
   24.3413   44.0223   64.8363 C   0  0  2  0  0  0  0  0  0  0  0  0
   23.5841   45.3179   64.9656 C   0  0  0  0  0  0  0  0  0  0  0  0
   22.2039   45.0467   65.5687 C   0  0  0  0  0  0  0  0  0  0  0  0
   21.4828   44.1496   64.7218 O   0  0  0  0  0  0  0  0  0  0  0  0
  1 11  1  0  0  0  0
  3 13  1  1  0  0  0
  3 17  1  0  0  0  0
  3 20  1  0  0  0  0
  3 26  1  0  0  0  0
  4 14  1  0  0  0  0
  4 18  1  6  0  0  0
  4 21  2  0  0  0  0
  4 20  1  0  0  0  0
  5 19  1  0  0  0  0
  5  7  1  0  0  0  0
  6  7  2  0  0  0  0
  6 12  1  0  0  0  0
  7  8  1  0  0  0  0
  8  9  1  0  0  0  0
  8 10  2  0  0  0  0
 10 11  1  0  0  0  0
 11 12  2  0  0  0  0
 14 17  1  0  0  0  0
 15 23  1  0  0  0  0
 15 16  1  0  0  0  0
 16 19  1  0  0  0  0
 19 22  1  0  0  0  0
 22  2  1  6  0  0  0
 22 23  1  0  0  0  0
 23 24  1  1  0  0  0
 24 25  1  0  0  0  0
 25 26  1  0  0  0  0
M  CHG  1  18  -1
M  END
>  <CHROM.1>
-94.37186428,-28.04232232,111.16094578,-59.67960278,153.44119605,66.39343953
22.65373306,41.71192571,65.95353037,0.63972555,-0.00936083,2.70224696

>  <Name>
ligand

>  <RI>
0

>  <Rbt.Current_Directory>
/home/itssahil/PROJECTS/Mol_Feturizer/New_Systems/rnas/2HOL

>  <Rbt.Executable>
rbdock ($Id: //depot/dev/client3/rdock/2013.1/src/exe/rbdock.cxx#4 $)

>  <Rbt.Library>
libRbt.so (2013.1, Build901 2013/11/27)

>  <Rbt.Parameter_File>
/export/apps/rDock/src/rDock_2013.1_src/data/scripts/dock_solv.prm

>  <Rbt.Receptor>
prm/pocket_docking_5.prm

>  <SCORE>
-17.1659

>  <SCORE.INTER>
-13.5663

>  <SCORE.INTER.CONST>
1

>  <SCORE.INTER.POLAR>
0

>  <SCORE.INTER.ROT>
6

>  <SCORE.INTER.SOLV>
19.7169

>  <SCORE.INTER.VDW>
-23.2165

>  <SCORE.INTER.norm>
-0.521782

>  <SCORE.INTRA>
-3.59952

>  <SCORE.INTRA.DIHEDRAL>
-1.73405

>  <SCORE.INTRA.DIHEDRAL.0>
9.33621

>  <SCORE.INTRA.POLAR>
0

>  <SCORE.INTRA.POLAR.0>
0

>  <SCORE.INTRA.REPUL>
0

>  <SCORE.INTRA.REPUL.0>
0

>  <SCORE.INTRA.SOLV>
0.850763

>  <SCORE.INTRA.SOLV.lig_0>
-65.9238

>  <SCORE.INTRA.VDW>
-3.15788

>  <SCORE.INTRA.VDW.0>
-0.405582

>  <SCORE.INTRA.norm>
-0.138443

>  <SCORE.RESTR>
0

>  <SCORE.RESTR.CAVITY>
0

>  <SCORE.RESTR.norm>
0

>  <SCORE.SYSTEM>
0

>  <SCORE.SYSTEM.CONST>
0

>  <SCORE.SYSTEM.DIHEDRAL>
0

>  <SCORE.SYSTEM.SOLV>
0

>  <SCORE.SYSTEM.norm>
0

>  <SCORE.heavy>
26

>  <SCORE.norm>
-0.660225

>  <RMSD>
7.585

$$$$
ligand
 OpenBabel11021811443D
libRbt.so/2013.1/901 2013/11/27
 26 28  0  0  0  0  0  0  0  0999 V2000
   27.9904   40.6117   71.4500 C   0  0  0  0  0  0  0  0  0  0  0  0
   23.8847   41.7994   65.0171 C   0  0  0  0  0  0  0  0  0  0  0  0
   20.8922   39.8268   66.8092 P   0  0  1  0  0  0  0  0  0  0  0  0
   22.7116   38.0255   66.4461 P   0  0  1  0  0  0  0  0  0  0  0  0
   26.1537   42.6193   66.4485 C   0  0  0  0  0  0  0  0  0  0  0  0
   26.0959   42.5343   68.9588 C   0  0  0  0  0  0  0  0  0  0  0  0
   26.6409   42.0871   67.7717 C   0  0  0  0  0  0  0  0  0  0  0  0
   27.6546   41.1290   67.8281 C   0  0  0  0  0  0  0  0  0  0  0  0
   28.2351   40.6477   66.6641 N   0  0  0  0  0  0  0  0  0  0  0  0
   28.0598   40.6884   69.0155 N   0  0  0  0  0  0  0  0  0  0  0  0
   27.5086   41.1391   70.1237 C   0  0  0  0  0  0  0  0  0  0  0  0
   26.5495   42.0440   70.1046 N   0  0  0  0  0  0  0  0  0  0  0  0
   19.4912   39.5543   66.4164 O   0  0  0  0  0  0  0  0  0  0  0  0
   21.9764   37.6148   67.7418 O   0  0  0  0  0  0  0  0  0  0  0  0
   23.1968   44.8530   67.3718 S   0  0  0  0  0  0  0  0  0  0  0  0
   24.8552   44.3484   67.4830 C   0  0  0  0  0  0  0  0  0  0  0  0
   21.1869   39.1619   68.2441 O   0  0  0  0  0  0  0  0  0  0  0  0
   22.8266   36.7540   65.4660 O   0  5  0  0  0  0  0  0  0  0  0  0
   24.8930   43.3382   66.6452 N   0  0  0  0  0  0  0  0  0  0  0  0
   21.8887   39.1983   65.7112 O   0  0  0  0  0  0  0  0  0  0  0  0
   24.1279   38.5331   66.7985 O   0  0  0  0  0  0  0  0  0  0  0  0
   23.8249   42.9609   65.9769 C   0  0  2  0  0  0  0  0  0  0  0  0
   22.6646   43.6365   66.1764 C   0  0  2  0  0  0  0  0  0  0  0  0
   21.3074   43.4227   65.5591 C   0  0  0  0  0  0  0  0  0  0  0  0
   20.9682   41.9305   65.5714 C   0  0  0  0  0  0  0  0  0  0  0  0
   21.1266   41.4176   66.8957 O   0  0  0  0  0  0  0  0  0  0  0  0
  1 11  1  0  0  0  0
  3 13  1  6  0  0  0
  3 17  1  0  0  0  0
  3 20  1  0  0  0  0
  3 26  1  0  0  0  0
  4 14  1  0  0  0  0
  4 18  1  6  0  0  0
  4 21  2  0  0  0  0
  4 20  1  0  0  0  0
  5 19  1  0  0  0  0
  5  7  1  0  0  0  0
  6  7  2  0  0  0  0
  6 12  1  0  0  0  0
  7  8  1  0  0  0  0
  8  9  1  0  0  0  0
  8 10  2  0  0  0  0
 10 11  1  0  0  0  0
 11 12  2  0  0  0  0
 14 17  1  0  0  0  0
 15 23  1  0  0  0  0
 15 16  1  0  0  0  0
 16 19  1  0  0  0  0
 19 22  1  0  0  0  0
 22  2  1  1  0  0  0
 22 23  1  0  0  0  0
 23 24  1  6  0  0  0
 24 25  1  0  0  0  0
 25 26  1  0  0  0  0
M  CHG  1  18  -1
M  END
>  <CHROM.1>
57.49549391,-13.94172642,-134.79919415,52.55730336,-174.74121094,-65.01881724
23.76023977,41.00703982,67.18233238,-0.37110552,0.41871066,3.05433504

>  <Name>
ligand

>  <RI>
0

>  <Rbt.Current_Directory>
/home/itssahil/PROJECTS/Mol_Feturizer/New_Systems/rnas/2HOL

>  <Rbt.Executable>
rbdock ($Id: //depot/dev/client3/rdock/2013.1/src/exe/rbdock.cxx#4 $)

>  <Rbt.Library>
libRbt.so (2013.1, Build901 2013/11/27)

>  <Rbt.Parameter_File>
/export/apps/rDock/src/rDock_2013.1_src/data/scripts/dock_solv.prm

>  <Rbt.Receptor>
prm/pocket_docking_4.prm

>  <SCORE>
-13.5087

>  <SCORE.INTER>
-13.4063

>  <SCORE.INTER.CONST>
1

>  <SCORE.INTER.POLAR>
0

>  <SCORE.INTER.ROT>
6

>  <SCORE.INTER.SOLV>
15.3933

>  <SCORE.INTER.VDW>
-21.6686

>  <SCORE.INTER.norm>
-0.515625

>  <SCORE.INTRA>
-0.350847

>  <SCORE.INTRA.DIHEDRAL>
-4.31467

>  <SCORE.INTRA.DIHEDRAL.0>
9.33621

>  <SCORE.INTRA.POLAR>
0

>  <SCORE.INTRA.POLAR.0>
0

>  <SCORE.INTRA.REPUL>
0

>  <SCORE.INTRA.REPUL.0>
0

>  <SCORE.INTRA.SOLV>
1.03702

>  <SCORE.INTRA.SOLV.lig_0>
-65.9238

>  <SCORE.INTRA.VDW>
1.28798

>  <SCORE.INTRA.VDW.0>
-0.405582

>  <SCORE.INTRA.norm>
-0.0134941

>  <SCORE.RESTR>
0.248369

>  <SCORE.RESTR.CAVITY>
0.248369

>  <SCORE.RESTR.norm>
0.00955266

>  <SCORE.SYSTEM>
0

>  <SCORE.SYSTEM.CONST>
0

>  <SCORE.SYSTEM.DIHEDRAL>
0

>  <SCORE.SYSTEM.SOLV>
0

>  <SCORE.SYSTEM.norm>
0

>  <SCORE.heavy>
26

>  <SCORE.norm>
-0.519567

>  <RMSD>
7.594

$$$$
ligand
 OpenBabel11021811443D
libRbt.so/2013.1/901 2013/11/27
 26 28  0  0  0  0  0  0  0  0999 V2000
   32.2266   43.7191   66.2316 C   0  0  0  0  0  0  0  0  0  0  0  0
   24.2686   43.0677   66.6842 C   0  0  0  0  0  0  0  0  0  0  0  0
   22.8234   37.8297   67.5045 P   0  0  1  0  0  0  0  0  0  0  0  0
   25.1500   37.5802   68.6053 P   0  0  1  0  0  0  0  0  0  0  0  0
   26.5875   44.3234   65.7273 C   0  0  0  0  0  0  0  0  0  0  0  0
   28.6367   43.6285   67.0040 C   0  0  0  0  0  0  0  0  0  0  0  0
   28.0803   44.1641   65.8595 C   0  0  0  0  0  0  0  0  0  0  0  0
   28.9357   44.5540   64.8275 C   0  0  0  0  0  0  0  0  0  0  0  0
   28.4266   45.0979   63.6577 N   0  0  0  0  0  0  0  0  0  0  0  0
   30.2472   44.4016   64.9850 N   0  0  0  0  0  0  0  0  0  0  0  0
   30.7354   43.8815   66.0924 C   0  0  0  0  0  0  0  0  0  0  0  0
   29.9546   43.5035   67.0856 N   0  0  0  0  0  0  0  0  0  0  0  0
   21.8612   36.7053   67.5431 O   0  0  0  0  0  0  0  0  0  0  0  0
   24.1759   37.8907   69.7641 O   0  0  0  0  0  0  0  0  0  0  0  0
   25.6448   41.4524   63.3919 S   0  0  0  0  0  0  0  0  0  0  0  0
   26.6446   42.7818   63.8926 C   0  0  0  0  0  0  0  0  0  0  0  0
   22.7708   38.6301   68.8990 O   0  0  0  0  0  0  0  0  0  0  0  0
   26.0583   36.3089   68.9913 O   0  5  0  0  0  0  0  0  0  0  0  0
   26.0386   43.1867   64.9847 N   0  0  0  0  0  0  0  0  0  0  0  0
   24.3098   37.2555   67.2706 O   0  0  0  0  0  0  0  0  0  0  0  0
   26.0586   38.8050   68.3565 O   0  0  0  0  0  0  0  0  0  0  0  0
   24.9524   42.5916   65.4274 C   0  0  2  0  0  0  0  0  0  0  0  0
   24.4561   41.5431   64.7226 C   0  0  2  0  0  0  0  0  0  0  0  0
   23.2433   40.6908   64.9901 C   0  0  0  0  0  0  0  0  0  0  0  0
   23.5435   39.7162   66.1311 C   0  0  0  0  0  0  0  0  0  0  0  0
   22.4389   38.8253   66.2987 O   0  0  0  0  0  0  0  0  0  0  0  0
  1 11  1  0  0  0  0
  3 13  1  1  0  0  0
  3 17  1  0  0  0  0
  3 20  1  0  0  0  0
  3 26  1  0  0  0  0
  4 14  1  0  0  0  0
  4 18  1  1  0  0  0
  4 21  2  0  0  0  0
  4 20  1  0  0  0  0
  5 19  1  0  0  0  0
  5  7  1  0  0  0  0
  6  7  2  0  0  0  0
  6 12  1  0  0  0  0
  7  8  1  0  0  0  0
  8  9  1  0  0  0  0
  8 10  2  0  0  0  0
 10 11  1  0  0  0  0
 11 12  2  0  0  0  0
 14 17  1  0  0  0  0
 15 23  1  0  0  0  0
 15 16  1  0  0  0  0
 16 19  1  0  0  0  0
 19 22  1  0  0  0  0
 22  2  1  6  0  0  0
 22 23  1  0  0  0  0
 23 24  1  1  0  0  0
 24 25  1  0  0  0  0
 25 26  1  0  0  0  0
M  CHG  1  18  -1
M  END
>  <CHROM.1>
-45.19741476,-97.04160683,104.26089392,-174.56830002,179.77702493,-167.96024421
25.79006234,40.78484363,66.44731423,-0.83438412,0.39180970,2.40641399

>  <Name>
ligand

>  <RI>
0

>  <Rbt.Current_Directory>
/home/itssahil/PROJECTS/Mol_Feturizer/New_Systems/rnas/2HOL

>  <Rbt.Executable>
rbdock ($Id: //depot/dev/client3/rdock/2013.1/src/exe/rbdock.cxx#4 $)

>  <Rbt.Library>
libRbt.so (2013.1, Build901 2013/11/27)

>  <Rbt.Parameter_File>
/export/apps/rDock/src/rDock_2013.1_src/data/scripts/dock_solv.prm

>  <Rbt.Receptor>
prm/pocket_docking_6.prm

>  <SCORE>
-10.3715

>  <SCORE.INTER>
-7.61893

>  <SCORE.INTER.CONST>
1

>  <SCORE.INTER.POLAR>
0

>  <SCORE.INTER.ROT>
6

>  <SCORE.INTER.SOLV>
11.0773

>  <SCORE.INTER.VDW>
-16.3717

>  <SCORE.INTER.norm>
-0.293036

>  <SCORE.INTRA>
-2.75255

>  <SCORE.INTRA.DIHEDRAL>
-4.34544

>  <SCORE.INTRA.DIHEDRAL.0>
9.33621

>  <SCORE.INTRA.POLAR>
0

>  <SCORE.INTRA.POLAR.0>
0

>  <SCORE.INTRA.REPUL>
0

>  <SCORE.INTRA.REPUL.0>
0

>  <SCORE.INTRA.SOLV>
1.61448

>  <SCORE.INTRA.SOLV.lig_0>
-65.9238

>  <SCORE.INTRA.VDW>
-1.38707

>  <SCORE.INTRA.VDW.0>
-0.405582

>  <SCORE.INTRA.norm>
-0.105867

>  <SCORE.RESTR>
0

>  <SCORE.RESTR.CAVITY>
0

>  <SCORE.RESTR.norm>
0

>  <SCORE.SYSTEM>
0

>  <SCORE.SYSTEM.CONST>
0

>  <SCORE.SYSTEM.DIHEDRAL>
0

>  <SCORE.SYSTEM.SOLV>
0

>  <SCORE.SYSTEM.norm>
0

>  <SCORE.heavy>
26

>  <SCORE.norm>
-0.398903

>  <RMSD>
7.661

$$$$
ligand
 OpenBabel11021811443D
libRbt.so/2013.1/901 2013/11/27
 26 28  0  0  0  0  0  0  0  0999 V2000
   27.6861   40.8686   70.8339 C   0  0  0  0  0  0  0  0  0  0  0  0
   24.0412   43.1021   64.6950 C   0  0  0  0  0  0  0  0  0  0  0  0
   21.0201   40.2720   66.3661 P   0  0  1  0  0  0  0  0  0  0  0  0
   22.3162   38.2632   65.3805 P   0  0  1  0  0  0  0  0  0  0  0  0
   25.9081   44.1303   66.5190 C   0  0  0  0  0  0  0  0  0  0  0  0
   25.6425   43.1648   68.8231 C   0  0  0  0  0  0  0  0  0  0  0  0
   26.3800   43.2666   67.6603 C   0  0  0  0  0  0  0  0  0  0  0  0
   27.5737   42.5489   67.5685 C   0  0  0  0  0  0  0  0  0  0  0  0
   28.3512   42.6178   66.4221 N   0  0  0  0  0  0  0  0  0  0  0  0
   27.9579   41.8021   68.5996 N   0  0  0  0  0  0  0  0  0  0  0  0
   27.2208   41.7299   69.6889 C   0  0  0  0  0  0  0  0  0  0  0  0
   26.0886   42.3955   69.8072 N   0  0  0  0  0  0  0  0  0  0  0  0
   19.5424   40.2328   66.4462 O   0  0  0  0  0  0  0  0  0  0  0  0
   21.9773   37.8630   66.8341 O   0  0  0  0  0  0  0  0  0  0  0  0
   22.4046   45.2906   67.5011 S   0  0  0  0  0  0  0  0  0  0  0  0
   24.1272   45.2069   67.7087 C   0  0  0  0  0  0  0  0  0  0  0  0
   21.6471   39.4637   67.6076 O   0  0  0  0  0  0  0  0  0  0  0  0
   21.9079   37.0673   64.3836 O   0  5  0  0  0  0  0  0  0  0  0  0
   24.4900   44.4482   66.7004 N   0  0  0  0  0  0  0  0  0  0  0  0
   21.5003   39.5942   64.9863 O   0  0  0  0  0  0  0  0  0  0  0  0
   23.8328   38.5352   65.2633 O   0  0  0  0  0  0  0  0  0  0  0  0
   23.6085   43.9712   65.8488 C   0  0  2  0  0  0  0  0  0  0  0  0
   22.2985   44.2728   66.0366 C   0  0  2  0  0  0  0  0  0  0  0  0
   21.0918   43.8661   65.2321 C   0  0  0  0  0  0  0  0  0  0  0  0
   20.4853   42.5927   65.8261 C   0  0  0  0  0  0  0  0  0  0  0  0
   21.5208   41.8018   66.4129 O   0  0  0  0  0  0  0  0  0  0  0  0
  1 11  1  0  0  0  0
  3 13  1  1  0  0  0
  3 17  1  0  0  0  0
  3 20  1  0  0  0  0
  3 26  1  0  0  0  0
  4 14  1  0  0  0  0
  4 18  1  6  0  0  0
  4 21  2  0  0  0  0
  4 20  1  0  0  0  0
  5 19  1  0  0  0  0
  5  7  1  0  0  0  0
  6  7  2  0  0  0  0
  6 12  1  0  0  0  0
  7  8  1  0  0  0  0
  8  9  1  0  0  0  0
  8 10  2  0  0  0  0
 10 11  1  0  0  0  0
 11 12  2  0  0  0  0
 14 17  1  0  0  0  0
 15 23  1  0  0  0  0
 15 16  1  0  0  0  0
 16 19  1  0  0  0  0
 19 22  1  0  0  0  0
 22  2  1  1  0  0  0
 22 23  1  0  0  0  0
 23 24  1  6  0  0  0
 24 25  1  0  0  0  0
 25 26  1  0  0  0  0
M  CHG  1  18  -1
M  END
>  <CHROM.1>
66.59869463,-16.32130966,-87.25980871,-30.98325880,-153.25662151,-29.85241340
23.51892999,41.65774790,66.78408123,-0.64279357,0.41756757,-3.07056400

>  <Name>
ligand

>  <RI>
0

>  <Rbt.Current_Directory>
/home/itssahil/PROJECTS/Mol_Feturizer/New_Systems/rnas/2HOL

>  <Rbt.Executable>
rbdock ($Id: //depot/dev/client3/rdock/2013.1/src/exe/rbdock.cxx#4 $)

>  <Rbt.Library>
libRbt.so (2013.1, Build901 2013/11/27)

>  <Rbt.Parameter_File>
/export/apps/rDock/src/rDock_2013.1_src/data/scripts/dock_solv.prm

>  <Rbt.Receptor>
prm/pocket_docking_5.prm

>  <SCORE>
-15.3774

>  <SCORE.INTER>
-17.6236

>  <SCORE.INTER.CONST>
1

>  <SCORE.INTER.POLAR>
0

>  <SCORE.INTER.ROT>
6

>  <SCORE.INTER.SOLV>
18.5138

>  <SCORE.INTER.VDW>
-25.5203

>  <SCORE.INTER.norm>
-0.67783

>  <SCORE.INTRA>
1.72318

>  <SCORE.INTRA.DIHEDRAL>
2.39443

>  <SCORE.INTRA.DIHEDRAL.0>
9.33621

>  <SCORE.INTRA.POLAR>
0

>  <SCORE.INTRA.POLAR.0>
0

>  <SCORE.INTRA.REPUL>
0

>  <SCORE.INTRA.REPUL.0>
0

>  <SCORE.INTRA.SOLV>
0.150104

>  <SCORE.INTRA.SOLV.lig_0>
-65.9238

>  <SCORE.INTRA.VDW>
0.450911

>  <SCORE.INTRA.VDW.0>
-0.405582

>  <SCORE.INTRA.norm>
0.0662761

>  <SCORE.RESTR>
0.522985

>  <SCORE.RESTR.CAVITY>
0.522985

>  <SCORE.RESTR.norm>
0.0201148

>  <SCORE.SYSTEM>
0

>  <SCORE.SYSTEM.CONST>
0

>  <SCORE.SYSTEM.DIHEDRAL>
0

>  <SCORE.SYSTEM.SOLV>
0

>  <SCORE.SYSTEM.norm>
0

>  <SCORE.heavy>
26

>  <SCORE.norm>
-0.591439

>  <RMSD>
7.685

$$$$
ligand
 OpenBabel11021811443D
libRbt.so/2013.1/901 2013/11/27
 26 28  0  0  0  0  0  0  0  0999 V2000
   28.2723   39.5689   72.3500 C   0  0  0  0  0  0  0  0  0  0  0  0
   23.9080   38.8169   65.9243 C   0  0  0  0  0  0  0  0  0  0  0  0
   22.2195   43.9506   66.6630 P   0  0  1  0  0  0  0  0  0  0  0  0
   24.1826   44.4366   65.0516 P   0  0  1  0  0  0  0  0  0  0  0  0
   24.8393   37.5825   68.2649 C   0  0  0  0  0  0  0  0  0  0  0  0
   26.4478   39.2846   69.1747 C   0  0  0  0  0  0  0  0  0  0  0  0
   25.7477   38.1071   69.3470 C   0  0  0  0  0  0  0  0  0  0  0  0
   25.9024   37.4148   70.5493 C   0  0  0  0  0  0  0  0  0  0  0  0
   25.2217   36.2271   70.7714 N   0  0  0  0  0  0  0  0  0  0  0  0
   26.7172   37.9084   71.4771 N   0  0  0  0  0  0  0  0  0  0  0  0
   27.3625   39.0383   71.2728 C   0  0  0  0  0  0  0  0  0  0  0  0
   27.2384   39.7160   70.1484 N   0  0  0  0  0  0  0  0  0  0  0  0
   21.8703   44.9258   67.7206 O   0  0  0  0  0  0  0  0  0  0  0  0
   22.9882   45.2508   64.5051 O   0  0  0  0  0  0  0  0  0  0  0  0
   21.5011   39.2955   68.9772 S   0  0  0  0  0  0  0  0  0  0  0  0
   22.8935   38.3603   69.4289 C   0  0  0  0  0  0  0  0  0  0  0  0
   21.5744   44.4192   65.2658 O   0  0  0  0  0  0  0  0  0  0  0  0
   25.4809   45.3831   65.1468 O   0  5  0  0  0  0  0  0  0  0  0  0
   23.5661   38.3053   68.3027 N   0  0  0  0  0  0  0  0  0  0  0  0
   23.8211   43.8707   66.5151 O   0  0  0  0  0  0  0  0  0  0  0  0
   24.4762   43.2548   64.1006 O   0  0  0  0  0  0  0  0  0  0  0  0
   23.1231   38.8880   67.2099 C   0  0  2  0  0  0  0  0  0  0  0  0
   21.9387   39.5489   67.2636 C   0  0  2  0  0  0  0  0  0  0  0  0
   21.2008   40.2923   66.1812 C   0  0  0  0  0  0  0  0  0  0  0  0
   21.8748   41.6445   65.9374 C   0  0  0  0  0  0  0  0  0  0  0  0
   21.6460   42.4991   67.0596 O   0  0  0  0  0  0  0  0  0  0  0  0
  1 11  1  0  0  0  0
  3 13  1  1  0  0  0
  3 17  1  0  0  0  0
  3 20  1  0  0  0  0
  3 26  1  0  0  0  0
  4 14  1  0  0  0  0
  4 18  1  1  0  0  0
  4 21  2  0  0  0  0
  4 20  1  0  0  0  0
  5 19  1  0  0  0  0
  5  7  1  0  0  0  0
  6  7  2  0  0  0  0
  6 12  1  0  0  0  0
  7  8  1  0  0  0  0
  8  9  1  0  0  0  0
  8 10  2  0  0  0  0
 10 11  1  0  0  0  0
 11 12  2  0  0  0  0
 14 17  1  0  0  0  0
 15 23  1  0  0  0  0
 15 16  1  0  0  0  0
 16 19  1  0  0  0  0
 19 22  1  0  0  0  0
 22  2  1  6  0  0  0
 22 23  1  0  0  0  0
 23 24  1  1  0  0  0
 24 25  1  0  0  0  0
 25 26  1  0  0  0  0
M  CHG  1  18  -1
M  END
>  <CHROM.1>
-53.91316796,-79.45998880,103.72597484,-70.11688253,-173.16612387,173.33670996
23.84975258,41.09399892,67.64610331,-1.20092941,-0.38786466,-0.51629905

>  <Name>
ligand

>  <RI>
0

>  <Rbt.Current_Directory>
/home/itssahil/PROJECTS/Mol_Feturizer/New_Systems/rnas/2HOL

>  <Rbt.Executable>
rbdock ($Id: //depot/dev/client3/rdock/2013.1/src/exe/rbdock.cxx#4 $)

>  <Rbt.Library>
libRbt.so (2013.1, Build901 2013/11/27)

>  <Rbt.Parameter_File>
/export/apps/rDock/src/rDock_2013.1_src/data/scripts/dock_solv.prm

>  <Rbt.Receptor>
prm/pocket_docking_6.prm

>  <SCORE>
-17.1975

>  <SCORE.INTER>
-13.5598

>  <SCORE.INTER.CONST>
1

>  <SCORE.INTER.POLAR>
0

>  <SCORE.INTER.ROT>
6

>  <SCORE.INTER.SOLV>
11.5181

>  <SCORE.INTER.VDW>
-20.4792

>  <SCORE.INTER.norm>
-0.521529

>  <SCORE.INTRA>
-3.63774

>  <SCORE.INTRA.DIHEDRAL>
-4.00198

>  <SCORE.INTRA.DIHEDRAL.0>
9.33621

>  <SCORE.INTRA.POLAR>
0

>  <SCORE.INTRA.POLAR.0>
0

>  <SCORE.INTRA.REPUL>
0

>  <SCORE.INTRA.REPUL.0>
0

>  <SCORE.INTRA.SOLV>
0.955769

>  <SCORE.INTRA.SOLV.lig_0>
-65.9238

>  <SCORE.INTRA.VDW>
-2.11463

>  <SCORE.INTRA.VDW.0>
-0.405582

>  <SCORE.INTRA.norm>
-0.139913

>  <SCORE.RESTR>
0

>  <SCORE.RESTR.CAVITY>
0

>  <SCORE.RESTR.norm>
0

>  <SCORE.SYSTEM>
0

>  <SCORE.SYSTEM.CONST>
0

>  <SCORE.SYSTEM.DIHEDRAL>
0

>  <SCORE.SYSTEM.SOLV>
0

>  <SCORE.SYSTEM.norm>
0

>  <SCORE.heavy>
26

>  <SCORE.norm>
-0.661442

>  <RMSD>
7.690

$$$$
ligand
 OpenBabel11021811443D
libRbt.so/2013.1/901 2013/11/27
 26 28  0  0  0  0  0  0  0  0999 V2000
   24.3597   36.5735   70.1837 C   0  0  0  0  0  0  0  0  0  0  0  0
   26.5713   42.4000   68.7751 C   0  0  0  0  0  0  0  0  0  0  0  0
   21.6127   42.5297   66.3921 P   0  0  1  0  0  0  0  0  0  0  0  0
   20.6243   40.2183   65.7860 P   0  0  1  0  0  0  0  0  0  0  0  0
   27.9449   40.2158   67.6740 C   0  0  0  0  0  0  0  0  0  0  0  0
   26.8206   39.2584   69.7065 C   0  0  0  0  0  0  0  0  0  0  0  0
   26.9957   39.2511   68.3370 C   0  0  0  0  0  0  0  0  0  0  0  0
   26.2707   38.3276   67.5818 C   0  0  0  0  0  0  0  0  0  0  0  0
   26.4112   38.2795   66.2029 N   0  0  0  0  0  0  0  0  0  0  0  0
   25.4471   37.4901   68.2051 N   0  0  0  0  0  0  0  0  0  0  0  0
   25.3068   37.5347   69.5140 C   0  0  0  0  0  0  0  0  0  0  0  0
   25.9771   38.3947   70.2558 N   0  0  0  0  0  0  0  0  0  0  0  0
   20.7123   43.6531   66.7366 O   0  0  0  0  0  0  0  0  0  0  0  0
   20.5977   40.2871   67.3296 O   0  0  0  0  0  0  0  0  0  0  0  0
   26.1932   42.1487   64.8846 S   0  0  0  0  0  0  0  0  0  0  0  0
   27.1824   40.8573   65.4939 C   0  0  0  0  0  0  0  0  0  0  0  0
   21.8083   41.5839   67.6786 O   0  0  0  0  0  0  0  0  0  0  0  0
   19.1865   39.7401   65.2434 O   0  5  0  0  0  0  0  0  0  0  0  0
   27.1955   41.1046   66.7833 N   0  0  0  0  0  0  0  0  0  0  0  0
   20.9669   41.6744   65.1900 O   0  0  0  0  0  0  0  0  0  0  0  0
   21.7053   39.2102   65.3357 O   0  0  0  0  0  0  0  0  0  0  0  0
   26.5477   42.1301   67.2917 C   0  0  2  0  0  0  0  0  0  0  0  0
   25.8630   42.9451   66.4494 C   0  0  2  0  0  0  0  0  0  0  0  0
   25.0484   44.1757   66.7506 C   0  0  0  0  0  0  0  0  0  0  0  0
   23.6056   43.7716   67.0622 C   0  0  0  0  0  0  0  0  0  0  0  0
   23.0419   43.1088   65.9286 O   0  0  0  0  0  0  0  0  0  0  0  0
  1 11  1  0  0  0  0
  3 13  1  1  0  0  0
  3 17  1  0  0  0  0
  3 20  1  0  0  0  0
  3 26  1  0  0  0  0
  4 14  1  0  0  0  0
  4 18  1  6  0  0  0
  4 21  2  0  0  0  0
  4 20  1  0  0  0  0
  5 19  1  0  0  0  0
  5  7  1  0  0  0  0
  6  7  2  0  0  0  0
  6 12  1  0  0  0  0
  7  8  1  0  0  0  0
  8  9  1  0  0  0  0
  8 10  2  0  0  0  0
 10 11  1  0  0  0  0
 11 12  2  0  0  0  0
 14 17  1  0  0  0  0
 15 23  1  0  0  0  0
 15 16  1  0  0  0  0
 16 19  1  0  0  0  0
 19 22  1  0  0  0  0
 22  2  1  6  0  0  0
 22 23  1  0  0  0  0
 23 24  1  1  0  0  0
 24 25  1  0  0  0  0
 25 26  1  0  0  0  0
M  CHG  1  18  -1
M  END
>  <CHROM.1>
-99.95608070,-116.73765217,91.65147003,-60.64391786,172.10788953,64.18500809
24.02680702,40.80949514,66.95468995,0.45929542,0.17455645,2.69926373

>  <Name>
ligand

>  <RI>
0

>  <Rbt.Current_Directory>
/home/itssahil/PROJECTS/Mol_Feturizer/New_Systems/rnas/2HOL

>  <Rbt.Executable>
rbdock ($Id: //depot/dev/client3/rdock/2013.1/src/exe/rbdock.cxx#4 $)

>  <Rbt.Library>
libRbt.so (2013.1, Build901 2013/11/27)

>  <Rbt.Parameter_File>
/export/apps/rDock/src/rDock_2013.1_src/data/scripts/dock_solv.prm

>  <Rbt.Receptor>
prm/pocket_docking_5.prm

>  <SCORE>
-11.61

>  <SCORE.INTER>
-8.17006

>  <SCORE.INTER.CONST>
1

>  <SCORE.INTER.POLAR>
0

>  <SCORE.INTER.ROT>
6

>  <SCORE.INTER.SOLV>
15.9252

>  <SCORE.INTER.VDW>
-18.3551

>  <SCORE.INTER.norm>
-0.314233

>  <SCORE.INTRA>
-3.43998

>  <SCORE.INTRA.DIHEDRAL>
-4.1867

>  <SCORE.INTRA.DIHEDRAL.0>
9.33621

>  <SCORE.INTRA.POLAR>
0

>  <SCORE.INTRA.POLAR.0>
0

>  <SCORE.INTRA.REPUL>
0

>  <SCORE.INTRA.REPUL.0>
0

>  <SCORE.INTRA.SOLV>
1.17361

>  <SCORE.INTRA.SOLV.lig_0>
-65.9238

>  <SCORE.INTRA.VDW>
-1.93344

>  <SCORE.INTRA.VDW.0>
-0.405582

>  <SCORE.INTRA.norm>
-0.132307

>  <SCORE.RESTR>
0

>  <SCORE.RESTR.CAVITY>
0

>  <SCORE.RESTR.norm>
0

>  <SCORE.SYSTEM>
0

>  <SCORE.SYSTEM.CONST>
0

>  <SCORE.SYSTEM.DIHEDRAL>
0

>  <SCORE.SYSTEM.SOLV>
0

>  <SCORE.SYSTEM.norm>
0

>  <SCORE.heavy>
26

>  <SCORE.norm>
-0.44654

>  <RMSD>
7.724

$$$$
ligand
 OpenBabel11021811443D
libRbt.so/2013.1/901 2013/11/27
 26 28  0  0  0  0  0  0  0  0999 V2000
   28.0635   42.1757   64.4252 C   0  0  0  0  0  0  0  0  0  0  0  0
   21.7691   38.2078   64.4648 C   0  0  0  0  0  0  0  0  0  0  0  0
   19.9798   43.2944   65.4004 P   0  0  1  0  0  0  0  0  0  0  0  0
   22.2496   44.0969   66.3439 P   0  0  1  0  0  0  0  0  0  0  0  0
   24.1946   38.2574   65.8733 C   0  0  0  0  0  0  0  0  0  0  0  0
   24.8341   40.5109   64.9653 C   0  0  0  0  0  0  0  0  0  0  0  0
   25.2198   39.2935   65.4904 C   0  0  0  0  0  0  0  0  0  0  0  0
   26.5835   39.0470   65.6579 C   0  0  0  0  0  0  0  0  0  0  0  0
   27.0225   37.8398   66.1807 N   0  0  0  0  0  0  0  0  0  0  0  0
   27.4566   39.9851   65.3031 N   0  0  0  0  0  0  0  0  0  0  0  0
   27.0445   41.1351   64.8102 C   0  0  0  0  0  0  0  0  0  0  0  0
   25.7638   41.3989   64.6392 N   0  0  0  0  0  0  0  0  0  0  0  0
   18.7247   43.9509   65.8310 O   0  0  0  0  0  0  0  0  0  0  0  0
   21.8879   45.1019   65.2272 O   0  0  0  0  0  0  0  0  0  0  0  0
   21.5314   40.1311   67.8687 S   0  0  0  0  0  0  0  0  0  0  0  0
   23.1376   39.5204   67.6150 C   0  0  0  0  0  0  0  0  0  0  0  0
   20.6802   44.1756   64.2512 O   0  0  0  0  0  0  0  0  0  0  0  0
   22.6711   44.8987   67.6743 O   0  5  0  0  0  0  0  0  0  0  0  0
   23.0239   38.9191   66.4534 N   0  0  0  0  0  0  0  0  0  0  0  0
   20.9757   43.1639   66.6592 O   0  0  0  0  0  0  0  0  0  0  0  0
   23.4306   43.2158   65.8786 O   0  0  0  0  0  0  0  0  0  0  0  0
   21.8834   38.9016   65.7987 C   0  0  2  0  0  0  0  0  0  0  0  0
   20.8085   39.5162   66.3550 C   0  0  2  0  0  0  0  0  0  0  0  0
   19.3997   39.6469   65.8382 C   0  0  0  0  0  0  0  0  0  0  0  0
   18.9772   41.1174   65.8685 C   0  0  0  0  0  0  0  0  0  0  0  0
   19.6491   41.8269   64.8258 O   0  0  0  0  0  0  0  0  0  0  0  0
  1 11  1  0  0  0  0
  3 13  1  1  0  0  0
  3 17  1  0  0  0  0
  3 20  1  0  0  0  0
  3 26  1  0  0  0  0
  4 14  1  0  0  0  0
  4 18  1  1  0  0  0
  4 21  2  0  0  0  0
  4 20  1  0  0  0  0
  5 19  1  0  0  0  0
  5  7  1  0  0  0  0
  6  7  2  0  0  0  0
  6 12  1  0  0  0  0
  7  8  1  0  0  0  0
  8  9  1  0  0  0  0
  8 10  2  0  0  0  0
 10 11  1  0  0  0  0
 11 12  2  0  0  0  0
 14 17  1  0  0  0  0
 15 23  1  0  0  0  0
 15 16  1  0  0  0  0
 16 19  1  0  0  0  0
 19 22  1  0  0  0  0
 22  2  1  1  0  0  0
 22 23  1  0  0  0  0
 23 24  1  6  0  0  0
 24 25  1  0  0  0  0
 25 26  1  0  0  0  0
M  CHG  1  18  -1
M  END
>  <CHROM.1>
-67.72212168,-37.48401136,51.63020386,73.13580399,-143.95590943,-57.34102574
22.65554670,41.42394256,65.84998256,-0.53059275,0.11429388,-0.09189485

>  <Name>
ligand

>  <RI>
0

>  <Rbt.Current_Directory>
/home/itssahil/PROJECTS/Mol_Feturizer/New_Systems/rnas/2HOL

>  <Rbt.Executable>
rbdock ($Id: //depot/dev/client3/rdock/2013.1/src/exe/rbdock.cxx#4 $)

>  <Rbt.Library>
libRbt.so (2013.1, Build901 2013/11/27)

>  <Rbt.Parameter_File>
/export/apps/rDock/src/rDock_2013.1_src/data/scripts/dock_solv.prm

>  <Rbt.Receptor>
prm/pocket_docking_4.prm

>  <SCORE>
-20.9475

>  <SCORE.INTER>
-18.7024

>  <SCORE.INTER.CONST>
1

>  <SCORE.INTER.POLAR>
0

>  <SCORE.INTER.ROT>
6

>  <SCORE.INTER.SOLV>
19.5321

>  <SCORE.INTER.VDW>
-26.579

>  <SCORE.INTER.norm>
-0.719322

>  <SCORE.INTRA>
-2.48448

>  <SCORE.INTRA.DIHEDRAL>
1.15791

>  <SCORE.INTRA.DIHEDRAL.0>
9.33621

>  <SCORE.INTRA.POLAR>
0

>  <SCORE.INTRA.POLAR.0>
0

>  <SCORE.INTRA.REPUL>
0

>  <SCORE.INTRA.REPUL.0>
0

>  <SCORE.INTRA.SOLV>
0.229654

>  <SCORE.INTRA.SOLV.lig_0>
-65.9238

>  <SCORE.INTRA.VDW>
-3.17827

>  <SCORE.INTRA.VDW.0>
-0.405582

>  <SCORE.INTRA.norm>
-0.0955571

>  <SCORE.RESTR>
0.239411

>  <SCORE.RESTR.CAVITY>
0.239411

>  <SCORE.RESTR.norm>
0.00920811

>  <SCORE.SYSTEM>
0

>  <SCORE.SYSTEM.CONST>
0

>  <SCORE.SYSTEM.DIHEDRAL>
0

>  <SCORE.SYSTEM.SOLV>
0

>  <SCORE.SYSTEM.norm>
0

>  <SCORE.heavy>
26

>  <SCORE.norm>
-0.805671

>  <RMSD>
7.737

$$$$
ligand
 OpenBabel11021811443D
libRbt.so/2013.1/901 2013/11/27
 26 28  0  0  0  0  0  0  0  0999 V2000
   27.5020   41.2495   60.4007 C   0  0  0  0  0  0  0  0  0  0  0  0
   23.2490   44.8582   64.2505 C   0  0  0  0  0  0  0  0  0  0  0  0
   20.4009   40.0908   66.3291 P   0  0  1  0  0  0  0  0  0  0  0  0
   22.2845   38.4041   65.7873 P   0  0  1  0  0  0  0  0  0  0  0  0
   26.0298   45.2250   64.2016 C   0  0  0  0  0  0  0  0  0  0  0  0
   25.5136   43.2193   62.7795 C   0  0  0  0  0  0  0  0  0  0  0  0
   26.4209   44.1732   63.1955 C   0  0  0  0  0  0  0  0  0  0  0  0
   27.7097   44.1391   62.6603 C   0  0  0  0  0  0  0  0  0  0  0  0
   28.6580   45.0747   63.0460 N   0  0  0  0  0  0  0  0  0  0  0  0
   28.0168   43.1920   61.7789 N   0  0  0  0  0  0  0  0  0  0  0  0
   27.1183   42.3038   61.4060 C   0  0  0  0  0  0  0  0  0  0  0  0
   25.8928   42.3086   61.8928 N   0  0  0  0  0  0  0  0  0  0  0  0
   18.9891   39.7369   66.0584 O   0  0  0  0  0  0  0  0  0  0  0  0
   21.6927   37.9426   67.1382 O   0  0  0  0  0  0  0  0  0  0  0  0
   25.0339   43.5149   67.4680 S   0  0  0  0  0  0  0  0  0  0  0  0
   26.1862   44.1971   66.3614 C   0  0  0  0  0  0  0  0  0  0  0  0
   20.8605   39.4366   67.7251 O   0  0  0  0  0  0  0  0  0  0  0  0
   22.3874   37.1474   64.7870 O   0  5  0  0  0  0  0  0  0  0  0  0
   25.4195   44.5828   65.3678 N   0  0  0  0  0  0  0  0  0  0  0  0
   21.3316   39.5295   65.1407 O   0  0  0  0  0  0  0  0  0  0  0  0
   23.6939   38.9937   66.0190 O   0  0  0  0  0  0  0  0  0  0  0  0
   24.1163   44.4083   65.3991 C   0  0  2  0  0  0  0  0  0  0  0  0
   23.5699   43.8068   66.4864 C   0  0  2  0  0  0  0  0  0  0  0  0
   22.1300   43.4801   66.7843 C   0  0  0  0  0  0  0  0  0  0  0  0
   21.9200   41.9666   66.6996 C   0  0  0  0  0  0  0  0  0  0  0  0
   20.5473   41.6923   66.4121 O   0  0  0  0  0  0  0  0  0  0  0  0
  1 11  1  0  0  0  0
  3 13  1  6  0  0  0
  3 17  1  0  0  0  0
  3 20  1  0  0  0  0
  3 26  1  0  0  0  0
  4 14  1  0  0  0  0
  4 18  1  6  0  0  0
  4 21  2  0  0  0  0
  4 20  1  0  0  0  0
  5 19  1  0  0  0  0
  5  7  1  0  0  0  0
  6  7  2  0  0  0  0
  6 12  1  0  0  0  0
  7  8  1  0  0  0  0
  8  9  1  0  0  0  0
  8 10  2  0  0  0  0
 10 11  1  0  0  0  0
 11 12  2  0  0  0  0
 14 17  1  0  0  0  0
 15 23  1  0  0  0  0
 15 16  1  0  0  0  0
 16 19  1  0  0  0  0
 19 22  1  0  0  0  0
 22  2  1  6  0  0  0
 22 23  1  0  0  0  0
 23 24  1  1  0  0  0
 24 25  1  0  0  0  0
 25 26  1  0  0  0  0
M  CHG  1  18  -1
M  END
>  <CHROM.1>
89.00698118,51.12079316,-71.26591747,-155.51584185,179.67838305,178.90163057
23.77684117,41.78554378,65.10267383,-0.29143115,-0.71965683,-2.62880284

>  <Name>
ligand

>  <RI>
0

>  <Rbt.Current_Directory>
/home/itssahil/PROJECTS/Mol_Feturizer/New_Systems/rnas/2HOL

>  <Rbt.Executable>
rbdock ($Id: //depot/dev/client3/rdock/2013.1/src/exe/rbdock.cxx#4 $)

>  <Rbt.Library>
libRbt.so (2013.1, Build901 2013/11/27)

>  <Rbt.Parameter_File>
/export/apps/rDock/src/rDock_2013.1_src/data/scripts/dock_solv.prm

>  <Rbt.Receptor>
prm/pocket_docking_8.prm

>  <SCORE>
-15.6795

>  <SCORE.INTER>
-12.7986

>  <SCORE.INTER.CONST>
1

>  <SCORE.INTER.POLAR>
0

>  <SCORE.INTER.ROT>
6

>  <SCORE.INTER.SOLV>
14.9996

>  <SCORE.INTER.VDW>
-21.1323

>  <SCORE.INTER.norm>
-0.492252

>  <SCORE.INTRA>
-2.88821

>  <SCORE.INTRA.DIHEDRAL>
-2.23816

>  <SCORE.INTRA.DIHEDRAL.0>
9.33621

>  <SCORE.INTRA.POLAR>
0

>  <SCORE.INTRA.POLAR.0>
0

>  <SCORE.INTRA.REPUL>
0

>  <SCORE.INTRA.REPUL.0>
0

>  <SCORE.INTRA.SOLV>
0.0650452

>  <SCORE.INTRA.SOLV.lig_0>
-65.9238

>  <SCORE.INTRA.VDW>
-1.80166

>  <SCORE.INTRA.VDW.0>
-0.405582

>  <SCORE.INTRA.norm>
-0.111085

>  <SCORE.RESTR>
0.00724359

>  <SCORE.RESTR.CAVITY>
0.00724359

>  <SCORE.RESTR.norm>
0.000278599

>  <SCORE.SYSTEM>
0

>  <SCORE.SYSTEM.CONST>
0

>  <SCORE.SYSTEM.DIHEDRAL>
0

>  <SCORE.SYSTEM.SOLV>
0

>  <SCORE.SYSTEM.norm>
0

>  <SCORE.heavy>
26

>  <SCORE.norm>
-0.603059

>  <RMSD>
7.742

$$$$
ligand
 OpenBabel11021811443D
libRbt.so/2013.1/901 2013/11/27
 26 28  0  0  0  0  0  0  0  0999 V2000
   28.1231   42.2524   63.9998 C   0  0  0  0  0  0  0  0  0  0  0  0
   22.3116   40.1884   67.6003 C   0  0  0  0  0  0  0  0  0  0  0  0
   20.4849   43.5921   66.0983 P   0  0  1  0  0  0  0  0  0  0  0  0
   22.5229   45.1636   66.3504 P   0  0  1  0  0  0  0  0  0  0  0  0
   24.5620   38.7532   66.7369 C   0  0  0  0  0  0  0  0  0  0  0  0
   25.0957   40.3738   64.8929 C   0  0  0  0  0  0  0  0  0  0  0  0
   25.5057   39.6790   66.0133 C   0  0  0  0  0  0  0  0  0  0  0  0
   26.8166   39.8561   66.4593 C   0  0  0  0  0  0  0  0  0  0  0  0
   27.2773   39.1808   67.5796 N   0  0  0  0  0  0  0  0  0  0  0  0
   27.6196   40.6781   65.7902 N   0  0  0  0  0  0  0  0  0  0  0  0
   27.1855   41.3252   64.7281 C   0  0  0  0  0  0  0  0  0  0  0  0
   25.9534   41.1797   64.2812 N   0  0  0  0  0  0  0  0  0  0  0  0
   19.1212   44.1586   65.9931 O   0  0  0  0  0  0  0  0  0  0  0  0
   22.1786   45.1722   64.8440 O   0  0  0  0  0  0  0  0  0  0  0  0
   21.6352   38.0574   64.3842 S   0  0  0  0  0  0  0  0  0  0  0  0
   23.2770   37.8658   64.9182 C   0  0  0  0  0  0  0  0  0  0  0  0
   21.2065   43.6584   64.6621 O   0  0  0  0  0  0  0  0  0  0  0  0
   22.6929   46.6765   66.8726 O   0  5  0  0  0  0  0  0  0  0  0  0
   23.3138   38.6380   65.9795 N   0  0  0  0  0  0  0  0  0  0  0  0
   21.3376   44.4425   67.1676 O   0  0  0  0  0  0  0  0  0  0  0  0
   23.8435   44.3921   66.5706 O   0  0  0  0  0  0  0  0  0  0  0  0
   22.2538   39.3066   66.3785 C   0  0  2  0  0  0  0  0  0  0  0  0
   21.1076   39.1907   65.6606 C   0  0  2  0  0  0  0  0  0  0  0  0
   19.7641   39.8350   65.8809 C   0  0  0  0  0  0  0  0  0  0  0  0
   19.8368   41.3152   65.4990 C   0  0  0  0  0  0  0  0  0  0  0  0
   20.3945   42.0595   66.5840 O   0  0  0  0  0  0  0  0  0  0  0  0
  1 11  1  0  0  0  0
  3 13  1  6  0  0  0
  3 17  1  0  0  0  0
  3 20  1  0  0  0  0
  3 26  1  0  0  0  0
  4 14  1  0  0  0  0
  4 18  1  1  0  0  0
  4 21  2  0  0  0  0
  4 20  1  0  0  0  0
  5 19  1  0  0  0  0
  5  7  1  0  0  0  0
  6  7  2  0  0  0  0
  6 12  1  0  0  0  0
  7  8  1  0  0  0  0
  8  9  1  0  0  0  0
  8 10  2  0  0  0  0
 10 11  1  0  0  0  0
 11 12  2  0  0  0  0
 14 17  1  0  0  0  0
 15 23  1  0  0  0  0
 15 16  1  0  0  0  0
 16 19  1  0  0  0  0
 19 22  1  0  0  0  0
 22  2  1  6  0  0  0
 22 23  1  0  0  0  0
 23 24  1  1  0  0  0
 24 25  1  0  0  0  0
 25 26  1  0  0  0  0
M  CHG  1  18  -1
M  END
>  <CHROM.1>
77.92703930,6.34852571,-106.61800330,-81.86933120,178.23096825,69.87728025
22.98131667,41.67317900,65.82840130,-0.82170650,0.03191321,0.08203961

>  <Name>
ligand

>  <RI>
0

>  <Rbt.Current_Directory>
/home/itssahil/PROJECTS/Mol_Feturizer/New_Systems/rnas/2HOL

>  <Rbt.Executable>
rbdock ($Id: //depot/dev/client3/rdock/2013.1/src/exe/rbdock.cxx#4 $)

>  <Rbt.Library>
libRbt.so (2013.1, Build901 2013/11/27)

>  <Rbt.Parameter_File>
/export/apps/rDock/src/rDock_2013.1_src/data/scripts/dock_solv.prm

>  <Rbt.Receptor>
prm/pocket_docking_7.prm

>  <SCORE>
-21.1942

>  <SCORE.INTER>
-18.6728

>  <SCORE.INTER.CONST>
1

>  <SCORE.INTER.POLAR>
0

>  <SCORE.INTER.ROT>
6

>  <SCORE.INTER.SOLV>
17.8292

>  <SCORE.INTER.VDW>
-25.9916

>  <SCORE.INTER.norm>
-0.718184

>  <SCORE.INTRA>
-2.5214

>  <SCORE.INTRA.DIHEDRAL>
-2.90222

>  <SCORE.INTRA.DIHEDRAL.0>
9.33621

>  <SCORE.INTRA.POLAR>
0

>  <SCORE.INTRA.POLAR.0>
0

>  <SCORE.INTRA.REPUL>
0

>  <SCORE.INTRA.REPUL.0>
0

>  <SCORE.INTRA.SOLV>
-0.0432595

>  <SCORE.INTRA.SOLV.lig_0>
-65.9238

>  <SCORE.INTRA.VDW>
-1.04866

>  <SCORE.INTRA.VDW.0>
-0.405582

>  <SCORE.INTRA.norm>
-0.096977

>  <SCORE.RESTR>
0

>  <SCORE.RESTR.CAVITY>
0

>  <SCORE.RESTR.norm>
0

>  <SCORE.SYSTEM>
0

>  <SCORE.SYSTEM.CONST>
0

>  <SCORE.SYSTEM.DIHEDRAL>
0

>  <SCORE.SYSTEM.SOLV>
0

>  <SCORE.SYSTEM.norm>
0

>  <SCORE.heavy>
26

>  <SCORE.norm>
-0.815161

>  <RMSD>
7.756

$$$$
ligand
 OpenBabel11021811443D
libRbt.so/2013.1/901 2013/11/27
 26 28  0  0  0  0  0  0  0  0999 V2000
   25.2659   34.5873   70.5413 C   0  0  0  0  0  0  0  0  0  0  0  0
   21.9414   40.6820   67.8465 C   0  0  0  0  0  0  0  0  0  0  0  0
   20.4194   43.8331   66.0501 P   0  0  1  0  0  0  0  0  0  0  0  0
   22.6042   45.1887   66.3249 P   0  0  1  0  0  0  0  0  0  0  0  0
   24.3528   39.2973   67.4753 C   0  0  0  0  0  0  0  0  0  0  0  0
   25.8161   37.4107   68.2571 C   0  0  0  0  0  0  0  0  0  0  0  0
   24.5930   38.0507   68.2873 C   0  0  0  0  0  0  0  0  0  0  0  0
   23.5846   37.5137   69.0894 C   0  0  0  0  0  0  0  0  0  0  0  0
   22.3383   38.1186   69.1540 N   0  0  0  0  0  0  0  0  0  0  0  0
   23.8349   36.4095   69.7868 N   0  0  0  0  0  0  0  0  0  0  0  0
   25.0184   35.8338   69.7323 C   0  0  0  0  0  0  0  0  0  0  0  0
   25.9917   36.3156   68.9844 N   0  0  0  0  0  0  0  0  0  0  0  0
   19.1240   44.5360   65.9105 O   0  0  0  0  0  0  0  0  0  0  0  0
   22.2912   45.2118   64.8117 O   0  0  0  0  0  0  0  0  0  0  0  0
   21.8781   38.2878   64.7472 S   0  0  0  0  0  0  0  0  0  0  0  0
   23.4159   38.2161   65.5519 C   0  0  0  0  0  0  0  0  0  0  0  0
   21.1712   43.8044   64.6282 O   0  0  0  0  0  0  0  0  0  0  0  0
   22.9201   46.6831   66.8323 O   0  5  0  0  0  0  0  0  0  0  0  0
   23.2506   39.0659   66.5390 N   0  0  0  0  0  0  0  0  0  0  0  0
   21.3352   44.6056   67.1263 O   0  0  0  0  0  0  0  0  0  0  0  0
   23.8333   44.2880   66.5811 O   0  0  0  0  0  0  0  0  0  0  0  0
   22.1163   39.7101   66.7069 C   0  0  2  0  0  0  0  0  0  0  0  0
   21.1082   39.4859   65.8260 C   0  0  2  0  0  0  0  0  0  0  0  0
   19.7246   40.0789   65.7745 C   0  0  0  0  0  0  0  0  0  0  0  0
   19.8153   41.5591   65.3963 C   0  0  0  0  0  0  0  0  0  0  0  0
   20.1613   42.3249   66.5521 O   0  0  0  0  0  0  0  0  0  0  0  0
  1 11  1  0  0  0  0
  3 13  1  6  0  0  0
  3 17  1  0  0  0  0
  3 20  1  0  0  0  0
  3 26  1  0  0  0  0
  4 14  1  0  0  0  0
  4 18  1  1  0  0  0
  4 21  2  0  0  0  0
  4 20  1  0  0  0  0
  5 19  1  0  0  0  0
  5  7  1  0  0  0  0
  6  7  2  0  0  0  0
  6 12  1  0  0  0  0
  7  8  1  0  0  0  0
  8  9  1  0  0  0  0
  8 10  2  0  0  0  0
 10 11  1  0  0  0  0
 11 12  2  0  0  0  0
 14 17  1  0  0  0  0
 15 23  1  0  0  0  0
 15 16  1  0  0  0  0
 16 19  1  0  0  0  0
 19 22  1  0  0  0  0
 22  2  1  6  0  0  0
 22 23  1  0  0  0  0
 23 24  1  1  0  0  0
 24 25  1  0  0  0  0
 25 26  1  0  0  0  0
M  CHG  1  18  -1
M  END
>  <CHROM.1>
-67.62062290,120.29971795,-111.01338903,-80.24771018,173.08133787,81.71201961
22.42489631,40.86779027,66.87919872,-1.13580915,-0.63626531,-0.06626898

>  <Name>
ligand

>  <RI>
0

>  <Rbt.Current_Directory>
/home/itssahil/PROJECTS/Mol_Feturizer/New_Systems/rnas/2HOL

>  <Rbt.Executable>
rbdock ($Id: //depot/dev/client3/rdock/2013.1/src/exe/rbdock.cxx#4 $)

>  <Rbt.Library>
libRbt.so (2013.1, Build901 2013/11/27)

>  <Rbt.Parameter_File>
/export/apps/rDock/src/rDock_2013.1_src/data/scripts/dock_solv.prm

>  <Rbt.Receptor>
prm/pocket_docking_7.prm

>  <SCORE>
-22.2419

>  <SCORE.INTER>
-22.9262

>  <SCORE.INTER.CONST>
1

>  <SCORE.INTER.POLAR>
0

>  <SCORE.INTER.ROT>
6

>  <SCORE.INTER.SOLV>
22.0836

>  <SCORE.INTER.VDW>
-30.2453

>  <SCORE.INTER.norm>
-0.881778

>  <SCORE.INTRA>
0.684376

>  <SCORE.INTRA.DIHEDRAL>
-2.40298

>  <SCORE.INTRA.DIHEDRAL.0>
9.33621

>  <SCORE.INTRA.POLAR>
0

>  <SCORE.INTRA.POLAR.0>
0

>  <SCORE.INTRA.REPUL>
0

>  <SCORE.INTRA.REPUL.0>
0

>  <SCORE.INTRA.SOLV>
4.32765

>  <SCORE.INTRA.SOLV.lig_0>
-65.9238

>  <SCORE.INTRA.VDW>
-0.277957

>  <SCORE.INTRA.VDW.0>
-0.405582

>  <SCORE.INTRA.norm>
0.0263222

>  <SCORE.RESTR>
0

>  <SCORE.RESTR.CAVITY>
0

>  <SCORE.RESTR.norm>
0

>  <SCORE.SYSTEM>
0

>  <SCORE.SYSTEM.CONST>
0

>  <SCORE.SYSTEM.DIHEDRAL>
0

>  <SCORE.SYSTEM.SOLV>
0

>  <SCORE.SYSTEM.norm>
0

>  <SCORE.heavy>
26

>  <SCORE.norm>
-0.855456

>  <RMSD>
7.756

$$$$
ligand
 OpenBabel11021811443D
libRbt.so/2013.1/901 2013/11/27
 26 28  0  0  0  0  0  0  0  0999 V2000
   27.8218   41.1149   70.3927 C   0  0  0  0  0  0  0  0  0  0  0  0
   23.9320   41.0744   64.9313 C   0  0  0  0  0  0  0  0  0  0  0  0
   20.3291   43.7652   65.9047 P   0  0  1  0  0  0  0  0  0  0  0  0
   22.6018   44.7495   66.6480 P   0  0  1  0  0  0  0  0  0  0  0  0
   25.8917   39.1271   65.4186 C   0  0  0  0  0  0  0  0  0  0  0  0
   26.1130   39.0056   67.9182 C   0  0  0  0  0  0  0  0  0  0  0  0
   26.4032   39.6544   66.7345 C   0  0  0  0  0  0  0  0  0  0  0  0
   27.1828   40.8112   66.7875 C   0  0  0  0  0  0  0  0  0  0  0  0
   27.5018   41.4999   65.6267 N   0  0  0  0  0  0  0  0  0  0  0  0
   27.6106   41.2467   67.9688 N   0  0  0  0  0  0  0  0  0  0  0  0
   27.3140   40.5938   69.0737 C   0  0  0  0  0  0  0  0  0  0  0  0
   26.5797   39.4985   69.0577 N   0  0  0  0  0  0  0  0  0  0  0  0
   19.1017   44.5883   65.9905 O   0  0  0  0  0  0  0  0  0  0  0  0
   22.3575   45.3025   65.2258 O   0  0  0  0  0  0  0  0  0  0  0  0
   22.4298   37.5963   65.9258 S   0  0  0  0  0  0  0  0  0  0  0  0
   24.1656   37.5355   65.9016 C   0  0  0  0  0  0  0  0  0  0  0  0
   21.1369   44.1431   64.5659 O   0  0  0  0  0  0  0  0  0  0  0  0
   23.0145   45.9553   67.6310 O   0  5  0  0  0  0  0  0  0  0  0  0
   24.4799   38.7619   65.5540 N   0  0  0  0  0  0  0  0  0  0  0  0
   21.2566   44.0501   67.1901 O   0  0  0  0  0  0  0  0  0  0  0  0
   23.7423   43.7079   66.6047 O   0  0  0  0  0  0  0  0  0  0  0  0
   23.5550   39.6694   65.3286 C   0  0  2  0  0  0  0  0  0  0  0  0
   22.2520   39.3104   65.4543 C   0  0  2  0  0  0  0  0  0  0  0  0
   21.0039   40.1299   65.2557 C   0  0  0  0  0  0  0  0  0  0  0  0
   21.1454   41.4652   65.9898 C   0  0  0  0  0  0  0  0  0  0  0  0
   19.9293   42.2057   65.8689 O   0  0  0  0  0  0  0  0  0  0  0  0
  1 11  1  0  0  0  0
  3 13  1  1  0  0  0
  3 17  1  0  0  0  0
  3 20  1  0  0  0  0
  3 26  1  0  0  0  0
  4 14  1  0  0  0  0
  4 18  1  1  0  0  0
  4 21  2  0  0  0  0
  4 20  1  0  0  0  0
  5 19  1  0  0  0  0
  5  7  1  0  0  0  0
  6  7  2  0  0  0  0
  6 12  1  0  0  0  0
  7  8  1  0  0  0  0
  8  9  1  0  0  0  0
  8 10  2  0  0  0  0
 10 11  1  0  0  0  0
 11 12  2  0  0  0  0
 14 17  1  0  0  0  0
 15 23  1  0  0  0  0
 15 16  1  0  0  0  0
 16 19  1  0  0  0  0
 19 22  1  0  0  0  0
 22  2  1  6  0  0  0
 22 23  1  0  0  0  0
 23 24  1  1  0  0  0
 24 25  1  0  0  0  0
 25 26  1  0  0  0  0
M  CHG  1  18  -1
M  END
>  <CHROM.1>
-90.97358980,45.20893303,132.26251004,-176.45645489,-150.08695066,-171.46550472
23.43716371,41.63055274,66.44128162,-0.63775126,-0.40463497,0.20616582

>  <Name>
ligand

>  <RI>
0

>  <Rbt.Current_Directory>
/home/itssahil/PROJECTS/Mol_Feturizer/New_Systems/rnas/2HOL

>  <Rbt.Executable>
rbdock ($Id: //depot/dev/client3/rdock/2013.1/src/exe/rbdock.cxx#4 $)

>  <Rbt.Library>
libRbt.so (2013.1, Build901 2013/11/27)

>  <Rbt.Parameter_File>
/export/apps/rDock/src/rDock_2013.1_src/data/scripts/dock_solv.prm

>  <Rbt.Receptor>
prm/pocket_docking_5.prm

>  <SCORE>
-18.9542

>  <SCORE.INTER>
-19.0315

>  <SCORE.INTER.CONST>
1

>  <SCORE.INTER.POLAR>
0

>  <SCORE.INTER.ROT>
6

>  <SCORE.INTER.SOLV>
17.862

>  <SCORE.INTER.VDW>
-26.2417

>  <SCORE.INTER.norm>
-0.731981

>  <SCORE.INTRA>
0.0772657

>  <SCORE.INTRA.DIHEDRAL>
-0.968127

>  <SCORE.INTRA.DIHEDRAL.0>
9.33621

>  <SCORE.INTRA.POLAR>
0

>  <SCORE.INTRA.POLAR.0>
0

>  <SCORE.INTRA.REPUL>
0

>  <SCORE.INTRA.REPUL.0>
0

>  <SCORE.INTRA.SOLV>
2.66035

>  <SCORE.INTRA.SOLV.lig_0>
-65.9238

>  <SCORE.INTRA.VDW>
-0.768848

>  <SCORE.INTRA.VDW.0>
-0.405582

>  <SCORE.INTRA.norm>
0.00297176

>  <SCORE.RESTR>
0

>  <SCORE.RESTR.CAVITY>
0

>  <SCORE.RESTR.norm>
0

>  <SCORE.SYSTEM>
0

>  <SCORE.SYSTEM.CONST>
0

>  <SCORE.SYSTEM.DIHEDRAL>
0

>  <SCORE.SYSTEM.SOLV>
0

>  <SCORE.SYSTEM.norm>
0

>  <SCORE.heavy>
26

>  <SCORE.norm>
-0.729009

>  <RMSD>
7.778

$$$$
ligand
 OpenBabel11021811443D
libRbt.so/2013.1/901 2013/11/27
 26 28  0  0  0  0  0  0  0  0999 V2000
   22.5799   36.9126   65.2738 C   0  0  0  0  0  0  0  0  0  0  0  0
   24.5575   43.1467   63.9277 C   0  0  0  0  0  0  0  0  0  0  0  0
   20.0826   43.4169   65.5800 P   0  0  1  0  0  0  0  0  0  0  0  0
   19.2743   40.9891   65.2071 P   0  0  1  0  0  0  0  0  0  0  0  0
   26.1502   41.3467   65.3744 C   0  0  0  0  0  0  0  0  0  0  0  0
   23.8659   40.3470   65.0671 C   0  0  0  0  0  0  0  0  0  0  0  0
   25.2063   40.1721   65.3482 C   0  0  0  0  0  0  0  0  0  0  0  0
   25.6652   38.8794   65.6071 C   0  0  0  0  0  0  0  0  0  0  0  0
   27.0024   38.6507   65.8952 N   0  0  0  0  0  0  0  0  0  0  0  0
   24.7995   37.8704   65.5793 N   0  0  0  0  0  0  0  0  0  0  0  0
   23.5293   38.0818   65.3018 C   0  0  0  0  0  0  0  0  0  0  0  0
   23.0642   39.2905   65.0530 N   0  0  0  0  0  0  0  0  0  0  0  0
   19.1126   44.4720   65.9507 O   0  0  0  0  0  0  0  0  0  0  0  0
   19.3885   41.1557   66.7392 O   0  0  0  0  0  0  0  0  0  0  0  0
   24.7933   44.0217   67.7383 S   0  0  0  0  0  0  0  0  0  0  0  0
   25.7182   42.5975   67.3731 C   0  0  0  0  0  0  0  0  0  0  0  0
   20.4927   42.5795   66.8909 O   0  0  0  0  0  0  0  0  0  0  0  0
   17.8457   40.3449   64.8404 O   0  5  0  0  0  0  0  0  0  0  0  0
   25.5208   42.4638   66.0820 N   0  0  0  0  0  0  0  0  0  0  0  0
   19.4128   42.4287   64.4991 O   0  0  0  0  0  0  0  0  0  0  0  0
   20.4018   40.0585   64.7066 O   0  0  0  0  0  0  0  0  0  0  0  0
   24.7736   43.3129   65.4107 C   0  0  2  0  0  0  0  0  0  0  0  0
   24.1948   44.3390   66.0850 C   0  0  2  0  0  0  0  0  0  0  0  0
   23.3003   45.4405   65.5797 C   0  0  0  0  0  0  0  0  0  0  0  0
   21.8396   45.0880   65.8697 C   0  0  0  0  0  0  0  0  0  0  0  0
   21.3968   44.0948   64.9426 O   0  0  0  0  0  0  0  0  0  0  0  0
  1 11  1  0  0  0  0
  3 13  1  1  0  0  0
  3 17  1  0  0  0  0
  3 20  1  0  0  0  0
  3 26  1  0  0  0  0
  4 14  1  0  0  0  0
  4 18  1  6  0  0  0
  4 21  2  0  0  0  0
  4 20  1  0  0  0  0
  5 19  1  0  0  0  0
  5  7  1  0  0  0  0
  6  7  2  0  0  0  0
  6 12  1  0  0  0  0
  7  8  1  0  0  0  0
  8  9  1  0  0  0  0
  8 10  2  0  0  0  0
 10 11  1  0  0  0  0
 11 12  2  0  0  0  0
 14 17  1  0  0  0  0
 15 23  1  0  0  0  0
 15 16  1  0  0  0  0
 16 19  1  0  0  0  0
 19 22  1  0  0  0  0
 22  2  1  1  0  0  0
 22 23  1  0  0  0  0
 23 24  1  6  0  0  0
 24 25  1  0  0  0  0
 25 26  1  0  0  0  0
M  CHG  1  18  -1
M  END
>  <CHROM.1>
91.93165308,43.53574442,-81.22489767,-75.79864223,161.24182176,52.36384258
22.50944091,41.77807304,65.67369073,0.33698495,0.11468903,-2.98676587

>  <Name>
ligand

>  <RI>
0

>  <Rbt.Current_Directory>
/home/itssahil/PROJECTS/Mol_Feturizer/New_Systems/rnas/2HOL

>  <Rbt.Executable>
rbdock ($Id: //depot/dev/client3/rdock/2013.1/src/exe/rbdock.cxx#4 $)

>  <Rbt.Library>
libRbt.so (2013.1, Build901 2013/11/27)

>  <Rbt.Parameter_File>
/export/apps/rDock/src/rDock_2013.1_src/data/scripts/dock_solv.prm

>  <Rbt.Receptor>
prm/pocket_docking_6.prm

>  <SCORE>
-20.6848

>  <SCORE.INTER>
-17.8498

>  <SCORE.INTER.CONST>
1

>  <SCORE.INTER.POLAR>
0

>  <SCORE.INTER.ROT>
6

>  <SCORE.INTER.SOLV>
23.5923

>  <SCORE.INTER.VDW>
-27.3639

>  <SCORE.INTER.norm>
-0.68653

>  <SCORE.INTRA>
-2.83503

>  <SCORE.INTRA.DIHEDRAL>
-1.73841

>  <SCORE.INTRA.DIHEDRAL.0>
9.33621

>  <SCORE.INTRA.POLAR>
0

>  <SCORE.INTRA.POLAR.0>
0

>  <SCORE.INTRA.REPUL>
0

>  <SCORE.INTRA.REPUL.0>
0

>  <SCORE.INTRA.SOLV>
0.667585

>  <SCORE.INTRA.SOLV.lig_0>
-65.9238

>  <SCORE.INTRA.VDW>
-2.29961

>  <SCORE.INTRA.VDW.0>
-0.405582

>  <SCORE.INTRA.norm>
-0.109039

>  <SCORE.RESTR>
0

>  <SCORE.RESTR.CAVITY>
0

>  <SCORE.RESTR.norm>
0

>  <SCORE.SYSTEM>
0

>  <SCORE.SYSTEM.CONST>
0

>  <SCORE.SYSTEM.DIHEDRAL>
0

>  <SCORE.SYSTEM.SOLV>
0

>  <SCORE.SYSTEM.norm>
0

>  <SCORE.heavy>
26

>  <SCORE.norm>
-0.795569

>  <RMSD>
7.802

$$$$
ligand
 OpenBabel11021811443D
libRbt.so/2013.1/901 2013/11/27
 26 28  0  0  0  0  0  0  0  0999 V2000
   28.0042   38.9285   73.6109 C   0  0  0  0  0  0  0  0  0  0  0  0
   25.0185   38.5553   66.6671 C   0  0  0  0  0  0  0  0  0  0  0  0
   24.9216   43.1219   66.6475 P   0  0  1  0  0  0  0  0  0  0  0  0
   23.4487   45.2381   66.8454 P   0  0  1  0  0  0  0  0  0  0  0  0
   25.2144   37.0409   69.0204 C   0  0  0  0  0  0  0  0  0  0  0  0
   26.5993   38.7590   70.2213 C   0  0  0  0  0  0  0  0  0  0  0  0
   25.9525   37.5393   70.2362 C   0  0  0  0  0  0  0  0  0  0  0  0
   25.9993   36.7794   71.4063 C   0  0  0  0  0  0  0  0  0  0  0  0
   25.3662   35.5472   71.4723 N   0  0  0  0  0  0  0  0  0  0  0  0
   26.6653   37.2521   72.4557 N   0  0  0  0  0  0  0  0  0  0  0  0
   27.2644   38.4238   72.3995 C   0  0  0  0  0  0  0  0  0  0  0  0
   27.2393   39.1656   71.3095 N   0  0  0  0  0  0  0  0  0  0  0  0
   26.3315   43.2388   66.2117 O   0  0  0  0  0  0  0  0  0  0  0  0
   24.2990   45.2045   68.1353 O   0  0  0  0  0  0  0  0  0  0  0  0
   21.9108   38.9571   69.0172 S   0  0  0  0  0  0  0  0  0  0  0  0
   23.0749   37.8713   69.7125 C   0  0  0  0  0  0  0  0  0  0  0  0
   24.8124   43.4726   68.2136 O   0  0  0  0  0  0  0  0  0  0  0  0
   23.5278   46.7042   66.1861 O   0  5  0  0  0  0  0  0  0  0  0  0
   24.0212   37.8618   68.8025 N   0  0  0  0  0  0  0  0  0  0  0  0
   24.0125   44.1483   65.8026 O   0  0  0  0  0  0  0  0  0  0  0  0
   21.9791   44.9081   67.1907 O   0  0  0  0  0  0  0  0  0  0  0  0
   23.9223   38.5758   67.7024 C   0  0  2  0  0  0  0  0  0  0  0  0
   22.8067   39.3263   67.5162 C   0  0  2  0  0  0  0  0  0  0  0  0
   22.4306   40.2236   66.3664 C   0  0  0  0  0  0  0  0  0  0  0  0
   22.9908   41.6272   66.6073 C   0  0  0  0  0  0  0  0  0  0  0  0
   24.4041   41.6179   66.3962 O   0  0  0  0  0  0  0  0  0  0  0  0
  1 11  1  0  0  0  0
  3 13  1  6  0  0  0
  3 17  1  0  0  0  0
  3 20  1  0  0  0  0
  3 26  1  0  0  0  0
  4 14  1  0  0  0  0
  4 18  1  6  0  0  0
  4 21  2  0  0  0  0
  4 20  1  0  0  0  0
  5 19  1  0  0  0  0
  5  7  1  0  0  0  0
  6  7  2  0  0  0  0
  6 12  1  0  0  0  0
  7  8  1  0  0  0  0
  8  9  1  0  0  0  0
  8 10  2  0  0  0  0
 10 11  1  0  0  0  0
 11 12  2  0  0  0  0
 14 17  1  0  0  0  0
 15 23  1  0  0  0  0
 15 16  1  0  0  0  0
 16 19  1  0  0  0  0
 19 22  1  0  0  0  0
 22  2  1  6  0  0  0
 22 23  1  0  0  0  0
 23 24  1  1  0  0  0
 24 25  1  0  0  0  0
 25 26  1  0  0  0  0
M  CHG  1  18  -1
M  END
>  <CHROM.1>
-63.16236806,-69.28465001,92.12444054,73.68781178,179.31302015,-169.91227670
24.51735033,40.82603410,68.46009850,-1.24653696,-0.71580227,-0.34346892

>  <Name>
ligand

>  <RI>
0

>  <Rbt.Current_Directory>
/home/itssahil/PROJECTS/Mol_Feturizer/New_Systems/rnas/2HOL

>  <Rbt.Executable>
rbdock ($Id: //depot/dev/client3/rdock/2013.1/src/exe/rbdock.cxx#4 $)

>  <Rbt.Library>
libRbt.so (2013.1, Build901 2013/11/27)

>  <Rbt.Parameter_File>
/export/apps/rDock/src/rDock_2013.1_src/data/scripts/dock_solv.prm

>  <Rbt.Receptor>
prm/pocket_docking_6.prm

>  <SCORE>
-17.4656

>  <SCORE.INTER>
-13.825

>  <SCORE.INTER.CONST>
1

>  <SCORE.INTER.POLAR>
0

>  <SCORE.INTER.ROT>
6

>  <SCORE.INTER.SOLV>
14.1323

>  <SCORE.INTER.VDW>
-21.5274

>  <SCORE.INTER.norm>
-0.531731

>  <SCORE.INTRA>
-3.64063

>  <SCORE.INTRA.DIHEDRAL>
-3.6795

>  <SCORE.INTRA.DIHEDRAL.0>
9.33621

>  <SCORE.INTRA.POLAR>
0

>  <SCORE.INTRA.POLAR.0>
0

>  <SCORE.INTRA.REPUL>
0

>  <SCORE.INTRA.REPUL.0>
0

>  <SCORE.INTRA.SOLV>
0.974354

>  <SCORE.INTRA.SOLV.lig_0>
-65.9238

>  <SCORE.INTRA.VDW>
-2.28806

>  <SCORE.INTRA.VDW.0>
-0.405582

>  <SCORE.INTRA.norm>
-0.140024

>  <SCORE.RESTR>
0

>  <SCORE.RESTR.CAVITY>
0

>  <SCORE.RESTR.norm>
0

>  <SCORE.SYSTEM>
0

>  <SCORE.SYSTEM.CONST>
0

>  <SCORE.SYSTEM.DIHEDRAL>
0

>  <SCORE.SYSTEM.SOLV>
0

>  <SCORE.SYSTEM.norm>
0

>  <SCORE.heavy>
26

>  <SCORE.norm>
-0.671755

>  <RMSD>
7.809

$$$$
ligand
 OpenBabel11021811443D
libRbt.so/2013.1/901 2013/11/27
 26 28  0  0  0  0  0  0  0  0999 V2000
   28.3331   42.0368   66.5887 C   0  0  0  0  0  0  0  0  0  0  0  0
   22.4675   39.6410   67.8760 C   0  0  0  0  0  0  0  0  0  0  0  0
   20.0395   43.6963   65.8809 P   0  0  1  0  0  0  0  0  0  0  0  0
   22.4349   44.4419   66.5075 P   0  0  1  0  0  0  0  0  0  0  0  0
   24.5389   37.8473   67.2747 C   0  0  0  0  0  0  0  0  0  0  0  0
   25.6066   40.0084   67.9829 C   0  0  0  0  0  0  0  0  0  0  0  0
   25.5436   38.9556   67.0919 C   0  0  0  0  0  0  0  0  0  0  0  0
   26.4346   38.9436   66.0173 C   0  0  0  0  0  0  0  0  0  0  0  0
   26.4116   37.9089   65.0942 N   0  0  0  0  0  0  0  0  0  0  0  0
   27.3026   39.9427   65.8884 N   0  0  0  0  0  0  0  0  0  0  0  0
   27.3314   40.9255   66.7649 C   0  0  0  0  0  0  0  0  0  0  0  0
   26.5034   40.9665   67.7905 N   0  0  0  0  0  0  0  0  0  0  0  0
   18.8942   44.6022   66.1244 O   0  0  0  0  0  0  0  0  0  0  0  0
   22.1317   45.1214   65.1531 O   0  0  0  0  0  0  0  0  0  0  0  0
   22.0009   37.8558   64.4210 S   0  0  0  0  0  0  0  0  0  0  0  0
   23.4594   37.3230   65.1997 C   0  0  0  0  0  0  0  0  0  0  0  0
   20.7736   44.1145   64.5120 O   0  0  0  0  0  0  0  0  0  0  0  0
   23.0181   45.5318   67.5382 O   0  5  0  0  0  0  0  0  0  0  0  0
   23.4455   38.0157   66.3150 N   0  0  0  0  0  0  0  0  0  0  0  0
   21.0806   43.8077   67.1045 O   0  0  0  0  0  0  0  0  0  0  0  0
   23.4789   43.3222   66.2976 O   0  0  0  0  0  0  0  0  0  0  0  0
   22.4698   38.8536   66.5900 C   0  0  2  0  0  0  0  0  0  0  0  0
   21.4680   38.9995   65.6858 C   0  0  2  0  0  0  0  0  0  0  0  0
   20.2454   39.8779   65.7365 C   0  0  0  0  0  0  0  0  0  0  0  0
   20.6663   41.3470   65.6546 C   0  0  0  0  0  0  0  0  0  0  0  0
   19.5104   42.1798   65.7654 O   0  0  0  0  0  0  0  0  0  0  0  0
  1 11  1  0  0  0  0
  3 13  1  1  0  0  0
  3 17  1  0  0  0  0
  3 20  1  0  0  0  0
  3 26  1  0  0  0  0
  4 14  1  0  0  0  0
  4 18  1  1  0  0  0
  4 21  2  0  0  0  0
  4 20  1  0  0  0  0
  5 19  1  0  0  0  0
  5  7  1  0  0  0  0
  6  7  2  0  0  0  0
  6 12  1  0  0  0  0
  7  8  1  0  0  0  0
  8  9  1  0  0  0  0
  8 10  2  0  0  0  0
 10 11  1  0  0  0  0
 11 12  2  0  0  0  0
 14 17  1  0  0  0  0
 15 23  1  0  0  0  0
 15 16  1  0  0  0  0
 16 19  1  0  0  0  0
 19 22  1  0  0  0  0
 22  2  1  6  0  0  0
 22 23  1  0  0  0  0
 23 24  1  1  0  0  0
 24 25  1  0  0  0  0
 25 26  1  0  0  0  0
M  CHG  1  18  -1
M  END
>  <CHROM.1>
98.03006130,104.17608642,-112.78293938,-177.32791648,172.19549180,-174.81458713
22.96798628,41.28653123,66.16972891,-0.80557087,-0.20067219,0.13946042

>  <Name>
ligand

>  <RI>
0

>  <Rbt.Current_Directory>
/home/itssahil/PROJECTS/Mol_Feturizer/New_Systems/rnas/2HOL

>  <Rbt.Executable>
rbdock ($Id: //depot/dev/client3/rdock/2013.1/src/exe/rbdock.cxx#4 $)

>  <Rbt.Library>
libRbt.so (2013.1, Build901 2013/11/27)

>  <Rbt.Parameter_File>
/export/apps/rDock/src/rDock_2013.1_src/data/scripts/dock_solv.prm

>  <Rbt.Receptor>
prm/pocket_docking_4.prm

>  <SCORE>
-21.751

>  <SCORE.INTER>
-18.7741

>  <SCORE.INTER.CONST>
1

>  <SCORE.INTER.POLAR>
0

>  <SCORE.INTER.ROT>
6

>  <SCORE.INTER.SOLV>
23.2724

>  <SCORE.INTER.VDW>
-27.8735

>  <SCORE.INTER.norm>
-0.722081

>  <SCORE.INTRA>
-3.22601

>  <SCORE.INTRA.DIHEDRAL>
-4.37806

>  <SCORE.INTRA.DIHEDRAL.0>
9.33621

>  <SCORE.INTRA.POLAR>
0

>  <SCORE.INTRA.POLAR.0>
0

>  <SCORE.INTRA.REPUL>
0

>  <SCORE.INTRA.REPUL.0>
0

>  <SCORE.INTRA.SOLV>
1.93043

>  <SCORE.INTRA.SOLV.lig_0>
-65.9238

>  <SCORE.INTRA.VDW>
-2.0022

>  <SCORE.INTRA.VDW.0>
-0.405582

>  <SCORE.INTRA.norm>
-0.124077

>  <SCORE.RESTR>
0.249111

>  <SCORE.RESTR.CAVITY>
0.249111

>  <SCORE.RESTR.norm>
0.00958118

>  <SCORE.SYSTEM>
0

>  <SCORE.SYSTEM.CONST>
0

>  <SCORE.SYSTEM.DIHEDRAL>
0

>  <SCORE.SYSTEM.SOLV>
0

>  <SCORE.SYSTEM.norm>
0

>  <SCORE.heavy>
26

>  <SCORE.norm>
-0.836577

>  <RMSD>
7.816

$$$$
ligand
 OpenBabel11021811443D
libRbt.so/2013.1/901 2013/11/27
 26 28  0  0  0  0  0  0  0  0999 V2000
   25.3166   34.7175   76.2117 C   0  0  0  0  0  0  0  0  0  0  0  0
   21.3220   36.8351   69.3751 C   0  0  0  0  0  0  0  0  0  0  0  0
   26.3401   38.3903   65.3463 P   0  0  1  0  0  0  0  0  0  0  0  0
   26.9701   40.8620   64.9215 P   0  0  1  0  0  0  0  0  0  0  0  0
   22.6177   35.1636   71.2182 C   0  0  0  0  0  0  0  0  0  0  0  0
   23.8671   36.1562   73.1587 C   0  0  0  0  0  0  0  0  0  0  0  0
   23.3319   35.0440   72.5399 C   0  0  0  0  0  0  0  0  0  0  0  0
   23.4689   33.8059   73.1698 C   0  0  0  0  0  0  0  0  0  0  0  0
   22.9495   32.6584   72.5892 N   0  0  0  0  0  0  0  0  0  0  0  0
   24.1102   33.7417   74.3329 N   0  0  0  0  0  0  0  0  0  0  0  0
   24.6015   34.8292   74.8905 C   0  0  0  0  0  0  0  0  0  0  0  0
   24.4892   36.0135   74.3213 N   0  0  0  0  0  0  0  0  0  0  0  0
   26.9446   37.3195   64.5218 O   0  0  0  0  0  0  0  0  0  0  0  0
   28.1290   40.2787   65.7610 O   0  0  0  0  0  0  0  0  0  0  0  0
   25.2267   36.9820   69.1035 S   0  0  0  0  0  0  0  0  0  0  0  0
   24.7354   35.8796   70.3527 C   0  0  0  0  0  0  0  0  0  0  0  0
   27.3674   38.8187   66.5077 O   0  0  0  0  0  0  0  0  0  0  0  0
   27.5681   41.6462   63.6496 O   0  5  0  0  0  0  0  0  0  0  0  0
   23.4263   35.9645   70.2964 N   0  0  0  0  0  0  0  0  0  0  0  0
   26.0182   39.6654   64.4167 O   0  0  0  0  0  0  0  0  0  0  0  0
   26.1493   41.8413   65.7903 O   0  0  0  0  0  0  0  0  0  0  0  0
   22.8265   36.7496   69.4283 C   0  0  2  0  0  0  0  0  0  0  0  0
   23.5932   37.4877   68.5858 C   0  0  2  0  0  0  0  0  0  0  0  0
   23.1815   38.4594   67.5109 C   0  0  0  0  0  0  0  0  0  0  0  0
   24.4208   38.9398   66.7526 C   0  0  0  0  0  0  0  0  0  0  0  0
   24.9742   37.8527   66.0083 O   0  0  0  0  0  0  0  0  0  0  0  0
  1 11  1  0  0  0  0
  3 13  1  6  0  0  0
  3 17  1  0  0  0  0
  3 20  1  0  0  0  0
  3 26  1  0  0  0  0
  4 14  1  0  0  0  0
  4 18  1  6  0  0  0
  4 21  2  0  0  0  0
  4 20  1  0  0  0  0
  5 19  1  0  0  0  0
  5  7  1  0  0  0  0
  6  7  2  0  0  0  0
  6 12  1  0  0  0  0
  7  8  1  0  0  0  0
  8  9  1  0  0  0  0
  8 10  2  0  0  0  0
 10 11  1  0  0  0  0
 11 12  2  0  0  0  0
 14 17  1  0  0  0  0
 15 23  1  0  0  0  0
 15 16  1  0  0  0  0
 16 19  1  0  0  0  0
 19 22  1  0  0  0  0
 22  2  1  1  0  0  0
 22 23  1  0  0  0  0
 23 24  1  6  0  0  0
 24 25  1  0  0  0  0
 25 26  1  0  0  0  0
M  CHG  1  18  -1
M  END
>  <CHROM.1>
34.49264166,47.80675969,4.89183165,67.75148359,-175.01540922,-178.20095676
25.03165582,37.47468581,68.71898215,-1.89020687,-0.46608113,-1.15909614

>  <Name>
ligand

>  <RI>
0

>  <Rbt.Current_Directory>
/home/itssahil/PROJECTS/Mol_Feturizer/New_Systems/rnas/2HOL

>  <Rbt.Executable>
rbdock ($Id: //depot/dev/client3/rdock/2013.1/src/exe/rbdock.cxx#4 $)

>  <Rbt.Library>
libRbt.so (2013.1, Build901 2013/11/27)

>  <Rbt.Parameter_File>
/export/apps/rDock/src/rDock_2013.1_src/data/scripts/dock_solv.prm

>  <Rbt.Receptor>
prm/blind_docking_100.prm

>  <SCORE>
-15.9792

>  <SCORE.INTER>
-12.774

>  <SCORE.INTER.CONST>
1

>  <SCORE.INTER.POLAR>
0

>  <SCORE.INTER.ROT>
6

>  <SCORE.INTER.SOLV>
11.5455

>  <SCORE.INTER.VDW>
-19.9645

>  <SCORE.INTER.norm>
-0.491308

>  <SCORE.INTRA>
-3.20516

>  <SCORE.INTRA.DIHEDRAL>
-4.41832

>  <SCORE.INTRA.DIHEDRAL.0>
9.33621

>  <SCORE.INTRA.POLAR>
0

>  <SCORE.INTRA.POLAR.0>
0

>  <SCORE.INTRA.REPUL>
0

>  <SCORE.INTRA.REPUL.0>
0

>  <SCORE.INTRA.SOLV>
0.19431

>  <SCORE.INTRA.SOLV.lig_0>
-65.9238

>  <SCORE.INTRA.VDW>
-1.09316

>  <SCORE.INTRA.VDW.0>
-0.405582

>  <SCORE.INTRA.norm>
-0.123276

>  <SCORE.RESTR>
0

>  <SCORE.RESTR.CAVITY>
0

>  <SCORE.RESTR.norm>
0

>  <SCORE.SYSTEM>
0

>  <SCORE.SYSTEM.CONST>
0

>  <SCORE.SYSTEM.DIHEDRAL>
0

>  <SCORE.SYSTEM.SOLV>
0

>  <SCORE.SYSTEM.norm>
0

>  <SCORE.heavy>
26

>  <SCORE.norm>
-0.614584

>  <RMSD>
7.846

$$$$
ligand
 OpenBabel11021811443D
libRbt.so/2013.1/901 2013/11/27
 26 28  0  0  0  0  0  0  0  0999 V2000
   27.7881   40.3901   70.6539 C   0  0  0  0  0  0  0  0  0  0  0  0
   22.6270   39.1035   65.0173 C   0  0  0  0  0  0  0  0  0  0  0  0
   20.6746   43.4476   65.5793 P   0  0  1  0  0  0  0  0  0  0  0  0
   22.5304   44.7977   66.7707 P   0  0  1  0  0  0  0  0  0  0  0  0
   24.2477   37.8919   66.9603 C   0  0  0  0  0  0  0  0  0  0  0  0
   25.7464   39.7824   67.6616 C   0  0  0  0  0  0  0  0  0  0  0  0
   25.1847   38.5520   67.9388 C   0  0  0  0  0  0  0  0  0  0  0  0
   25.5065   37.9349   69.1489 C   0  0  0  0  0  0  0  0  0  0  0  0
   24.9691   36.6984   69.4744 N   0  0  0  0  0  0  0  0  0  0  0  0
   26.3412   38.5478   69.9832 N   0  0  0  0  0  0  0  0  0  0  0  0
   26.8507   39.7242   69.6806 C   0  0  0  0  0  0  0  0  0  0  0  0
   26.5671   40.3333   68.5459 N   0  0  0  0  0  0  0  0  0  0  0  0
   19.2743   43.9273   65.6090 O   0  0  0  0  0  0  0  0  0  0  0  0
   22.2963   45.5173   65.4233 O   0  0  0  0  0  0  0  0  0  0  0  0
   20.7797   38.5360   68.4243 S   0  0  0  0  0  0  0  0  0  0  0  0
   22.4182   37.9654   68.5074 C   0  0  0  0  0  0  0  0  0  0  0  0
   21.4883   44.2353   64.4369 O   0  0  0  0  0  0  0  0  0  0  0  0
   22.5176   45.8754   67.9661 O   0  5  0  0  0  0  0  0  0  0  0  0
   22.8649   38.2324   67.3020 N   0  0  0  0  0  0  0  0  0  0  0  0
   21.3632   43.7148   67.0104 O   0  0  0  0  0  0  0  0  0  0  0  0
   23.8990   44.0812   66.7389 O   0  0  0  0  0  0  0  0  0  0  0  0
   22.0989   38.8019   66.3972 C   0  0  2  0  0  0  0  0  0  0  0  0
   20.8187   39.1054   66.7313 C   0  0  2  0  0  0  0  0  0  0  0  0
   19.7344   39.7472   65.9060 C   0  0  0  0  0  0  0  0  0  0  0  0
   19.7428   41.2601   66.1363 C   0  0  0  0  0  0  0  0  0  0  0  0
   20.6954   41.8689   65.2623 O   0  0  0  0  0  0  0  0  0  0  0  0
  1 11  1  0  0  0  0
  3 13  1  1  0  0  0
  3 17  1  0  0  0  0
  3 20  1  0  0  0  0
  3 26  1  0  0  0  0
  4 14  1  0  0  0  0
  4 18  1  1  0  0  0
  4 21  2  0  0  0  0
  4 20  1  0  0  0  0
  5 19  1  0  0  0  0
  5  7  1  0  0  0  0
  6  7  2  0  0  0  0
  6 12  1  0  0  0  0
  7  8  1  0  0  0  0
  8  9  1  0  0  0  0
  8 10  2  0  0  0  0
 10 11  1  0  0  0  0
 11 12  2  0  0  0  0
 14 17  1  0  0  0  0
 15 23  1  0  0  0  0
 15 16  1  0  0  0  0
 16 19  1  0  0  0  0
 19 22  1  0  0  0  0
 22  2  1  6  0  0  0
 22 23  1  0  0  0  0
 23 24  1  1  0  0  0
 24 25  1  0  0  0  0
 25 26  1  0  0  0  0
M  CHG  1  18  -1
M  END
>  <CHROM.1>
-56.13579988,-93.72953590,86.72496873,85.17569515,-178.79565362,-48.23849042
22.75423207,41.12022226,67.17695906,-0.93637745,-0.46439146,-0.17007985

>  <Name>
ligand

>  <RI>
0

>  <Rbt.Current_Directory>
/home/itssahil/PROJECTS/Mol_Feturizer/New_Systems/rnas/2HOL

>  <Rbt.Executable>
rbdock ($Id: //depot/dev/client3/rdock/2013.1/src/exe/rbdock.cxx#4 $)

>  <Rbt.Library>
libRbt.so (2013.1, Build901 2013/11/27)

>  <Rbt.Parameter_File>
/export/apps/rDock/src/rDock_2013.1_src/data/scripts/dock_solv.prm

>  <Rbt.Receptor>
prm/pocket_docking_5.prm

>  <SCORE>
-21.1803

>  <SCORE.INTER>
-18.9923

>  <SCORE.INTER.CONST>
1

>  <SCORE.INTER.POLAR>
0

>  <SCORE.INTER.ROT>
6

>  <SCORE.INTER.SOLV>
21.345

>  <SCORE.INTER.VDW>
-27.3765

>  <SCORE.INTER.norm>
-0.730474

>  <SCORE.INTRA>
-2.18794

>  <SCORE.INTRA.DIHEDRAL>
-2.14045

>  <SCORE.INTRA.DIHEDRAL.0>
9.33621

>  <SCORE.INTRA.POLAR>
0

>  <SCORE.INTRA.POLAR.0>
0

>  <SCORE.INTRA.REPUL>
0

>  <SCORE.INTRA.REPUL.0>
0

>  <SCORE.INTRA.SOLV>
1.06116

>  <SCORE.INTRA.SOLV.lig_0>
-65.9238

>  <SCORE.INTRA.VDW>
-1.64829

>  <SCORE.INTRA.VDW.0>
-0.405582

>  <SCORE.INTRA.norm>
-0.0841514

>  <SCORE.RESTR>
0

>  <SCORE.RESTR.CAVITY>
0

>  <SCORE.RESTR.norm>
0

>  <SCORE.SYSTEM>
0

>  <SCORE.SYSTEM.CONST>
0

>  <SCORE.SYSTEM.DIHEDRAL>
0

>  <SCORE.SYSTEM.SOLV>
0

>  <SCORE.SYSTEM.norm>
0

>  <SCORE.heavy>
26

>  <SCORE.norm>
-0.814626

>  <RMSD>
7.854

$$$$
ligand
 OpenBabel11021811443D
libRbt.so/2013.1/901 2013/11/27
 26 28  0  0  0  0  0  0  0  0999 V2000
   27.8609   39.8213   71.2037 C   0  0  0  0  0  0  0  0  0  0  0  0
   23.0445   39.3218   65.4097 C   0  0  0  0  0  0  0  0  0  0  0  0
   20.0178   43.7235   65.8764 P   0  0  1  0  0  0  0  0  0  0  0  0
   22.4366   44.4718   66.4016 P   0  0  1  0  0  0  0  0  0  0  0  0
   24.4693   37.6662   67.1699 C   0  0  0  0  0  0  0  0  0  0  0  0
   25.3345   37.7480   69.5271 C   0  0  0  0  0  0  0  0  0  0  0  0
   25.3676   38.2376   68.2366 C   0  0  0  0  0  0  0  0  0  0  0  0
   26.2545   39.2753   67.9448 C   0  0  0  0  0  0  0  0  0  0  0  0
   26.3257   39.8025   66.6640 N   0  0  0  0  0  0  0  0  0  0  0  0
   27.0267   39.7554   68.9152 N   0  0  0  0  0  0  0  0  0  0  0  0
   26.9660   39.2552   70.1322 C   0  0  0  0  0  0  0  0  0  0  0  0
   26.1391   38.2752   70.4403 N   0  0  0  0  0  0  0  0  0  0  0  0
   18.8896   44.6567   66.0954 O   0  0  0  0  0  0  0  0  0  0  0  0
   22.1080   45.0773   65.0183 O   0  0  0  0  0  0  0  0  0  0  0  0
   20.9198   38.1621   68.4891 S   0  0  0  0  0  0  0  0  0  0  0  0
   22.5279   37.5100   68.5673 C   0  0  0  0  0  0  0  0  0  0  0  0
   20.7226   44.0536   64.4686 O   0  0  0  0  0  0  0  0  0  0  0  0
   23.0580   45.6107   67.3541 O   0  5  0  0  0  0  0  0  0  0  0  0
   23.0756   37.9949   67.4769 N   0  0  0  0  0  0  0  0  0  0  0  0
   21.0902   43.8904   67.0663 O   0  0  0  0  0  0  0  0  0  0  0  0
   23.4618   43.3284   66.2308 O   0  0  0  0  0  0  0  0  0  0  0  0
   22.4010   38.7716   66.6575 C   0  0  2  0  0  0  0  0  0  0  0  0
   21.1090   39.0608   66.9566 C   0  0  2  0  0  0  0  0  0  0  0  0
   20.1133   39.9071   66.2074 C   0  0  0  0  0  0  0  0  0  0  0  0
   20.5627   41.3697   66.2321 C   0  0  0  0  0  0  0  0  0  0  0  0
   19.4682   42.2099   65.8604 O   0  0  0  0  0  0  0  0  0  0  0  0
  1 11  1  0  0  0  0
  3 13  1  1  0  0  0
  3 17  1  0  0  0  0
  3 20  1  0  0  0  0
  3 26  1  0  0  0  0
  4 14  1  0  0  0  0
  4 18  1  1  0  0  0
  4 21  2  0  0  0  0
  4 20  1  0  0  0  0
  5 19  1  0  0  0  0
  5  7  1  0  0  0  0
  6  7  2  0  0  0  0
  6 12  1  0  0  0  0
  7  8  1  0  0  0  0
  8  9  1  0  0  0  0
  8 10  2  0  0  0  0
 10 11  1  0  0  0  0
 11 12  2  0  0  0  0
 14 17  1  0  0  0  0
 15 23  1  0  0  0  0
 15 16  1  0  0  0  0
 16 19  1  0  0  0  0
 19 22  1  0  0  0  0
 22  2  1  6  0  0  0
 22 23  1  0  0  0  0
 23 24  1  1  0  0  0
 24 25  1  0  0  0  0
 25 26  1  0  0  0  0
M  CHG  1  18  -1
M  END
>  <CHROM.1>
-63.88898827,67.45548817,113.07627537,-164.10501121,-178.80114023,-155.23064520
22.76947807,41.07155490,67.21289395,-0.86944503,-0.36657954,-0.22340876

>  <Name>
ligand

>  <RI>
0

>  <Rbt.Current_Directory>
/home/itssahil/PROJECTS/Mol_Feturizer/New_Systems/rnas/2HOL

>  <Rbt.Executable>
rbdock ($Id: //depot/dev/client3/rdock/2013.1/src/exe/rbdock.cxx#4 $)

>  <Rbt.Library>
libRbt.so (2013.1, Build901 2013/11/27)

>  <Rbt.Parameter_File>
/export/apps/rDock/src/rDock_2013.1_src/data/scripts/dock_solv.prm

>  <Rbt.Receptor>
prm/pocket_docking_5.prm

>  <SCORE>
-22.8917

>  <SCORE.INTER>
-21.3473

>  <SCORE.INTER.CONST>
1

>  <SCORE.INTER.POLAR>
0

>  <SCORE.INTER.ROT>
6

>  <SCORE.INTER.SOLV>
17.6394

>  <SCORE.INTER.VDW>
-27.7113

>  <SCORE.INTER.norm>
-0.821049

>  <SCORE.INTRA>
-1.60102

>  <SCORE.INTRA.DIHEDRAL>
-2.9803

>  <SCORE.INTRA.DIHEDRAL.0>
9.33621

>  <SCORE.INTRA.POLAR>
0

>  <SCORE.INTRA.POLAR.0>
0

>  <SCORE.INTRA.REPUL>
0

>  <SCORE.INTRA.REPUL.0>
0

>  <SCORE.INTRA.SOLV>
2.00197

>  <SCORE.INTRA.SOLV.lig_0>
-65.9238

>  <SCORE.INTRA.VDW>
-1.11185

>  <SCORE.INTRA.VDW.0>
-0.405582

>  <SCORE.INTRA.norm>
-0.0615776

>  <SCORE.RESTR>
0.0566503

>  <SCORE.RESTR.CAVITY>
0.0566503

>  <SCORE.RESTR.norm>
0.00217886

>  <SCORE.SYSTEM>
0

>  <SCORE.SYSTEM.CONST>
0

>  <SCORE.SYSTEM.DIHEDRAL>
0

>  <SCORE.SYSTEM.SOLV>
0

>  <SCORE.SYSTEM.norm>
0

>  <SCORE.heavy>
26

>  <SCORE.norm>
-0.880448

>  <RMSD>
7.916

$$$$
ligand
 OpenBabel11021811443D
libRbt.so/2013.1/901 2013/11/27
 26 28  0  0  0  0  0  0  0  0999 V2000
   29.1989   40.9639   60.3515 C   0  0  0  0  0  0  0  0  0  0  0  0
   24.2638   41.1728   64.3644 C   0  0  0  0  0  0  0  0  0  0  0  0
   21.8665   38.7038   67.1628 P   0  0  1  0  0  0  0  0  0  0  0  0
   20.0473   39.9140   65.7798 P   0  0  1  0  0  0  0  0  0  0  0  0
   24.9501   43.5787   63.0954 C   0  0  0  0  0  0  0  0  0  0  0  0
   25.8675   41.6878   61.7189 C   0  0  0  0  0  0  0  0  0  0  0  0
   26.0757   42.8876   62.3696 C   0  0  0  0  0  0  0  0  0  0  0  0
   27.3553   43.4446   62.3379 C   0  0  0  0  0  0  0  0  0  0  0  0
   27.6163   44.6478   62.9763 N   0  0  0  0  0  0  0  0  0  0  0  0
   28.3226   42.8012   61.6908 N   0  0  0  0  0  0  0  0  0  0  0  0
   28.0787   41.6604   61.0791 C   0  0  0  0  0  0  0  0  0  0  0  0
   26.8814   41.1078   61.0906 N   0  0  0  0  0  0  0  0  0  0  0  0
   21.5719   37.3961   67.7911 O   0  0  0  0  0  0  0  0  0  0  0  0
   20.6395   38.8431   64.8361 O   0  0  0  0  0  0  0  0  0  0  0  0
   25.6966   43.8575   66.8305 S   0  0  0  0  0  0  0  0  0  0  0  0
   25.6471   44.4737   65.2071 C   0  0  0  0  0  0  0  0  0  0  0  0
   22.2329   38.4843   65.6119 O   0  0  0  0  0  0  0  0  0  0  0  0
   18.4404   39.8267   65.7524 O   0  5  0  0  0  0  0  0  0  0  0  0
   25.1526   43.4562   64.5408 N   0  0  0  0  0  0  0  0  0  0  0  0
   20.5743   39.6579   67.2796 O   0  0  0  0  0  0  0  0  0  0  0  0
   20.4943   41.3163   65.3094 O   0  0  0  0  0  0  0  0  0  0  0  0
   24.8321   42.3320   65.1435 C   0  0  2  0  0  0  0  0  0  0  0  0
   25.0317   42.2361   66.4827 C   0  0  2  0  0  0  0  0  0  0  0  0
   24.7635   41.0848   67.4163 C   0  0  0  0  0  0  0  0  0  0  0  0
   23.2903   40.6814   67.3222 C   0  0  0  0  0  0  0  0  0  0  0  0
   23.1108   39.3942   67.9164 O   0  0  0  0  0  0  0  0  0  0  0  0
  1 11  1  0  0  0  0
  3 13  1  1  0  0  0
  3 17  1  0  0  0  0
  3 20  1  0  0  0  0
  3 26  1  0  0  0  0
  4 14  1  0  0  0  0
  4 18  1  6  0  0  0
  4 21  2  0  0  0  0
  4 20  1  0  0  0  0
  5 19  1  0  0  0  0
  5  7  1  0  0  0  0
  6  7  2  0  0  0  0
  6 12  1  0  0  0  0
  7  8  1  0  0  0  0
  8  9  1  0  0  0  0
  8 10  2  0  0  0  0
 10 11  1  0  0  0  0
 11 12  2  0  0  0  0
 14 17  1  0  0  0  0
 15 23  1  0  0  0  0
 15 16  1  0  0  0  0
 16 19  1  0  0  0  0
 19 22  1  0  0  0  0
 22  2  1  6  0  0  0
 22 23  1  0  0  0  0
 23 24  1  1  0  0  0
 24 25  1  0  0  0  0
 25 26  1  0  0  0  0
M  CHG  1  18  -1
M  END
>  <CHROM.1>
100.89950739,107.41233680,123.07790299,164.70355105,-150.99640312,-176.43156667
23.93698214,41.19492316,64.99556489,0.22210828,-0.67809148,-2.09307055

>  <Name>
ligand

>  <RI>
0

>  <Rbt.Current_Directory>
/home/itssahil/PROJECTS/Mol_Feturizer/New_Systems/rnas/2HOL

>  <Rbt.Executable>
rbdock ($Id: //depot/dev/client3/rdock/2013.1/src/exe/rbdock.cxx#4 $)

>  <Rbt.Library>
libRbt.so (2013.1, Build901 2013/11/27)

>  <Rbt.Parameter_File>
/export/apps/rDock/src/rDock_2013.1_src/data/scripts/dock_solv.prm

>  <Rbt.Receptor>
prm/pocket_docking_8.prm

>  <SCORE>
-9.29113

>  <SCORE.INTER>
-8.62057

>  <SCORE.INTER.CONST>
1

>  <SCORE.INTER.POLAR>
0

>  <SCORE.INTER.ROT>
6

>  <SCORE.INTER.SOLV>
15.6399

>  <SCORE.INTER.VDW>
-18.5604

>  <SCORE.INTER.norm>
-0.33156

>  <SCORE.INTRA>
-0.671646

>  <SCORE.INTRA.DIHEDRAL>
-0.493393

>  <SCORE.INTRA.DIHEDRAL.0>
9.33621

>  <SCORE.INTRA.POLAR>
0

>  <SCORE.INTRA.POLAR.0>
0

>  <SCORE.INTRA.REPUL>
0

>  <SCORE.INTRA.REPUL.0>
0

>  <SCORE.INTRA.SOLV>
2.46556

>  <SCORE.INTRA.SOLV.lig_0>
-65.9238

>  <SCORE.INTRA.VDW>
-1.65773

>  <SCORE.INTRA.VDW.0>
-0.405582

>  <SCORE.INTRA.norm>
-0.0258325

>  <SCORE.RESTR>
0.00108304

>  <SCORE.RESTR.CAVITY>
0.00108304

>  <SCORE.RESTR.norm>
4.16555e-05

>  <SCORE.SYSTEM>
0

>  <SCORE.SYSTEM.CONST>
0

>  <SCORE.SYSTEM.DIHEDRAL>
0

>  <SCORE.SYSTEM.SOLV>
0

>  <SCORE.SYSTEM.norm>
0

>  <SCORE.heavy>
26

>  <SCORE.norm>
-0.357351

>  <RMSD>
7.934

$$$$
ligand
 OpenBabel11021811443D
libRbt.so/2013.1/901 2013/11/27
 26 28  0  0  0  0  0  0  0  0999 V2000
   27.7717   39.0173   71.9919 C   0  0  0  0  0  0  0  0  0  0  0  0
   23.5279   40.7349   67.1879 C   0  0  0  0  0  0  0  0  0  0  0  0
   23.8494   45.6414   65.9889 P   0  0  1  0  0  0  0  0  0  0  0  0
   21.5644   44.4892   66.3601 P   0  0  1  0  0  0  0  0  0  0  0  0
   24.7492   38.2099   67.2347 C   0  0  0  0  0  0  0  0  0  0  0  0
   26.4334   39.4768   68.6022 C   0  0  0  0  0  0  0  0  0  0  0  0
   25.5486   38.4223   68.4945 C   0  0  0  0  0  0  0  0  0  0  0  0
   25.4131   37.5581   69.5823 C   0  0  0  0  0  0  0  0  0  0  0  0
   24.5381   36.4836   69.5241 N   0  0  0  0  0  0  0  0  0  0  0  0
   26.1401   37.7769   70.6740 N   0  0  0  0  0  0  0  0  0  0  0  0
   26.9693   38.7986   70.7359 C   0  0  0  0  0  0  0  0  0  0  0  0
   27.1206   39.6329   69.7259 N   0  0  0  0  0  0  0  0  0  0  0  0
   23.9124   47.0998   65.7424 O   0  0  0  0  0  0  0  0  0  0  0  0
   21.9255   45.1369   67.7159 O   0  0  0  0  0  0  0  0  0  0  0  0
   26.2394   40.2864   64.3970 S   0  0  0  0  0  0  0  0  0  0  0  0
   26.0991   38.8470   65.3591 C   0  0  0  0  0  0  0  0  0  0  0  0
   23.7126   45.3690   67.5685 O   0  0  0  0  0  0  0  0  0  0  0  0
   20.0540   44.8783   65.9628 O   0  5  0  0  0  0  0  0  0  0  0  0
   25.1669   39.1811   66.2212 N   0  0  0  0  0  0  0  0  0  0  0  0
   22.5737   45.0231   65.2248 O   0  0  0  0  0  0  0  0  0  0  0  0
   21.6862   42.9533   66.4764 O   0  0  0  0  0  0  0  0  0  0  0  0
   24.5983   40.3666   66.1916 C   0  0  2  0  0  0  0  0  0  0  0  0
   25.0023   41.2547   65.2479 C   0  0  2  0  0  0  0  0  0  0  0  0
   24.5352   42.6629   64.9880 C   0  0  0  0  0  0  0  0  0  0  0  0
   25.2172   43.6185   65.9698 C   0  0  0  0  0  0  0  0  0  0  0  0
   25.1924   44.9445   65.4378 O   0  0  0  0  0  0  0  0  0  0  0  0
  1 11  1  0  0  0  0
  3 13  1  6  0  0  0
  3 17  1  0  0  0  0
  3 20  1  0  0  0  0
  3 26  1  0  0  0  0
  4 14  1  0  0  0  0
  4 18  1  6  0  0  0
  4 21  2  0  0  0  0
  4 20  1  0  0  0  0
  5 19  1  0  0  0  0
  5  7  1  0  0  0  0
  6  7  2  0  0  0  0
  6 12  1  0  0  0  0
  7  8  1  0  0  0  0
  8  9  1  0  0  0  0
  8 10  2  0  0  0  0
 10 11  1  0  0  0  0
 11 12  2  0  0  0  0
 14 17  1  0  0  0  0
 15 23  1  0  0  0  0
 15 16  1  0  0  0  0
 16 19  1  0  0  0  0
 19 22  1  0  0  0  0
 22  2  1  1  0  0  0
 22 23  1  0  0  0  0
 23 24  1  6  0  0  0
 24 25  1  0  0  0  0
 25 26  1  0  0  0  0
M  CHG  1  18  -1
M  END
>  <CHROM.1>
93.15050504,4.88943314,-99.64252743,158.32336221,91.40080953,166.90866875
24.42023040,41.88480212,67.00638626,0.60139224,-1.05069287,1.81940072

>  <Name>
ligand

>  <RI>
0

>  <Rbt.Current_Directory>
/home/itssahil/PROJECTS/Mol_Feturizer/New_Systems/rnas/2HOL

>  <Rbt.Executable>
rbdock ($Id: //depot/dev/client3/rdock/2013.1/src/exe/rbdock.cxx#4 $)

>  <Rbt.Library>
libRbt.so (2013.1, Build901 2013/11/27)

>  <Rbt.Parameter_File>
/export/apps/rDock/src/rDock_2013.1_src/data/scripts/dock_solv.prm

>  <Rbt.Receptor>
prm/pocket_docking_6.prm

>  <SCORE>
-12.2407

>  <SCORE.INTER>
-12.2927

>  <SCORE.INTER.CONST>
1

>  <SCORE.INTER.POLAR>
0

>  <SCORE.INTER.ROT>
6

>  <SCORE.INTER.SOLV>
20.0249

>  <SCORE.INTER.VDW>
-22.4701

>  <SCORE.INTER.norm>
-0.472797

>  <SCORE.INTRA>
0.0519698

>  <SCORE.INTRA.DIHEDRAL>
1.12652

>  <SCORE.INTRA.DIHEDRAL.0>
9.33621

>  <SCORE.INTRA.POLAR>
0

>  <SCORE.INTRA.POLAR.0>
0

>  <SCORE.INTRA.REPUL>
0

>  <SCORE.INTRA.REPUL.0>
0

>  <SCORE.INTRA.SOLV>
2.48817

>  <SCORE.INTRA.SOLV.lig_0>
-65.9238

>  <SCORE.INTRA.VDW>
-1.75537

>  <SCORE.INTRA.VDW.0>
-0.405582

>  <SCORE.INTRA.norm>
0.00199884

>  <SCORE.RESTR>
0

>  <SCORE.RESTR.CAVITY>
0

>  <SCORE.RESTR.norm>
0

>  <SCORE.SYSTEM>
0

>  <SCORE.SYSTEM.CONST>
0

>  <SCORE.SYSTEM.DIHEDRAL>
0

>  <SCORE.SYSTEM.SOLV>
0

>  <SCORE.SYSTEM.norm>
0

>  <SCORE.heavy>
26

>  <SCORE.norm>
-0.470798

>  <RMSD>
7.936

$$$$
ligand
 OpenBabel11021811443D
libRbt.so/2013.1/901 2013/11/27
 26 28  0  0  0  0  0  0  0  0999 V2000
   26.2951   33.4305   73.8341 C   0  0  0  0  0  0  0  0  0  0  0  0
   21.2403   37.7366   68.5837 C   0  0  0  0  0  0  0  0  0  0  0  0
   24.9358   42.0640   64.7498 P   0  0  1  0  0  0  0  0  0  0  0  0
   24.8835   44.6396   64.5261 P   0  0  1  0  0  0  0  0  0  0  0  0
   22.6499   36.0727   70.3483 C   0  0  0  0  0  0  0  0  0  0  0  0
   24.3774   36.0864   72.1724 C   0  0  0  0  0  0  0  0  0  0  0  0
   23.6144   35.3720   71.2703 C   0  0  0  0  0  0  0  0  0  0  0  0
   23.7588   33.9840   71.2342 C   0  0  0  0  0  0  0  0  0  0  0  0
   23.0158   33.2210   70.3458 N   0  0  0  0  0  0  0  0  0  0  0  0
   24.6242   33.4041   72.0607 N   0  0  0  0  0  0  0  0  0  0  0  0
   25.3290   34.1240   72.9093 C   0  0  0  0  0  0  0  0  0  0  0  0
   25.2162   35.4365   72.9682 N   0  0  0  0  0  0  0  0  0  0  0  0
   25.9678   41.2791   64.0352 O   0  0  0  0  0  0  0  0  0  0  0  0
   25.9867   44.3375   65.5653 O   0  0  0  0  0  0  0  0  0  0  0  0
   25.1173   37.8503   68.0381 S   0  0  0  0  0  0  0  0  0  0  0  0
   24.7068   36.7638   69.3297 C   0  0  0  0  0  0  0  0  0  0  0  0
   25.5606   42.6652   66.1048 O   0  0  0  0  0  0  0  0  0  0  0  0
   25.4503   45.6638   63.4215 O   0  5  0  0  0  0  0  0  0  0  0  0
   23.3977   36.8583   69.3642 N   0  0  0  0  0  0  0  0  0  0  0  0
   24.4327   43.2703   63.8089 O   0  0  0  0  0  0  0  0  0  0  0  0
   23.6671   45.2726   65.2383 O   0  0  0  0  0  0  0  0  0  0  0  0
   22.7442   37.6398   68.5324 C   0  0  2  0  0  0  0  0  0  0  0  0
   23.4553   38.3638   67.6308 C   0  0  2  0  0  0  0  0  0  0  0  0
   22.9763   39.3283   66.5777 C   0  0  0  0  0  0  0  0  0  0  0  0
   24.1507   40.1802   66.0910 C   0  0  0  0  0  0  0  0  0  0  0  0
   23.6888   41.1108   65.1097 O   0  0  0  0  0  0  0  0  0  0  0  0
  1 11  1  0  0  0  0
  3 13  1  6  0  0  0
  3 17  1  0  0  0  0
  3 20  1  0  0  0  0
  3 26  1  0  0  0  0
  4 14  1  0  0  0  0
  4 18  1  6  0  0  0
  4 21  2  0  0  0  0
  4 20  1  0  0  0  0
  5 19  1  0  0  0  0
  5  7  1  0  0  0  0
  6  7  2  0  0  0  0
  6 12  1  0  0  0  0
  7  8  1  0  0  0  0
  8  9  1  0  0  0  0
  8 10  2  0  0  0  0
 10 11  1  0  0  0  0
 11 12  2  0  0  0  0
 14 17  1  0  0  0  0
 15 23  1  0  0  0  0
 15 16  1  0  0  0  0
 16 19  1  0  0  0  0
 19 22  1  0  0  0  0
 22  2  1  1  0  0  0
 22 23  1  0  0  0  0
 23 24  1  6  0  0  0
 24 25  1  0  0  0  0
 25 26  1  0  0  0  0
M  CHG  1  18  -1
M  END
>  <CHROM.1>
5.89362375,68.86180949,-16.30935349,-178.95163627,174.58048510,68.17742460
24.39557506,39.26830061,67.75079373,-1.63070590,-0.52514648,-0.69204388

>  <Name>
ligand

>  <RI>
0

>  <Rbt.Current_Directory>
/home/itssahil/PROJECTS/Mol_Feturizer/New_Systems/rnas/2HOL

>  <Rbt.Executable>
rbdock ($Id: //depot/dev/client3/rdock/2013.1/src/exe/rbdock.cxx#4 $)

>  <Rbt.Library>
libRbt.so (2013.1, Build901 2013/11/27)

>  <Rbt.Parameter_File>
/export/apps/rDock/src/rDock_2013.1_src/data/scripts/dock_solv.prm

>  <Rbt.Receptor>
prm/pocket_docking_8.prm

>  <SCORE>
-10.7092

>  <SCORE.INTER>
-8.66702

>  <SCORE.INTER.CONST>
1

>  <SCORE.INTER.POLAR>
0

>  <SCORE.INTER.ROT>
6

>  <SCORE.INTER.SOLV>
9.60057

>  <SCORE.INTER.VDW>
-16.5782

>  <SCORE.INTER.norm>
-0.333347

>  <SCORE.INTRA>
-2.04214

>  <SCORE.INTRA.DIHEDRAL>
-4.42856

>  <SCORE.INTRA.DIHEDRAL.0>
9.33621

>  <SCORE.INTRA.POLAR>
0

>  <SCORE.INTRA.POLAR.0>
0

>  <SCORE.INTRA.REPUL>
0

>  <SCORE.INTRA.REPUL.0>
0

>  <SCORE.INTRA.SOLV>
-0.56881

>  <SCORE.INTRA.SOLV.lig_0>
-65.9238

>  <SCORE.INTRA.VDW>
0.456547

>  <SCORE.INTRA.VDW.0>
-0.405582

>  <SCORE.INTRA.norm>
-0.0785439

>  <SCORE.RESTR>
0

>  <SCORE.RESTR.CAVITY>
0

>  <SCORE.RESTR.norm>
0

>  <SCORE.SYSTEM>
0

>  <SCORE.SYSTEM.CONST>
0

>  <SCORE.SYSTEM.DIHEDRAL>
0

>  <SCORE.SYSTEM.SOLV>
0

>  <SCORE.SYSTEM.norm>
0

>  <SCORE.heavy>
26

>  <SCORE.norm>
-0.411891

>  <RMSD>
7.941

$$$$
ligand
 OpenBabel11021811443D
libRbt.so/2013.1/901 2013/11/27
 26 28  0  0  0  0  0  0  0  0999 V2000
   27.7535   39.3993   71.6655 C   0  0  0  0  0  0  0  0  0  0  0  0
   23.0309   39.1821   65.5431 C   0  0  0  0  0  0  0  0  0  0  0  0
   20.0538   43.6831   65.8655 P   0  0  1  0  0  0  0  0  0  0  0  0
   22.4379   44.4360   66.5256 P   0  0  1  0  0  0  0  0  0  0  0  0
   24.4143   37.6142   67.4132 C   0  0  0  0  0  0  0  0  0  0  0  0
   25.2460   37.4884   69.7806 C   0  0  0  0  0  0  0  0  0  0  0  0
   25.2987   38.0878   68.5379 C   0  0  0  0  0  0  0  0  0  0  0  0
   26.1923   39.1435   68.3495 C   0  0  0  0  0  0  0  0  0  0  0  0
   26.2831   39.7793   67.1202 N   0  0  0  0  0  0  0  0  0  0  0  0
   26.9519   39.5349   69.3684 N   0  0  0  0  0  0  0  0  0  0  0  0
   26.8726   38.9314   70.5366 C   0  0  0  0  0  0  0  0  0  0  0  0
   26.0388   37.9316   70.7471 N   0  0  0  0  0  0  0  0  0  0  0  0
   18.9087   44.6030   66.0502 O   0  0  0  0  0  0  0  0  0  0  0  0
   22.1723   45.0712   65.1421 O   0  0  0  0  0  0  0  0  0  0  0  0
   20.8707   38.2662   68.6794 S   0  0  0  0  0  0  0  0  0  0  0  0
   22.4647   37.5878   68.8076 C   0  0  0  0  0  0  0  0  0  0  0  0
   20.8239   44.0509   64.5019 O   0  0  0  0  0  0  0  0  0  0  0  0
   23.0027   45.5567   67.5333 O   0  5  0  0  0  0  0  0  0  0  0  0
   23.0265   37.9903   67.6913 N   0  0  0  0  0  0  0  0  0  0  0  0
   21.0654   43.8298   67.1100 O   0  0  0  0  0  0  0  0  0  0  0  0
   23.4795   43.3041   66.3792 O   0  0  0  0  0  0  0  0  0  0  0  0
   22.3713   38.7264   66.8202 C   0  0  2  0  0  0  0  0  0  0  0  0
   21.0844   39.0606   67.0935 C   0  0  2  0  0  0  0  0  0  0  0  0
   20.1093   39.8771   66.2864 C   0  0  0  0  0  0  0  0  0  0  0  0
   20.5938   41.3268   66.2115 C   0  0  0  0  0  0  0  0  0  0  0  0
   19.5180   42.1665   65.7878 O   0  0  0  0  0  0  0  0  0  0  0  0
  1 11  1  0  0  0  0
  3 13  1  1  0  0  0
  3 17  1  0  0  0  0
  3 20  1  0  0  0  0
  3 26  1  0  0  0  0
  4 14  1  0  0  0  0
  4 18  1  1  0  0  0
  4 21  2  0  0  0  0
  4 20  1  0  0  0  0
  5 19  1  0  0  0  0
  5  7  1  0  0  0  0
  6  7  2  0  0  0  0
  6 12  1  0  0  0  0
  7  8  1  0  0  0  0
  8  9  1  0  0  0  0
  8 10  2  0  0  0  0
 10 11  1  0  0  0  0
 11 12  2  0  0  0  0
 14 17  1  0  0  0  0
 15 23  1  0  0  0  0
 15 16  1  0  0  0  0
 16 19  1  0  0  0  0
 19 22  1  0  0  0  0
 22  2  1  6  0  0  0
 22 23  1  0  0  0  0
 23 24  1  1  0  0  0
 24 25  1  0  0  0  0
 25 26  1  0  0  0  0
M  CHG  1  18  -1
M  END
>  <CHROM.1>
-56.84505664,70.75818044,113.46407636,-163.80793938,174.75077215,-154.43483514
22.74847894,40.99641273,67.38564456,-0.88710994,-0.40564608,-0.24201847

>  <Name>
ligand

>  <RI>
0

>  <Rbt.Current_Directory>
/home/itssahil/PROJECTS/Mol_Feturizer/New_Systems/rnas/2HOL

>  <Rbt.Executable>
rbdock ($Id: //depot/dev/client3/rdock/2013.1/src/exe/rbdock.cxx#4 $)

>  <Rbt.Library>
libRbt.so (2013.1, Build901 2013/11/27)

>  <Rbt.Parameter_File>
/export/apps/rDock/src/rDock_2013.1_src/data/scripts/dock_solv.prm

>  <Rbt.Receptor>
prm/pocket_docking_4.prm

>  <SCORE>
-22.2114

>  <SCORE.INTER>
-21.1254

>  <SCORE.INTER.CONST>
1

>  <SCORE.INTER.POLAR>
0

>  <SCORE.INTER.ROT>
6

>  <SCORE.INTER.SOLV>
18.2004

>  <SCORE.INTER.VDW>
-27.7504

>  <SCORE.INTER.norm>
-0.812514

>  <SCORE.INTRA>
-1.34689

>  <SCORE.INTRA.DIHEDRAL>
-2.77153

>  <SCORE.INTRA.DIHEDRAL.0>
9.33621

>  <SCORE.INTRA.POLAR>
0

>  <SCORE.INTRA.POLAR.0>
0

>  <SCORE.INTRA.REPUL>
0

>  <SCORE.INTRA.REPUL.0>
0

>  <SCORE.INTRA.SOLV>
1.86109

>  <SCORE.INTRA.SOLV.lig_0>
-65.9238

>  <SCORE.INTRA.VDW>
-0.891671

>  <SCORE.INTRA.VDW.0>
-0.405582

>  <SCORE.INTRA.norm>
-0.0518035

>  <SCORE.RESTR>
0.26088

>  <SCORE.RESTR.CAVITY>
0.26088

>  <SCORE.RESTR.norm>
0.0100338

>  <SCORE.SYSTEM>
0

>  <SCORE.SYSTEM.CONST>
0

>  <SCORE.SYSTEM.DIHEDRAL>
0

>  <SCORE.SYSTEM.SOLV>
0

>  <SCORE.SYSTEM.norm>
0

>  <SCORE.heavy>
26

>  <SCORE.norm>
-0.854283

>  <RMSD>
7.951

$$$$
ligand
 OpenBabel11021811443D
libRbt.so/2013.1/901 2013/11/27
 26 28  0  0  0  0  0  0  0  0999 V2000
   28.1202   40.5482   69.4063 C   0  0  0  0  0  0  0  0  0  0  0  0
   21.3636   39.0702   68.4203 C   0  0  0  0  0  0  0  0  0  0  0  0
   20.0999   43.7014   65.8358 P   0  0  1  0  0  0  0  0  0  0  0  0
   22.5389   44.3932   66.3448 P   0  0  1  0  0  0  0  0  0  0  0  0
   23.5539   37.3195   68.3372 C   0  0  0  0  0  0  0  0  0  0  0  0
   25.0058   39.3213   67.8939 C   0  0  0  0  0  0  0  0  0  0  0  0
   24.7630   38.1731   68.6212 C   0  0  0  0  0  0  0  0  0  0  0  0
   25.6659   37.8231   69.6267 C   0  0  0  0  0  0  0  0  0  0  0  0
   25.4673   36.6792   70.3853 N   0  0  0  0  0  0  0  0  0  0  0  0
   26.7231   38.6001   69.8428 N   0  0  0  0  0  0  0  0  0  0  0  0
   26.9138   39.6900   69.1281 C   0  0  0  0  0  0  0  0  0  0  0  0
   26.0801   40.0481   68.1712 N   0  0  0  0  0  0  0  0  0  0  0  0
   18.9882   44.6325   66.1339 O   0  0  0  0  0  0  0  0  0  0  0  0
   22.1856   45.0798   65.0062 O   0  0  0  0  0  0  0  0  0  0  0  0
   22.3919   38.0661   64.7766 S   0  0  0  0  0  0  0  0  0  0  0  0
   23.4248   37.2989   65.9437 C   0  0  0  0  0  0  0  0  0  0  0  0
   20.7759   44.1036   64.4326 O   0  0  0  0  0  0  0  0  0  0  0  0
   23.1956   45.4695   67.3452 O   0  5  0  0  0  0  0  0  0  0  0  0
   22.9390   37.7464   67.0784 N   0  0  0  0  0  0  0  0  0  0  0  0
   21.2014   43.7892   67.0074 O   0  0  0  0  0  0  0  0  0  0  0  0
   23.5463   43.2506   66.0854 O   0  0  0  0  0  0  0  0  0  0  0  0
   21.9109   38.5660   67.1088 C   0  0  2  0  0  0  0  0  0  0  0  0
   21.3578   38.9542   65.9315 C   0  0  2  0  0  0  0  0  0  0  0  0
   20.1938   39.8741   65.6714 C   0  0  0  0  0  0  0  0  0  0  0  0
   20.6667   41.3284   65.7318 C   0  0  0  0  0  0  0  0  0  0  0  0
   19.5322   42.1971   65.7472 O   0  0  0  0  0  0  0  0  0  0  0  0
  1 11  1  0  0  0  0
  3 13  1  1  0  0  0
  3 17  1  0  0  0  0
  3 20  1  0  0  0  0
  3 26  1  0  0  0  0
  4 14  1  0  0  0  0
  4 18  1  1  0  0  0
  4 21  2  0  0  0  0
  4 20  1  0  0  0  0
  5 19  1  0  0  0  0
  5  7  1  0  0  0  0
  6  7  2  0  0  0  0
  6 12  1  0  0  0  0
  7  8  1  0  0  0  0
  8  9  1  0  0  0  0
  8 10  2  0  0  0  0
 10 11  1  0  0  0  0
 11 12  2  0  0  0  0
 14 17  1  0  0  0  0
 15 23  1  0  0  0  0
 15 16  1  0  0  0  0
 16 19  1  0  0  0  0
 19 22  1  0  0  0  0
 22  2  1  6  0  0  0
 22 23  1  0  0  0  0
 23 24  1  1  0  0  0
 24 25  1  0  0  0  0
 25 26  1  0  0  0  0
M  CHG  1  18  -1
M  END
>  <CHROM.1>
82.75374388,11.68682913,-98.33239411,-168.75243248,179.07271883,-168.48225158
22.77250814,40.95489241,66.91441368,-0.85696402,-0.54051122,-0.03783254

>  <Name>
ligand

>  <RI>
0

>  <Rbt.Current_Directory>
/home/itssahil/PROJECTS/Mol_Feturizer/New_Systems/rnas/2HOL

>  <Rbt.Executable>
rbdock ($Id: //depot/dev/client3/rdock/2013.1/src/exe/rbdock.cxx#4 $)

>  <Rbt.Library>
libRbt.so (2013.1, Build901 2013/11/27)

>  <Rbt.Parameter_File>
/export/apps/rDock/src/rDock_2013.1_src/data/scripts/dock_solv.prm

>  <Rbt.Receptor>
prm/pocket_docking_6.prm

>  <SCORE>
-25.7186

>  <SCORE.INTER>
-22.1513

>  <SCORE.INTER.CONST>
1

>  <SCORE.INTER.POLAR>
0

>  <SCORE.INTER.ROT>
6

>  <SCORE.INTER.SOLV>
19.3044

>  <SCORE.INTER.VDW>
-28.8023

>  <SCORE.INTER.norm>
-0.851973

>  <SCORE.INTRA>
-3.59975

>  <SCORE.INTRA.DIHEDRAL>
-3.90791

>  <SCORE.INTRA.DIHEDRAL.0>
9.33621

>  <SCORE.INTRA.POLAR>
0

>  <SCORE.INTRA.POLAR.0>
0

>  <SCORE.INTRA.REPUL>
0

>  <SCORE.INTRA.REPUL.0>
0

>  <SCORE.INTRA.SOLV>
0.145255

>  <SCORE.INTRA.SOLV.lig_0>
-65.9238

>  <SCORE.INTRA.VDW>
-1.71842

>  <SCORE.INTRA.VDW.0>
-0.405582

>  <SCORE.INTRA.norm>
-0.138452

>  <SCORE.RESTR>
0.0324667

>  <SCORE.RESTR.CAVITY>
0.0324667

>  <SCORE.RESTR.norm>
0.00124872

>  <SCORE.SYSTEM>
0

>  <SCORE.SYSTEM.CONST>
0

>  <SCORE.SYSTEM.DIHEDRAL>
0

>  <SCORE.SYSTEM.SOLV>
0

>  <SCORE.SYSTEM.norm>
0

>  <SCORE.heavy>
26

>  <SCORE.norm>
-0.989176

>  <RMSD>
7.968

$$$$
ligand
 OpenBabel11021811443D
libRbt.so/2013.1/901 2013/11/27
 26 28  0  0  0  0  0  0  0  0999 V2000
   29.1594   36.9308   64.5854 C   0  0  0  0  0  0  0  0  0  0  0  0
   22.1445   40.4567   67.7337 C   0  0  0  0  0  0  0  0  0  0  0  0
   20.6179   43.5322   65.5014 P   0  0  1  0  0  0  0  0  0  0  0  0
   22.5520   44.7507   66.7101 P   0  0  1  0  0  0  0  0  0  0  0  0
   24.5714   39.2221   67.0590 C   0  0  0  0  0  0  0  0  0  0  0  0
   26.0568   38.8364   65.0699 C   0  0  0  0  0  0  0  0  0  0  0  0
   25.7861   38.6149   66.4055 C   0  0  0  0  0  0  0  0  0  0  0  0
   26.6665   37.8145   67.1355 C   0  0  0  0  0  0  0  0  0  0  0  0
   26.4390   37.5612   68.4800 N   0  0  0  0  0  0  0  0  0  0  0  0
   27.7243   37.2932   66.5210 N   0  0  0  0  0  0  0  0  0  0  0  0
   27.9472   37.5343   65.2454 C   0  0  0  0  0  0  0  0  0  0  0  0
   27.1349   38.2857   64.5279 N   0  0  0  0  0  0  0  0  0  0  0  0
   19.2408   44.0702   65.5776 O   0  0  0  0  0  0  0  0  0  0  0  0
   22.3260   45.5346   65.3976 O   0  0  0  0  0  0  0  0  0  0  0  0
   21.8830   38.1886   64.5511 S   0  0  0  0  0  0  0  0  0  0  0  0
   23.4971   38.1691   65.1927 C   0  0  0  0  0  0  0  0  0  0  0  0
   21.4452   44.3304   64.3762 O   0  0  0  0  0  0  0  0  0  0  0  0
   22.6076   45.7778   67.9480 O   0  5  0  0  0  0  0  0  0  0  0  0
   23.3917   38.9683   66.2290 N   0  0  0  0  0  0  0  0  0  0  0  0
   21.3427   43.7103   66.9285 O   0  0  0  0  0  0  0  0  0  0  0  0
   23.8871   43.9777   66.6228 O   0  0  0  0  0  0  0  0  0  0  0  0
   22.2498   39.5423   66.5394 C   0  0  2  0  0  0  0  0  0  0  0  0
   21.1689   39.2986   65.7552 C   0  0  2  0  0  0  0  0  0  0  0  0
   19.7593   39.8166   65.8703 C   0  0  0  0  0  0  0  0  0  0  0  0
   19.7871   41.3242   66.1323 C   0  0  0  0  0  0  0  0  0  0  0  0
   20.5638   41.9685   65.1206 O   0  0  0  0  0  0  0  0  0  0  0  0
  1 11  1  0  0  0  0
  3 13  1  1  0  0  0
  3 17  1  0  0  0  0
  3 20  1  0  0  0  0
  3 26  1  0  0  0  0
  4 14  1  0  0  0  0
  4 18  1  1  0  0  0
  4 21  2  0  0  0  0
  4 20  1  0  0  0  0
  5 19  1  0  0  0  0
  5  7  1  0  0  0  0
  6  7  2  0  0  0  0
  6 12  1  0  0  0  0
  7  8  1  0  0  0  0
  8  9  1  0  0  0  0
  8 10  2  0  0  0  0
 10 11  1  0  0  0  0
 11 12  2  0  0  0  0
 14 17  1  0  0  0  0
 15 23  1  0  0  0  0
 15 16  1  0  0  0  0
 16 19  1  0  0  0  0
 19 22  1  0  0  0  0
 22  2  1  6  0  0  0
 22 23  1  0  0  0  0
 23 24  1  1  0  0  0
 24 25  1  0  0  0  0
 25 26  1  0  0  0  0
M  CHG  1  18  -1
M  END
>  <CHROM.1>
7.82358373,48.74317067,-134.30454166,54.24621842,-176.96378057,-58.27876728
23.14526313,40.95938753,65.99059558,-0.85033568,-0.15694866,0.16486695

>  <Name>
ligand

>  <RI>
0

>  <Rbt.Current_Directory>
/home/itssahil/PROJECTS/Mol_Feturizer/New_Systems/rnas/2HOL

>  <Rbt.Executable>
rbdock ($Id: //depot/dev/client3/rdock/2013.1/src/exe/rbdock.cxx#4 $)

>  <Rbt.Library>
libRbt.so (2013.1, Build901 2013/11/27)

>  <Rbt.Parameter_File>
/export/apps/rDock/src/rDock_2013.1_src/data/scripts/dock_solv.prm

>  <Rbt.Receptor>
prm/pocket_docking_6.prm

>  <SCORE>
-23.0223

>  <SCORE.INTER>
-23.3959

>  <SCORE.INTER.CONST>
1

>  <SCORE.INTER.POLAR>
0

>  <SCORE.INTER.ROT>
6

>  <SCORE.INTER.SOLV>
19.7824

>  <SCORE.INTER.VDW>
-29.7914

>  <SCORE.INTER.norm>
-0.899841

>  <SCORE.INTRA>
0.37351

>  <SCORE.INTRA.DIHEDRAL>
-4.53252

>  <SCORE.INTRA.DIHEDRAL.0>
9.33621

>  <SCORE.INTRA.POLAR>
0

>  <SCORE.INTRA.POLAR.0>
0

>  <SCORE.INTRA.REPUL>
0

>  <SCORE.INTRA.REPUL.0>
0

>  <SCORE.INTRA.SOLV>
0.624067

>  <SCORE.INTRA.SOLV.lig_0>
-65.9238

>  <SCORE.INTRA.VDW>
2.32774

>  <SCORE.INTRA.VDW.0>
-0.405582

>  <SCORE.INTRA.norm>
0.0143658

>  <SCORE.RESTR>
0

>  <SCORE.RESTR.CAVITY>
0

>  <SCORE.RESTR.norm>
0

>  <SCORE.SYSTEM>
0

>  <SCORE.SYSTEM.CONST>
0

>  <SCORE.SYSTEM.DIHEDRAL>
0

>  <SCORE.SYSTEM.SOLV>
0

>  <SCORE.SYSTEM.norm>
0

>  <SCORE.heavy>
26

>  <SCORE.norm>
-0.885475

>  <RMSD>
7.976

$$$$
ligand
 OpenBabel11021811443D
libRbt.so/2013.1/901 2013/11/27
 26 28  0  0  0  0  0  0  0  0999 V2000
   27.8660   39.5051   71.8325 C   0  0  0  0  0  0  0  0  0  0  0  0
   23.1451   39.1417   65.6188 C   0  0  0  0  0  0  0  0  0  0  0  0
   20.0548   43.6716   65.8885 P   0  0  1  0  0  0  0  0  0  0  0  0
   22.4769   44.4756   66.3054 P   0  0  1  0  0  0  0  0  0  0  0  0
   24.5478   37.6983   67.5730 C   0  0  0  0  0  0  0  0  0  0  0  0
   25.4157   37.5426   69.9255 C   0  0  0  0  0  0  0  0  0  0  0  0
   25.4266   38.1777   68.6995 C   0  0  0  0  0  0  0  0  0  0  0  0
   26.2726   39.2750   68.5300 C   0  0  0  0  0  0  0  0  0  0  0  0
   26.3202   39.9477   67.3181 N   0  0  0  0  0  0  0  0  0  0  0  0
   27.0286   39.6699   69.5501 N   0  0  0  0  0  0  0  0  0  0  0  0
   26.9904   39.0316   70.7018 C   0  0  0  0  0  0  0  0  0  0  0  0
   26.2021   37.9921   70.8943 N   0  0  0  0  0  0  0  0  0  0  0  0
   18.9207   44.6021   66.0876 O   0  0  0  0  0  0  0  0  0  0  0  0
   22.1032   45.0009   64.9009 O   0  0  0  0  0  0  0  0  0  0  0  0
   21.0100   38.4135   68.8208 S   0  0  0  0  0  0  0  0  0  0  0  0
   22.6077   37.7507   68.9798 C   0  0  0  0  0  0  0  0  0  0  0  0
   20.7171   43.9326   64.4460 O   0  0  0  0  0  0  0  0  0  0  0  0
   23.1086   45.6719   67.1772 O   0  5  0  0  0  0  0  0  0  0  0  0
   23.1602   38.0855   67.8368 N   0  0  0  0  0  0  0  0  0  0  0  0
   21.1566   43.9157   67.0375 O   0  0  0  0  0  0  0  0  0  0  0  0
   23.5120   43.3366   66.1686 O   0  0  0  0  0  0  0  0  0  0  0  0
   22.4961   38.7635   66.9263 C   0  0  2  0  0  0  0  0  0  0  0  0
   21.2096   39.1089   67.1872 C   0  0  2  0  0  0  0  0  0  0  0  0
   20.2255   39.8699   66.3379 C   0  0  0  0  0  0  0  0  0  0  0  0
   20.6649   41.3318   66.2300 C   0  0  0  0  0  0  0  0  0  0  0  0
   19.5249   42.1532   65.9698 O   0  0  0  0  0  0  0  0  0  0  0  0
  1 11  1  0  0  0  0
  3 13  1  1  0  0  0
  3 17  1  0  0  0  0
  3 20  1  0  0  0  0
  3 26  1  0  0  0  0
  4 14  1  0  0  0  0
  4 18  1  1  0  0  0
  4 21  2  0  0  0  0
  4 20  1  0  0  0  0
  5 19  1  0  0  0  0
  5  7  1  0  0  0  0
  6  7  2  0  0  0  0
  6 12  1  0  0  0  0
  7  8  1  0  0  0  0
  8  9  1  0  0  0  0
  8 10  2  0  0  0  0
 10 11  1  0  0  0  0
 11 12  2  0  0  0  0
 14 17  1  0  0  0  0
 15 23  1  0  0  0  0
 15 16  1  0  0  0  0
 16 19  1  0  0  0  0
 19 22  1  0  0  0  0
 22  2  1  6  0  0  0
 22 23  1  0  0  0  0
 23 24  1  1  0  0  0
 24 25  1  0  0  0  0
 25 26  1  0  0  0  0
M  CHG  1  18  -1
M  END
>  <CHROM.1>
-53.68758162,74.45050842,110.54273208,-154.62554986,179.26259495,-160.65741368
22.82308145,41.04936425,67.42281590,-0.88195089,-0.39758128,-0.28574485

>  <Name>
ligand

>  <RI>
0

>  <Rbt.Current_Directory>
/home/itssahil/PROJECTS/Mol_Feturizer/New_Systems/rnas/2HOL

>  <Rbt.Executable>
rbdock ($Id: //depot/dev/client3/rdock/2013.1/src/exe/rbdock.cxx#4 $)

>  <Rbt.Library>
libRbt.so (2013.1, Build901 2013/11/27)

>  <Rbt.Parameter_File>
/export/apps/rDock/src/rDock_2013.1_src/data/scripts/dock_solv.prm

>  <Rbt.Receptor>
prm/pocket_docking_6.prm

>  <SCORE>
-22.7796

>  <SCORE.INTER>
-21.4096

>  <SCORE.INTER.CONST>
1

>  <SCORE.INTER.POLAR>
0

>  <SCORE.INTER.ROT>
6

>  <SCORE.INTER.SOLV>
17.49

>  <SCORE.INTER.VDW>
-27.7031

>  <SCORE.INTER.norm>
-0.823447

>  <SCORE.INTRA>
-1.3721

>  <SCORE.INTRA.DIHEDRAL>
-2.08068

>  <SCORE.INTRA.DIHEDRAL.0>
9.33621

>  <SCORE.INTRA.POLAR>
0

>  <SCORE.INTRA.POLAR.0>
0

>  <SCORE.INTRA.REPUL>
0

>  <SCORE.INTRA.REPUL.0>
0

>  <SCORE.INTRA.SOLV>
1.86883

>  <SCORE.INTRA.SOLV.lig_0>
-65.9238

>  <SCORE.INTRA.VDW>
-1.26618

>  <SCORE.INTRA.VDW.0>
-0.405582

>  <SCORE.INTRA.norm>
-0.0527732

>  <SCORE.RESTR>
0.0021491

>  <SCORE.RESTR.CAVITY>
0.0021491

>  <SCORE.RESTR.norm>
8.26579e-05

>  <SCORE.SYSTEM>
0

>  <SCORE.SYSTEM.CONST>
0

>  <SCORE.SYSTEM.DIHEDRAL>
0

>  <SCORE.SYSTEM.SOLV>
0

>  <SCORE.SYSTEM.norm>
0

>  <SCORE.heavy>
26

>  <SCORE.norm>
-0.876138

>  <RMSD>
7.988

$$$$
ligand
 OpenBabel11021811443D
libRbt.so/2013.1/901 2013/11/27
 26 28  0  0  0  0  0  0  0  0999 V2000
   28.4171   40.2006   70.2870 C   0  0  0  0  0  0  0  0  0  0  0  0
   23.9879   40.9543   64.7299 C   0  0  0  0  0  0  0  0  0  0  0  0
   20.3933   43.7972   65.8897 P   0  0  1  0  0  0  0  0  0  0  0  0
   22.6539   44.8091   66.6330 P   0  0  1  0  0  0  0  0  0  0  0  0
   25.9175   39.0035   65.3134 C   0  0  0  0  0  0  0  0  0  0  0  0
   26.0846   40.3117   67.4517 C   0  0  0  0  0  0  0  0  0  0  0  0
   26.5802   39.3193   66.6295 C   0  0  0  0  0  0  0  0  0  0  0  0
   27.7106   38.6156   67.0486 C   0  0  0  0  0  0  0  0  0  0  0  0
   28.2477   37.6099   66.2589 N   0  0  0  0  0  0  0  0  0  0  0  0
   28.2690   38.9280   68.2143 N   0  0  0  0  0  0  0  0  0  0  0  0
   27.7601   39.8793   68.9700 C   0  0  0  0  0  0  0  0  0  0  0  0
   26.6937   40.5627   68.6028 N   0  0  0  0  0  0  0  0  0  0  0  0
   19.1540   44.6011   65.9871 O   0  0  0  0  0  0  0  0  0  0  0  0
   22.3959   45.3704   65.2165 O   0  0  0  0  0  0  0  0  0  0  0  0
   22.4437   37.6262   66.1014 S   0  0  0  0  0  0  0  0  0  0  0  0
   24.1747   37.5131   66.0115 C   0  0  0  0  0  0  0  0  0  0  0  0
   21.1903   44.1986   64.5512 O   0  0  0  0  0  0  0  0  0  0  0  0
   23.0523   46.0124   67.6248 O   0  5  0  0  0  0  0  0  0  0  0  0
   24.5042   38.6932   65.5398 N   0  0  0  0  0  0  0  0  0  0  0  0
   21.3213   44.0850   67.1740 O   0  0  0  0  0  0  0  0  0  0  0  0
   23.8097   43.7851   66.5766 O   0  0  0  0  0  0  0  0  0  0  0  0
   23.5934   39.6029   65.2700 C   0  0  2  0  0  0  0  0  0  0  0  0
   22.2885   39.2948   65.4818 C   0  0  2  0  0  0  0  0  0  0  0  0
   21.0539   40.1286   65.2601 C   0  0  0  0  0  0  0  0  0  0  0  0
   21.2487   41.5099   65.8895 C   0  0  0  0  0  0  0  0  0  0  0  0
   20.0167   42.2323   65.8419 O   0  0  0  0  0  0  0  0  0  0  0  0
  1 11  1  0  0  0  0
  3 13  1  1  0  0  0
  3 17  1  0  0  0  0
  3 20  1  0  0  0  0
  3 26  1  0  0  0  0
  4 14  1  0  0  0  0
  4 18  1  1  0  0  0
  4 21  2  0  0  0  0
  4 20  1  0  0  0  0
  5 19  1  0  0  0  0
  5  7  1  0  0  0  0
  6  7  2  0  0  0  0
  6 12  1  0  0  0  0
  7  8  1  0  0  0  0
  8  9  1  0  0  0  0
  8 10  2  0  0  0  0
 10 11  1  0  0  0  0
 11 12  2  0  0  0  0
 14 17  1  0  0  0  0
 15 23  1  0  0  0  0
 15 16  1  0  0  0  0
 16 19  1  0  0  0  0
 19 22  1  0  0  0  0
 22  2  1  6  0  0  0
 22 23  1  0  0  0  0
 23 24  1  1  0  0  0
 24 25  1  0  0  0  0
 25 26  1  0  0  0  0
M  CHG  1  18  -1
M  END
>  <CHROM.1>
-77.50717875,-55.59021778,130.98216074,-172.04941017,-155.72702307,-174.08862994
23.57790142,41.37917609,66.43480535,-0.66773971,-0.42639792,0.24456525

>  <Name>
ligand

>  <RI>
0

>  <Rbt.Current_Directory>
/home/itssahil/PROJECTS/Mol_Feturizer/New_Systems/rnas/2HOL

>  <Rbt.Executable>
rbdock ($Id: //depot/dev/client3/rdock/2013.1/src/exe/rbdock.cxx#4 $)

>  <Rbt.Library>
libRbt.so (2013.1, Build901 2013/11/27)

>  <Rbt.Parameter_File>
/export/apps/rDock/src/rDock_2013.1_src/data/scripts/dock_solv.prm

>  <Rbt.Receptor>
prm/pocket_docking_5.prm

>  <SCORE>
-19.086

>  <SCORE.INTER>
-17.7852

>  <SCORE.INTER.CONST>
1

>  <SCORE.INTER.POLAR>
0

>  <SCORE.INTER.ROT>
6

>  <SCORE.INTER.SOLV>
19.9514

>  <SCORE.INTER.VDW>
-26.1073

>  <SCORE.INTER.norm>
-0.684045

>  <SCORE.INTRA>
-1.30078

>  <SCORE.INTRA.DIHEDRAL>
-1.89746

>  <SCORE.INTRA.DIHEDRAL.0>
9.33621

>  <SCORE.INTRA.POLAR>
0

>  <SCORE.INTRA.POLAR.0>
0

>  <SCORE.INTRA.REPUL>
0

>  <SCORE.INTRA.REPUL.0>
0

>  <SCORE.INTRA.SOLV>
1.12473

>  <SCORE.INTRA.SOLV.lig_0>
-65.9238

>  <SCORE.INTRA.VDW>
-0.914418

>  <SCORE.INTRA.VDW.0>
-0.405582

>  <SCORE.INTRA.norm>
-0.0500301

>  <SCORE.RESTR>
0

>  <SCORE.RESTR.CAVITY>
0

>  <SCORE.RESTR.norm>
0

>  <SCORE.SYSTEM>
0

>  <SCORE.SYSTEM.CONST>
0

>  <SCORE.SYSTEM.DIHEDRAL>
0

>  <SCORE.SYSTEM.SOLV>
0

>  <SCORE.SYSTEM.norm>
0

>  <SCORE.heavy>
26

>  <SCORE.norm>
-0.734076

>  <RMSD>
8.020

$$$$
ligand
 OpenBabel11021811443D
libRbt.so/2013.1/901 2013/11/27
 26 28  0  0  0  0  0  0  0  0999 V2000
   29.3725   42.7055   66.5850 C   0  0  0  0  0  0  0  0  0  0  0  0
   23.5558   44.6294   63.6290 C   0  0  0  0  0  0  0  0  0  0  0  0
   20.3667   40.3690   65.9696 P   0  0  1  0  0  0  0  0  0  0  0  0
   22.6886   39.2328   65.9035 P   0  0  1  0  0  0  0  0  0  0  0  0
   25.3646   46.3719   64.8784 C   0  0  0  0  0  0  0  0  0  0  0  0
   26.1285   44.3890   66.2186 C   0  0  0  0  0  0  0  0  0  0  0  0
   26.4265   45.4022   65.3293 C   0  0  0  0  0  0  0  0  0  0  0  0
   27.7364   45.5055   64.8581 C   0  0  0  0  0  0  0  0  0  0  0  0
   28.0871   46.5060   63.9640 N   0  0  0  0  0  0  0  0  0  0  0  0
   28.6454   44.6333   65.2840 N   0  0  0  0  0  0  0  0  0  0  0  0
   28.3164   43.6785   66.1298 C   0  0  0  0  0  0  0  0  0  0  0  0
   27.0883   43.5540   66.5938 N   0  0  0  0  0  0  0  0  0  0  0  0
   19.1375   39.5440   65.9549 O   0  0  0  0  0  0  0  0  0  0  0  0
   22.2221   39.1343   67.3735 O   0  0  0  0  0  0  0  0  0  0  0  0
   22.2802   45.9470   67.0900 S   0  0  0  0  0  0  0  0  0  0  0  0
   23.8444   46.6041   66.7172 C   0  0  0  0  0  0  0  0  0  0  0  0
   20.9587   40.4245   67.4643 O   0  0  0  0  0  0  0  0  0  0  0  0
   23.1985   37.7907   65.4027 O   0  5  0  0  0  0  0  0  0  0  0  0
   24.1011   46.0602   65.5501 N   0  0  0  0  0  0  0  0  0  0  0  0
   21.4605   39.7187   64.9825 O   0  0  0  0  0  0  0  0  0  0  0  0
   23.8453   40.2520   65.7993 O   0  0  0  0  0  0  0  0  0  0  0  0
   23.2470   45.2452   64.9703 C   0  0  2  0  0  0  0  0  0  0  0  0
   22.0835   44.9646   65.6108 C   0  0  2  0  0  0  0  0  0  0  0  0
   20.9426   44.0758   65.1898 C   0  0  0  0  0  0  0  0  0  0  0  0
   21.1859   42.6536   65.7000 C   0  0  0  0  0  0  0  0  0  0  0  0
   20.0187   41.8609   65.4736 O   0  0  0  0  0  0  0  0  0  0  0  0
  1 11  1  0  0  0  0
  3 13  1  6  0  0  0
  3 17  1  0  0  0  0
  3 20  1  0  0  0  0
  3 26  1  0  0  0  0
  4 14  1  0  0  0  0
  4 18  1  6  0  0  0
  4 21  2  0  0  0  0
  4 20  1  0  0  0  0
  5 19  1  0  0  0  0
  5  7  1  0  0  0  0
  6  7  2  0  0  0  0
  6 12  1  0  0  0  0
  7  8  1  0  0  0  0
  8  9  1  0  0  0  0
  8 10  2  0  0  0  0
 10 11  1  0  0  0  0
 11 12  2  0  0  0  0
 14 17  1  0  0  0  0
 15 23  1  0  0  0  0
 15 16  1  0  0  0  0
 16 19  1  0  0  0  0
 19 22  1  0  0  0  0
 22  2  1  1  0  0  0
 22 23  1  0  0  0  0
 23 24  1  6  0  0  0
 24 25  1  0  0  0  0
 25 26  1  0  0  0  0
M  CHG  1  18  -1
M  END
>  <CHROM.1>
88.29214815,1.58313693,-90.27607862,171.51955264,177.47718376,171.46879437
23.55180136,42.80334089,65.80281273,-0.76193098,-0.03650215,3.08095633

>  <Name>
ligand

>  <RI>
0

>  <Rbt.Current_Directory>
/home/itssahil/PROJECTS/Mol_Feturizer/New_Systems/rnas/2HOL

>  <Rbt.Executable>
rbdock ($Id: //depot/dev/client3/rdock/2013.1/src/exe/rbdock.cxx#4 $)

>  <Rbt.Library>
libRbt.so (2013.1, Build901 2013/11/27)

>  <Rbt.Parameter_File>
/export/apps/rDock/src/rDock_2013.1_src/data/scripts/dock_solv.prm

>  <Rbt.Receptor>
prm/pocket_docking_7.prm

>  <SCORE>
-20.5303

>  <SCORE.INTER>
-16.7996

>  <SCORE.INTER.CONST>
1

>  <SCORE.INTER.POLAR>
0

>  <SCORE.INTER.ROT>
6

>  <SCORE.INTER.SOLV>
14.1984

>  <SCORE.INTER.VDW>
-23.5326

>  <SCORE.INTER.norm>
-0.64614

>  <SCORE.INTRA>
-3.73071

>  <SCORE.INTRA.DIHEDRAL>
-4.04465

>  <SCORE.INTRA.DIHEDRAL.0>
9.33621

>  <SCORE.INTRA.POLAR>
0

>  <SCORE.INTRA.POLAR.0>
0

>  <SCORE.INTRA.REPUL>
0

>  <SCORE.INTRA.REPUL.0>
0

>  <SCORE.INTRA.SOLV>
0.0161085

>  <SCORE.INTRA.SOLV.lig_0>
-65.9238

>  <SCORE.INTRA.VDW>
-1.71644

>  <SCORE.INTRA.VDW.0>
-0.405582

>  <SCORE.INTRA.norm>
-0.143489

>  <SCORE.RESTR>
0

>  <SCORE.RESTR.CAVITY>
0

>  <SCORE.RESTR.norm>
0

>  <SCORE.SYSTEM>
0

>  <SCORE.SYSTEM.CONST>
0

>  <SCORE.SYSTEM.DIHEDRAL>
0

>  <SCORE.SYSTEM.SOLV>
0

>  <SCORE.SYSTEM.norm>
0

>  <SCORE.heavy>
26

>  <SCORE.norm>
-0.789629

>  <RMSD>
8.059

$$$$
ligand
 OpenBabel11021811443D
libRbt.so/2013.1/901 2013/11/27
 26 28  0  0  0  0  0  0  0  0999 V2000
   28.3254   40.9739   72.0715 C   0  0  0  0  0  0  0  0  0  0  0  0
   25.1576   38.3594   65.6789 C   0  0  0  0  0  0  0  0  0  0  0  0
   21.8086   42.0918   66.9508 P   0  0  1  0  0  0  0  0  0  0  0  0
   21.8124   44.5729   66.2223 P   0  0  1  0  0  0  0  0  0  0  0  0
   26.3551   37.4576   68.0501 C   0  0  0  0  0  0  0  0  0  0  0  0
   26.5939   38.1712   70.4470 C   0  0  0  0  0  0  0  0  0  0  0  0
   26.8772   38.3892   69.1134 C   0  0  0  0  0  0  0  0  0  0  0  0
   27.6600   39.4943   68.7750 C   0  0  0  0  0  0  0  0  0  0  0  0
   27.9725   39.7575   67.4497 N   0  0  0  0  0  0  0  0  0  0  0  0
   28.0973   40.2951   69.7424 N   0  0  0  0  0  0  0  0  0  0  0  0
   27.8070   40.0470   71.0031 C   0  0  0  0  0  0  0  0  0  0  0  0
   27.0699   39.0120   71.3557 N   0  0  0  0  0  0  0  0  0  0  0  0
   21.7225   41.7414   68.3866 O   0  0  0  0  0  0  0  0  0  0  0  0
   20.3310   44.2229   66.4889 O   0  0  0  0  0  0  0  0  0  0  0  0
   22.5612   37.5065   68.4848 S   0  0  0  0  0  0  0  0  0  0  0  0
   24.1836   37.2264   69.0386 C   0  0  0  0  0  0  0  0  0  0  0  0
   20.3372   42.4176   66.3881 O   0  0  0  0  0  0  0  0  0  0  0  0
   22.1858   45.9447   66.9767 O   0  5  0  0  0  0  0  0  0  0  0  0
   24.8954   37.5579   67.9863 N   0  0  0  0  0  0  0  0  0  0  0  0
   22.7513   43.3850   66.7702 O   0  0  0  0  0  0  0  0  0  0  0  0
   22.0336   44.7448   64.7027 O   0  0  0  0  0  0  0  0  0  0  0  0
   24.3262   37.9811   66.8787 C   0  0  2  0  0  0  0  0  0  0  0  0
   22.9719   38.0625   66.8373 C   0  0  2  0  0  0  0  0  0  0  0  0
   22.0675   38.5028   65.7162 C   0  0  0  0  0  0  0  0  0  0  0  0
   21.4254   39.8454   66.0731 C   0  0  0  0  0  0  0  0  0  0  0  0
   22.4353   40.8548   66.1322 O   0  0  0  0  0  0  0  0  0  0  0  0
  1 11  1  0  0  0  0
  3 13  1  1  0  0  0
  3 17  1  0  0  0  0
  3 20  1  0  0  0  0
  3 26  1  0  0  0  0
  4 14  1  0  0  0  0
  4 18  1  1  0  0  0
  4 21  2  0  0  0  0
  4 20  1  0  0  0  0
  5 19  1  0  0  0  0
  5  7  1  0  0  0  0
  6  7  2  0  0  0  0
  6 12  1  0  0  0  0
  7  8  1  0  0  0  0
  8  9  1  0  0  0  0
  8 10  2  0  0  0  0
 10 11  1  0  0  0  0
 11 12  2  0  0  0  0
 14 17  1  0  0  0  0
 15 23  1  0  0  0  0
 15 16  1  0  0  0  0
 16 19  1  0  0  0  0
 19 22  1  0  0  0  0
 22  2  1  6  0  0  0
 22 23  1  0  0  0  0
 23 24  1  1  0  0  0
 24 25  1  0  0  0  0
 25 26  1  0  0  0  0
M  CHG  1  18  -1
M  END
>  <CHROM.1>
-62.13615627,66.49220026,69.60987666,66.09351935,-162.20604300,72.95774498
23.83022601,40.61121236,67.68958284,-0.66598132,-0.57371500,0.03031784

>  <Name>
ligand

>  <RI>
0

>  <Rbt.Current_Directory>
/home/itssahil/PROJECTS/Mol_Feturizer/New_Systems/rnas/2HOL

>  <Rbt.Executable>
rbdock ($Id: //depot/dev/client3/rdock/2013.1/src/exe/rbdock.cxx#4 $)

>  <Rbt.Library>
libRbt.so (2013.1, Build901 2013/11/27)

>  <Rbt.Parameter_File>
/export/apps/rDock/src/rDock_2013.1_src/data/scripts/dock_solv.prm

>  <Rbt.Receptor>
prm/pocket_docking_6.prm

>  <SCORE>
-17.3293

>  <SCORE.INTER>
-14.7861

>  <SCORE.INTER.CONST>
1

>  <SCORE.INTER.POLAR>
0

>  <SCORE.INTER.ROT>
6

>  <SCORE.INTER.SOLV>
18.9068

>  <SCORE.INTER.VDW>
-23.7596

>  <SCORE.INTER.norm>
-0.568694

>  <SCORE.INTRA>
-2.54327

>  <SCORE.INTRA.DIHEDRAL>
-2.36387

>  <SCORE.INTRA.DIHEDRAL.0>
9.33621

>  <SCORE.INTRA.POLAR>
0

>  <SCORE.INTRA.POLAR.0>
0

>  <SCORE.INTRA.REPUL>
0

>  <SCORE.INTRA.REPUL.0>
0

>  <SCORE.INTRA.SOLV>
0.871891

>  <SCORE.INTRA.SOLV.lig_0>
-65.9238

>  <SCORE.INTRA.VDW>
-1.79728

>  <SCORE.INTRA.VDW.0>
-0.405582

>  <SCORE.INTRA.norm>
-0.0978181

>  <SCORE.RESTR>
0

>  <SCORE.RESTR.CAVITY>
0

>  <SCORE.RESTR.norm>
0

>  <SCORE.SYSTEM>
0

>  <SCORE.SYSTEM.CONST>
0

>  <SCORE.SYSTEM.DIHEDRAL>
0

>  <SCORE.SYSTEM.SOLV>
0

>  <SCORE.SYSTEM.norm>
0

>  <SCORE.heavy>
26

>  <SCORE.norm>
-0.666513

>  <RMSD>
8.064

$$$$
ligand
 OpenBabel11021811443D
libRbt.so/2013.1/901 2013/11/27
 26 28  0  0  0  0  0  0  0  0999 V2000
   29.4149   42.7418   66.6047 C   0  0  0  0  0  0  0  0  0  0  0  0
   23.6787   44.6503   63.5541 C   0  0  0  0  0  0  0  0  0  0  0  0
   20.4964   40.4022   65.8127 P   0  0  1  0  0  0  0  0  0  0  0  0
   22.8382   39.3069   65.8667 P   0  0  1  0  0  0  0  0  0  0  0  0
   25.4580   46.4203   64.8074 C   0  0  0  0  0  0  0  0  0  0  0  0
   26.1777   44.4130   66.1357 C   0  0  0  0  0  0  0  0  0  0  0  0
   26.5064   45.4474   65.2824 C   0  0  0  0  0  0  0  0  0  0  0  0
   27.8346   45.5691   64.8704 C   0  0  0  0  0  0  0  0  0  0  0  0
   28.2161   46.5913   64.0142 N   0  0  0  0  0  0  0  0  0  0  0  0
   28.7305   44.6933   65.3159 N   0  0  0  0  0  0  0  0  0  0  0  0
   28.3724   43.7182   66.1258 C   0  0  0  0  0  0  0  0  0  0  0  0
   27.1264   43.5758   66.5336 N   0  0  0  0  0  0  0  0  0  0  0  0
   19.2840   39.5555   65.7445 O   0  0  0  0  0  0  0  0  0  0  0  0
   22.3030   39.2092   67.3132 O   0  0  0  0  0  0  0  0  0  0  0  0
   22.3283   46.0320   66.9613 S   0  0  0  0  0  0  0  0  0  0  0  0
   23.8989   46.6850   66.6088 C   0  0  0  0  0  0  0  0  0  0  0  0
   21.0144   40.4774   67.3339 O   0  0  0  0  0  0  0  0  0  0  0  0
   23.3967   37.8710   65.4011 O   0  5  0  0  0  0  0  0  0  0  0  0
   24.1810   46.1191   65.4582 N   0  0  0  0  0  0  0  0  0  0  0  0
   21.6479   39.7654   64.8841 O   0  0  0  0  0  0  0  0  0  0  0  0
   23.9807   40.3458   65.8113 O   0  0  0  0  0  0  0  0  0  0  0  0
   23.3407   45.2913   64.8765 C   0  0  2  0  0  0  0  0  0  0  0  0
   22.1644   45.0208   65.4976 C   0  0  2  0  0  0  0  0  0  0  0  0
   21.0341   44.1218   65.0700 C   0  0  0  0  0  0  0  0  0  0  0  0
   21.2640   42.7124   65.6204 C   0  0  0  0  0  0  0  0  0  0  0  0
   20.1470   41.8847   65.2901 O   0  0  0  0  0  0  0  0  0  0  0  0
  1 11  1  0  0  0  0
  3 13  1  6  0  0  0
  3 17  1  0  0  0  0
  3 20  1  0  0  0  0
  3 26  1  0  0  0  0
  4 14  1  0  0  0  0
  4 18  1  6  0  0  0
  4 21  2  0  0  0  0
  4 20  1  0  0  0  0
  5 19  1  0  0  0  0
  5  7  1  0  0  0  0
  6  7  2  0  0  0  0
  6 12  1  0  0  0  0
  7  8  1  0  0  0  0
  8  9  1  0  0  0  0
  8 10  2  0  0  0  0
 10 11  1  0  0  0  0
 11 12  2  0  0  0  0
 14 17  1  0  0  0  0
 15 23  1  0  0  0  0
 15 16  1  0  0  0  0
 16 19  1  0  0  0  0
 19 22  1  0  0  0  0
 22  2  1  1  0  0  0
 22 23  1  0  0  0  0
 23 24  1  6  0  0  0
 24 25  1  0  0  0  0
 25 26  1  0  0  0  0
M  CHG  1  18  -1
M  END
>  <CHROM.1>
89.20720657,3.82892756,-89.90140186,176.12208680,176.41929910,168.95676430
23.65243688,42.85747512,65.72692836,-0.76856326,-0.01482604,3.07261296

>  <Name>
ligand

>  <RI>
0

>  <Rbt.Current_Directory>
/home/itssahil/PROJECTS/Mol_Feturizer/New_Systems/rnas/2HOL

>  <Rbt.Executable>
rbdock ($Id: //depot/dev/client3/rdock/2013.1/src/exe/rbdock.cxx#4 $)

>  <Rbt.Library>
libRbt.so (2013.1, Build901 2013/11/27)

>  <Rbt.Parameter_File>
/export/apps/rDock/src/rDock_2013.1_src/data/scripts/dock_solv.prm

>  <Rbt.Receptor>
prm/pocket_docking_7.prm

>  <SCORE>
-20.6958

>  <SCORE.INTER>
-16.9403

>  <SCORE.INTER.CONST>
1

>  <SCORE.INTER.POLAR>
0

>  <SCORE.INTER.ROT>
6

>  <SCORE.INTER.SOLV>
14.0254

>  <SCORE.INTER.VDW>
-23.5687

>  <SCORE.INTER.norm>
-0.651551

>  <SCORE.INTRA>
-3.75544

>  <SCORE.INTRA.DIHEDRAL>
-4.14038

>  <SCORE.INTRA.DIHEDRAL.0>
9.33621

>  <SCORE.INTRA.POLAR>
0

>  <SCORE.INTRA.POLAR.0>
0

>  <SCORE.INTRA.REPUL>
0

>  <SCORE.INTRA.REPUL.0>
0

>  <SCORE.INTRA.SOLV>
0.00605636

>  <SCORE.INTRA.SOLV.lig_0>
-65.9238

>  <SCORE.INTRA.VDW>
-1.68828

>  <SCORE.INTRA.VDW.0>
-0.405582

>  <SCORE.INTRA.norm>
-0.14444

>  <SCORE.RESTR>
0

>  <SCORE.RESTR.CAVITY>
0

>  <SCORE.RESTR.norm>
0

>  <SCORE.SYSTEM>
0

>  <SCORE.SYSTEM.CONST>
0

>  <SCORE.SYSTEM.DIHEDRAL>
0

>  <SCORE.SYSTEM.SOLV>
0

>  <SCORE.SYSTEM.norm>
0

>  <SCORE.heavy>
26

>  <SCORE.norm>
-0.795991

>  <RMSD>
8.066

$$$$
ligand
 OpenBabel11021811443D
libRbt.so/2013.1/901 2013/11/27
 26 28  0  0  0  0  0  0  0  0999 V2000
   25.0896   44.4545   63.1243 C   0  0  0  0  0  0  0  0  0  0  0  0
   24.9689   40.2036   67.5845 C   0  0  0  0  0  0  0  0  0  0  0  0
   20.4951   40.3988   65.7808 P   0  0  1  0  0  0  0  0  0  0  0  0
   18.1184   39.9911   64.8469 P   0  0  1  0  0  0  0  0  0  0  0  0
   26.3335   39.3383   65.2913 C   0  0  0  0  0  0  0  0  0  0  0  0
   24.7251   40.9930   64.2979 C   0  0  0  0  0  0  0  0  0  0  0  0
   26.0057   40.6929   64.7178 C   0  0  0  0  0  0  0  0  0  0  0  0
   26.9891   41.6763   64.5981 C   0  0  0  0  0  0  0  0  0  0  0  0
   28.2909   41.4246   65.0050 N   0  0  0  0  0  0  0  0  0  0  0  0
   26.6606   42.8571   64.0823 N   0  0  0  0  0  0  0  0  0  0  0  0
   25.4247   43.1027   63.6984 C   0  0  0  0  0  0  0  0  0  0  0  0
   24.4730   42.1953   63.7979 N   0  0  0  0  0  0  0  0  0  0  0  0
   21.6793   40.1415   64.9305 O   0  0  0  0  0  0  0  0  0  0  0  0
   18.5512   41.3659   64.2893 O   0  0  0  0  0  0  0  0  0  0  0  0
   23.2057   37.2036   65.7864 S   0  0  0  0  0  0  0  0  0  0  0  0
   24.6554   37.6616   64.9463 C   0  0  0  0  0  0  0  0  0  0  0  0
   19.8786   41.8406   65.4215 O   0  0  0  0  0  0  0  0  0  0  0  0
   17.5432   39.0815   63.6502 O   0  5  0  0  0  0  0  0  0  0  0  0
   25.0952   38.6588   65.6785 N   0  0  0  0  0  0  0  0  0  0  0  0
   19.3875   39.2600   65.5160 O   0  0  0  0  0  0  0  0  0  0  0  0
   17.0190   40.1930   65.9137 O   0  0  0  0  0  0  0  0  0  0  0  0
   24.4502   39.0575   66.7531 C   0  0  2  0  0  0  0  0  0  0  0  0
   23.3019   38.4185   67.0928 C   0  0  2  0  0  0  0  0  0  0  0  0
   22.3702   38.6628   68.2509 C   0  0  0  0  0  0  0  0  0  0  0  0
   20.9735   38.9979   67.7230 C   0  0  0  0  0  0  0  0  0  0  0  0
   20.9301   40.3714   67.3310 O   0  0  0  0  0  0  0  0  0  0  0  0
  1 11  1  0  0  0  0
  3 13  1  6  0  0  0
  3 17  1  0  0  0  0
  3 20  1  0  0  0  0
  3 26  1  0  0  0  0
  4 14  1  0  0  0  0
  4 18  1  6  0  0  0
  4 21  2  0  0  0  0
  4 20  1  0  0  0  0
  5 19  1  0  0  0  0
  5  7  1  0  0  0  0
  6  7  2  0  0  0  0
  6 12  1  0  0  0  0
  7  8  1  0  0  0  0
  8  9  1  0  0  0  0
  8 10  2  0  0  0  0
 10 11  1  0  0  0  0
 11 12  2  0  0  0  0
 14 17  1  0  0  0  0
 15 23  1  0  0  0  0
 15 16  1  0  0  0  0
 16 19  1  0  0  0  0
 19 22  1  0  0  0  0
 22  2  1  6  0  0  0
 22 23  1  0  0  0  0
 23 24  1  1  0  0  0
 24 25  1  0  0  0  0
 25 26  1  0  0  0  0
M  CHG  1  18  -1
M  END
>  <CHROM.1>
106.57248405,-16.96175000,-59.62000959,-80.43286092,122.59159489,-81.71458087
22.47950908,40.18554550,65.40446520,0.17199885,-0.02704947,-0.55392103

>  <Name>
ligand

>  <RI>
0

>  <Rbt.Current_Directory>
/home/itssahil/PROJECTS/Mol_Feturizer/New_Systems/rnas/2HOL

>  <Rbt.Executable>
rbdock ($Id: //depot/dev/client3/rdock/2013.1/src/exe/rbdock.cxx#4 $)

>  <Rbt.Library>
libRbt.so (2013.1, Build901 2013/11/27)

>  <Rbt.Parameter_File>
/export/apps/rDock/src/rDock_2013.1_src/data/scripts/dock_solv.prm

>  <Rbt.Receptor>
prm/pocket_docking_5.prm

>  <SCORE>
-15.0599

>  <SCORE.INTER>
-15.6666

>  <SCORE.INTER.CONST>
1

>  <SCORE.INTER.POLAR>
0

>  <SCORE.INTER.ROT>
6

>  <SCORE.INTER.SOLV>
25.4346

>  <SCORE.INTER.VDW>
-26.5226

>  <SCORE.INTER.norm>
-0.602562

>  <SCORE.INTRA>
0.606739

>  <SCORE.INTRA.DIHEDRAL>
5.12764

>  <SCORE.INTRA.DIHEDRAL.0>
9.33621

>  <SCORE.INTRA.POLAR>
0

>  <SCORE.INTRA.POLAR.0>
0

>  <SCORE.INTRA.REPUL>
0

>  <SCORE.INTRA.REPUL.0>
0

>  <SCORE.INTRA.SOLV>
1.03617

>  <SCORE.INTRA.SOLV.lig_0>
-65.9238

>  <SCORE.INTRA.VDW>
-2.47517

>  <SCORE.INTRA.VDW.0>
-0.405582

>  <SCORE.INTRA.norm>
0.0233361

>  <SCORE.RESTR>
0

>  <SCORE.RESTR.CAVITY>
0

>  <SCORE.RESTR.norm>
0

>  <SCORE.SYSTEM>
0

>  <SCORE.SYSTEM.CONST>
0

>  <SCORE.SYSTEM.DIHEDRAL>
0

>  <SCORE.SYSTEM.SOLV>
0

>  <SCORE.SYSTEM.norm>
0

>  <SCORE.heavy>
26

>  <SCORE.norm>
-0.579225

>  <RMSD>
8.069

$$$$
ligand
 OpenBabel11021811443D
libRbt.so/2013.1/901 2013/11/27
 26 28  0  0  0  0  0  0  0  0999 V2000
   27.5332   38.0281   64.8447 C   0  0  0  0  0  0  0  0  0  0  0  0
   24.4355   43.9832   63.5264 C   0  0  0  0  0  0  0  0  0  0  0  0
   19.6796   41.7445   65.1491 P   0  0  1  0  0  0  0  0  0  0  0  0
   21.3294   40.0125   66.1314 P   0  0  1  0  0  0  0  0  0  0  0  0
   26.8254   43.6765   64.9630 C   0  0  0  0  0  0  0  0  0  0  0  0
   26.2783   41.3925   64.0709 C   0  0  0  0  0  0  0  0  0  0  0  0
   27.0137   42.1815   64.9328 C   0  0  0  0  0  0  0  0  0  0  0  0
   27.9366   41.5594   65.7754 C   0  0  0  0  0  0  0  0  0  0  0  0
   28.6995   42.3073   66.6597 N   0  0  0  0  0  0  0  0  0  0  0  0
   28.0694   40.2374   65.7218 N   0  0  0  0  0  0  0  0  0  0  0  0
   27.3503   39.5230   64.8805 C   0  0  0  0  0  0  0  0  0  0  0  0
   26.4702   40.0801   64.0718 N   0  0  0  0  0  0  0  0  0  0  0  0
   18.6516   41.3178   64.1730 O   0  0  0  0  0  0  0  0  0  0  0  0
   20.0215   39.8397   66.9360 O   0  0  0  0  0  0  0  0  0  0  0  0
   23.9895   44.5062   67.3825 S   0  0  0  0  0  0  0  0  0  0  0  0
   25.6429   44.1402   66.9959 C   0  0  0  0  0  0  0  0  0  0  0  0
   19.1763   41.4105   66.6400 O   0  0  0  0  0  0  0  0  0  0  0  0
   21.8477   38.5735   65.6304 O   0  5  0  0  0  0  0  0  0  0  0  0
   25.5966   43.9997   65.6913 N   0  0  0  0  0  0  0  0  0  0  0  0
   21.0547   40.9585   64.8576 O   0  0  0  0  0  0  0  0  0  0  0  0
   22.4042   40.6613   67.0322 O   0  0  0  0  0  0  0  0  0  0  0  0
   24.4722   44.1464   65.0250 C   0  0  2  0  0  0  0  0  0  0  0  0
   23.3430   44.4410   65.7183 C   0  0  2  0  0  0  0  0  0  0  0  0
   21.9372   44.6568   65.2223 C   0  0  0  0  0  0  0  0  0  0  0  0
   20.9956   43.6593   65.9008 C   0  0  0  0  0  0  0  0  0  0  0  0
   19.9294   43.3291   65.0086 O   0  0  0  0  0  0  0  0  0  0  0  0
  1 11  1  0  0  0  0
  3 13  1  6  0  0  0
  3 17  1  0  0  0  0
  3 20  1  0  0  0  0
  3 26  1  0  0  0  0
  4 14  1  0  0  0  0
  4 18  1  6  0  0  0
  4 21  2  0  0  0  0
  4 20  1  0  0  0  0
  5 19  1  0  0  0  0
  5  7  1  0  0  0  0
  6  7  2  0  0  0  0
  6 12  1  0  0  0  0
  7  8  1  0  0  0  0
  8  9  1  0  0  0  0
  8 10  2  0  0  0  0
 10 11  1  0  0  0  0
 11 12  2  0  0  0  0
 14 17  1  0  0  0  0
 15 23  1  0  0  0  0
 15 16  1  0  0  0  0
 16 19  1  0  0  0  0
 19 22  1  0  0  0  0
 22  2  1  1  0  0  0
 22 23  1  0  0  0  0
 23 24  1  6  0  0  0
 24 25  1  0  0  0  0
 25 26  1  0  0  0  0
M  CHG  1  18  -1
M  END
>  <CHROM.1>
87.12827959,77.03840541,-58.31322982,-148.48013773,138.81389027,-175.77054125
23.42883537,41.90402955,65.59791664,-0.01882980,-0.03258139,-3.05001128

>  <Name>
ligand

>  <RI>
0

>  <Rbt.Current_Directory>
/home/itssahil/PROJECTS/Mol_Feturizer/New_Systems/rnas/2HOL

>  <Rbt.Executable>
rbdock ($Id: //depot/dev/client3/rdock/2013.1/src/exe/rbdock.cxx#4 $)

>  <Rbt.Library>
libRbt.so (2013.1, Build901 2013/11/27)

>  <Rbt.Parameter_File>
/export/apps/rDock/src/rDock_2013.1_src/data/scripts/dock_solv.prm

>  <Rbt.Receptor>
prm/pocket_docking_5.prm

>  <SCORE>
-11.229

>  <SCORE.INTER>
-11.4311

>  <SCORE.INTER.CONST>
1

>  <SCORE.INTER.POLAR>
0

>  <SCORE.INTER.ROT>
6

>  <SCORE.INTER.SOLV>
14.8142

>  <SCORE.INTER.VDW>
-20.1588

>  <SCORE.INTER.norm>
-0.439656

>  <SCORE.INTRA>
0.202033

>  <SCORE.INTRA.DIHEDRAL>
4.42598

>  <SCORE.INTRA.DIHEDRAL.0>
9.33621

>  <SCORE.INTRA.POLAR>
0

>  <SCORE.INTRA.POLAR.0>
0

>  <SCORE.INTRA.REPUL>
0

>  <SCORE.INTRA.REPUL.0>
0

>  <SCORE.INTRA.SOLV>
1.01989

>  <SCORE.INTRA.SOLV.lig_0>
-65.9238

>  <SCORE.INTRA.VDW>
-2.5209

>  <SCORE.INTRA.VDW.0>
-0.405582

>  <SCORE.INTRA.norm>
0.00777048

>  <SCORE.RESTR>
0

>  <SCORE.RESTR.CAVITY>
0

>  <SCORE.RESTR.norm>
0

>  <SCORE.SYSTEM>
0

>  <SCORE.SYSTEM.CONST>
0

>  <SCORE.SYSTEM.DIHEDRAL>
0

>  <SCORE.SYSTEM.SOLV>
0

>  <SCORE.SYSTEM.norm>
0

>  <SCORE.heavy>
26

>  <SCORE.norm>
-0.431886

>  <RMSD>
8.074

$$$$
ligand
 OpenBabel11021811443D
libRbt.so/2013.1/901 2013/11/27
 26 28  0  0  0  0  0  0  0  0999 V2000
   29.3592   38.4430   66.4099 C   0  0  0  0  0  0  0  0  0  0  0  0
   21.8202   39.4861   68.0964 C   0  0  0  0  0  0  0  0  0  0  0  0
   20.0253   43.7236   65.8021 P   0  0  1  0  0  0  0  0  0  0  0  0
   22.4431   44.3922   66.4295 P   0  0  1  0  0  0  0  0  0  0  0  0
   23.9138   37.6335   67.8625 C   0  0  0  0  0  0  0  0  0  0  0  0
   25.6879   38.4967   66.3072 C   0  0  0  0  0  0  0  0  0  0  0  0
   25.3556   37.8470   67.4793 C   0  0  0  0  0  0  0  0  0  0  0  0
   26.3891   37.3931   68.3005 C   0  0  0  0  0  0  0  0  0  0  0  0
   26.1080   36.7342   69.4881 N   0  0  0  0  0  0  0  0  0  0  0  0
   27.6482   37.5967   67.9244 N   0  0  0  0  0  0  0  0  0  0  0  0
   27.9203   38.2259   66.7996 C   0  0  0  0  0  0  0  0  0  0  0  0
   26.9674   38.6666   66.0017 N   0  0  0  0  0  0  0  0  0  0  0  0
   18.9048   44.6507   66.0786 O   0  0  0  0  0  0  0  0  0  0  0  0
   22.1473   45.1153   65.0961 O   0  0  0  0  0  0  0  0  0  0  0  0
   22.0467   37.8628   64.5389 S   0  0  0  0  0  0  0  0  0  0  0  0
   23.2870   37.2388   65.5828 C   0  0  0  0  0  0  0  0  0  0  0  0
   20.7599   44.1600   64.4391 O   0  0  0  0  0  0  0  0  0  0  0  0
   23.0608   45.4392   67.4843 O   0  5  0  0  0  0  0  0  0  0  0  0
   23.0570   37.8858   66.7019 N   0  0  0  0  0  0  0  0  0  0  0  0
   21.0777   43.7761   67.0200 O   0  0  0  0  0  0  0  0  0  0  0  0
   23.4572   43.2530   66.1816 O   0  0  0  0  0  0  0  0  0  0  0  0
   22.0724   38.7519   66.8037 C   0  0  2  0  0  0  0  0  0  0  0  0
   21.2924   38.9757   65.7156 C   0  0  2  0  0  0  0  0  0  0  0  0
   20.1161   39.9015   65.5479 C   0  0  0  0  0  0  0  0  0  0  0  0
   20.5907   41.3538   65.6346 C   0  0  0  0  0  0  0  0  0  0  0  0
   19.4576   42.2243   65.6502 O   0  0  0  0  0  0  0  0  0  0  0  0
  1 11  1  0  0  0  0
  3 13  1  1  0  0  0
  3 17  1  0  0  0  0
  3 20  1  0  0  0  0
  3 26  1  0  0  0  0
  4 14  1  0  0  0  0
  4 18  1  1  0  0  0
  4 21  2  0  0  0  0
  4 20  1  0  0  0  0
  5 19  1  0  0  0  0
  5  7  1  0  0  0  0
  6  7  2  0  0  0  0
  6 12  1  0  0  0  0
  7  8  1  0  0  0  0
  8  9  1  0  0  0  0
  8 10  2  0  0  0  0
 10 11  1  0  0  0  0
 11 12  2  0  0  0  0
 14 17  1  0  0  0  0
 15 23  1  0  0  0  0
 15 16  1  0  0  0  0
 16 19  1  0  0  0  0
 19 22  1  0  0  0  0
 22  2  1  6  0  0  0
 22 23  1  0  0  0  0
 23 24  1  1  0  0  0
 24 25  1  0  0  0  0
 25 26  1  0  0  0  0
M  CHG  1  18  -1
M  END
>  <CHROM.1>
54.52838988,14.31419162,-113.03456918,-172.52268783,177.76075980,-169.49292171
22.95103801,40.73958197,66.37644673,-0.84274452,-0.25479122,0.02367463

>  <Name>
ligand

>  <RI>
0

>  <Rbt.Current_Directory>
/home/itssahil/PROJECTS/Mol_Feturizer/New_Systems/rnas/2HOL

>  <Rbt.Executable>
rbdock ($Id: //depot/dev/client3/rdock/2013.1/src/exe/rbdock.cxx#4 $)

>  <Rbt.Library>
libRbt.so (2013.1, Build901 2013/11/27)

>  <Rbt.Parameter_File>
/export/apps/rDock/src/rDock_2013.1_src/data/scripts/dock_solv.prm

>  <Rbt.Receptor>
prm/pocket_docking_7.prm

>  <SCORE>
-25.4614

>  <SCORE.INTER>
-22.7816

>  <SCORE.INTER.CONST>
1

>  <SCORE.INTER.POLAR>
0

>  <SCORE.INTER.ROT>
6

>  <SCORE.INTER.SOLV>
21.1546

>  <SCORE.INTER.VDW>
-29.8393

>  <SCORE.INTER.norm>
-0.876217

>  <SCORE.INTRA>
-2.73043

>  <SCORE.INTRA.DIHEDRAL>
-4.34532

>  <SCORE.INTRA.DIHEDRAL.0>
9.33621

>  <SCORE.INTRA.POLAR>
0

>  <SCORE.INTRA.POLAR.0>
0

>  <SCORE.INTRA.REPUL>
0

>  <SCORE.INTRA.REPUL.0>
0

>  <SCORE.INTRA.SOLV>
0.292063

>  <SCORE.INTRA.SOLV.lig_0>
-65.9238

>  <SCORE.INTRA.VDW>
-0.703801

>  <SCORE.INTRA.VDW.0>
-0.405582

>  <SCORE.INTRA.norm>
-0.105017

>  <SCORE.RESTR>
0.0506959

>  <SCORE.RESTR.CAVITY>
0.0506959

>  <SCORE.RESTR.norm>
0.00194984

>  <SCORE.SYSTEM>
0

>  <SCORE.SYSTEM.CONST>
0

>  <SCORE.SYSTEM.DIHEDRAL>
0

>  <SCORE.SYSTEM.SOLV>
0

>  <SCORE.SYSTEM.norm>
0

>  <SCORE.heavy>
26

>  <SCORE.norm>
-0.979283

>  <RMSD>
8.111

$$$$
ligand
 OpenBabel11021811443D
libRbt.so/2013.1/901 2013/11/27
 26 28  0  0  0  0  0  0  0  0999 V2000
   30.2781   35.9311   64.5623 C   0  0  0  0  0  0  0  0  0  0  0  0
   22.9726   37.8421   65.6698 C   0  0  0  0  0  0  0  0  0  0  0  0
   22.3810   35.0672   71.7255 P   0  0  1  0  0  0  0  0  0  0  0  0
   24.6867   34.3351   72.6390 P   0  0  1  0  0  0  0  0  0  0  0  0
   25.5743   38.8794   65.8274 C   0  0  0  0  0  0  0  0  0  0  0  0
   26.8040   37.1232   64.5178 C   0  0  0  0  0  0  0  0  0  0  0  0
   26.8201   38.0997   65.4937 C   0  0  0  0  0  0  0  0  0  0  0  0
   28.0198   38.3468   66.1632 C   0  0  0  0  0  0  0  0  0  0  0  0
   28.0882   39.3169   67.1520 N   0  0  0  0  0  0  0  0  0  0  0  0
   29.0955   37.6338   65.8428 N   0  0  0  0  0  0  0  0  0  0  0  0
   29.0368   36.7144   64.9014 C   0  0  0  0  0  0  0  0  0  0  0  0
   27.9192   36.4566   64.2506 N   0  0  0  0  0  0  0  0  0  0  0  0
   21.2553   34.1062   71.6996 O   0  0  0  0  0  0  0  0  0  0  0  0
   23.8288   34.6478   73.8857 O   0  0  0  0  0  0  0  0  0  0  0  0
   24.5156   37.5844   69.2608 S   0  0  0  0  0  0  0  0  0  0  0  0
   25.6356   38.3252   68.1588 C   0  0  0  0  0  0  0  0  0  0  0  0
   22.5205   35.6916   73.2015 O   0  0  0  0  0  0  0  0  0  0  0  0
   25.3985   32.9031   72.8205 O   0  5  0  0  0  0  0  0  0  0  0  0
   24.9582   38.3231   67.0341 N   0  0  0  0  0  0  0  0  0  0  0  0
   23.7449   34.3060   71.3333 O   0  0  0  0  0  0  0  0  0  0  0  0
   25.7658   35.4283   72.4712 O   0  0  0  0  0  0  0  0  0  0  0  0
   23.7382   37.8360   66.9689 C   0  0  2  0  0  0  0  0  0  0  0  0
   23.1862   37.3204   68.0967 C   0  0  2  0  0  0  0  0  0  0  0  0
   21.8294   36.7017   68.3087 C   0  0  0  0  0  0  0  0  0  0  0  0
   21.9207   35.6258   69.3932 C   0  0  0  0  0  0  0  0  0  0  0  0
   22.1041   36.2482   70.6664 O   0  0  0  0  0  0  0  0  0  0  0  0
  1 11  1  0  0  0  0
  3 13  1  6  0  0  0
  3 17  1  0  0  0  0
  3 20  1  0  0  0  0
  3 26  1  0  0  0  0
  4 14  1  0  0  0  0
  4 18  1  1  0  0  0
  4 21  2  0  0  0  0
  4 20  1  0  0  0  0
  5 19  1  0  0  0  0
  5  7  1  0  0  0  0
  6  7  2  0  0  0  0
  6 12  1  0  0  0  0
  7  8  1  0  0  0  0
  8  9  1  0  0  0  0
  8 10  2  0  0  0  0
 10 11  1  0  0  0  0
 11 12  2  0  0  0  0
 14 17  1  0  0  0  0
 15 23  1  0  0  0  0
 15 16  1  0  0  0  0
 16 19  1  0  0  0  0
 19 22  1  0  0  0  0
 22  2  1  6  0  0  0
 22 23  1  0  0  0  0
 23 24  1  1  0  0  0
 24 25  1  0  0  0  0
 25 26  1  0  0  0  0
M  CHG  1  18  -1
M  END
>  <CHROM.1>
61.00491320,99.79419459,-31.74040482,71.59613222,-172.87122298,-56.94100556
24.84865491,36.36550900,69.04902099,-1.02685669,-0.20641947,2.09257024

>  <Name>
ligand

>  <RI>
0

>  <Rbt.Current_Directory>
/home/itssahil/PROJECTS/Mol_Feturizer/New_Systems/rnas/2HOL

>  <Rbt.Executable>
rbdock ($Id: //depot/dev/client3/rdock/2013.1/src/exe/rbdock.cxx#4 $)

>  <Rbt.Library>
libRbt.so (2013.1, Build901 2013/11/27)

>  <Rbt.Parameter_File>
/export/apps/rDock/src/rDock_2013.1_src/data/scripts/dock_solv.prm

>  <Rbt.Receptor>
prm/blind_docking_100.prm

>  <SCORE>
-18.8537

>  <SCORE.INTER>
-15.7684

>  <SCORE.INTER.CONST>
1

>  <SCORE.INTER.POLAR>
0

>  <SCORE.INTER.ROT>
6

>  <SCORE.INTER.SOLV>
11.7473

>  <SCORE.INTER.VDW>
-22.028

>  <SCORE.INTER.norm>
-0.606478

>  <SCORE.INTRA>
-3.08527

>  <SCORE.INTRA.DIHEDRAL>
-3.70387

>  <SCORE.INTRA.DIHEDRAL.0>
9.33621

>  <SCORE.INTRA.POLAR>
0

>  <SCORE.INTRA.POLAR.0>
0

>  <SCORE.INTRA.REPUL>
0

>  <SCORE.INTRA.REPUL.0>
0

>  <SCORE.INTRA.SOLV>
1.18865

>  <SCORE.INTRA.SOLV.lig_0>
-65.9238

>  <SCORE.INTRA.VDW>
-1.82766

>  <SCORE.INTRA.VDW.0>
-0.405582

>  <SCORE.INTRA.norm>
-0.118664

>  <SCORE.RESTR>
0

>  <SCORE.RESTR.CAVITY>
0

>  <SCORE.RESTR.norm>
0

>  <SCORE.SYSTEM>
0

>  <SCORE.SYSTEM.CONST>
0

>  <SCORE.SYSTEM.DIHEDRAL>
0

>  <SCORE.SYSTEM.SOLV>
0

>  <SCORE.SYSTEM.norm>
0

>  <SCORE.heavy>
26

>  <SCORE.norm>
-0.725142

>  <RMSD>
8.154

$$$$
ligand
 OpenBabel11021811443D
libRbt.so/2013.1/901 2013/11/27
 26 28  0  0  0  0  0  0  0  0999 V2000
   27.0119   38.4689   65.0195 C   0  0  0  0  0  0  0  0  0  0  0  0
   24.8699   43.6359   67.7134 C   0  0  0  0  0  0  0  0  0  0  0  0
   19.7929   42.1279   65.3930 P   0  0  1  0  0  0  0  0  0  0  0  0
   21.0692   39.9053   65.7358 P   0  0  1  0  0  0  0  0  0  0  0  0
   26.8271   44.1111   65.7607 C   0  0  0  0  0  0  0  0  0  0  0  0
   25.8516   41.9526   64.9234 C   0  0  0  0  0  0  0  0  0  0  0  0
   26.8773   42.6177   65.5653 C   0  0  0  0  0  0  0  0  0  0  0  0
   27.9624   41.8715   66.0283 C   0  0  0  0  0  0  0  0  0  0  0  0
   29.0178   42.4920   66.6798 N   0  0  0  0  0  0  0  0  0  0  0  0
   27.9666   40.5550   65.8406 N   0  0  0  0  0  0  0  0  0  0  0  0
   26.9687   39.9615   65.2185 C   0  0  0  0  0  0  0  0  0  0  0  0
   25.9293   40.6375   64.7695 N   0  0  0  0  0  0  0  0  0  0  0  0
   18.8444   42.2712   64.2653 O   0  0  0  0  0  0  0  0  0  0  0  0
   19.6617   39.6690   66.3283 O   0  0  0  0  0  0  0  0  0  0  0  0
   23.4967   45.5769   64.6007 S   0  0  0  0  0  0  0  0  0  0  0  0
   25.1872   45.2247   64.4127 C   0  0  0  0  0  0  0  0  0  0  0  0
   19.0723   41.3556   66.6063 O   0  0  0  0  0  0  0  0  0  0  0  0
   21.4514   38.6886   64.7539 O   0  5  0  0  0  0  0  0  0  0  0  0
   25.4623   44.5889   65.5280 N   0  0  0  0  0  0  0  0  0  0  0  0
   21.0781   41.2869   64.9088 O   0  0  0  0  0  0  0  0  0  0  0  0
   22.1020   39.9848   66.8823 O   0  0  0  0  0  0  0  0  0  0  0  0
   24.5385   44.3689   66.4380 C   0  0  2  0  0  0  0  0  0  0  0  0
   23.2808   44.8237   66.2063 C   0  0  2  0  0  0  0  0  0  0  0  0
   22.0460   44.7191   67.0626 C   0  0  0  0  0  0  0  0  0  0  0  0
   21.3489   43.3831   66.7953 C   0  0  0  0  0  0  0  0  0  0  0  0
   20.2635   43.5861   65.8882 O   0  0  0  0  0  0  0  0  0  0  0  0
  1 11  1  0  0  0  0
  3 13  1  6  0  0  0
  3 17  1  0  0  0  0
  3 20  1  0  0  0  0
  3 26  1  0  0  0  0
  4 14  1  0  0  0  0
  4 18  1  6  0  0  0
  4 21  2  0  0  0  0
  4 20  1  0  0  0  0
  5 19  1  0  0  0  0
  5  7  1  0  0  0  0
  6  7  2  0  0  0  0
  6 12  1  0  0  0  0
  7  8  1  0  0  0  0
  8  9  1  0  0  0  0
  8 10  2  0  0  0  0
 10 11  1  0  0  0  0
 11 12  2  0  0  0  0
 14 17  1  0  0  0  0
 15 23  1  0  0  0  0
 15 16  1  0  0  0  0
 16 19  1  0  0  0  0
 19 22  1  0  0  0  0
 22  2  1  1  0  0  0
 22 23  1  0  0  0  0
 23 24  1  6  0  0  0
 24 25  1  0  0  0  0
 25 26  1  0  0  0  0
M  CHG  1  18  -1
M  END
>  <CHROM.1>
-105.06224293,15.41332258,94.12451497,-99.09788225,167.44112088,-169.53691072
23.31444578,42.19998147,65.68661744,-0.13264519,0.00084303,-3.11959775

>  <Name>
ligand

>  <RI>
0

>  <Rbt.Current_Directory>
/home/itssahil/PROJECTS/Mol_Feturizer/New_Systems/rnas/2HOL

>  <Rbt.Executable>
rbdock ($Id: //depot/dev/client3/rdock/2013.1/src/exe/rbdock.cxx#4 $)

>  <Rbt.Library>
libRbt.so (2013.1, Build901 2013/11/27)

>  <Rbt.Parameter_File>
/export/apps/rDock/src/rDock_2013.1_src/data/scripts/dock_solv.prm

>  <Rbt.Receptor>
prm/pocket_docking_6.prm

>  <SCORE>
-13.1087

>  <SCORE.INTER>
-11.757

>  <SCORE.INTER.CONST>
1

>  <SCORE.INTER.POLAR>
0

>  <SCORE.INTER.ROT>
6

>  <SCORE.INTER.SOLV>
17.6533

>  <SCORE.INTER.VDW>
-21.3224

>  <SCORE.INTER.norm>
-0.452191

>  <SCORE.INTRA>
-1.35173

>  <SCORE.INTRA.DIHEDRAL>
0.393407

>  <SCORE.INTRA.DIHEDRAL.0>
9.33621

>  <SCORE.INTRA.POLAR>
0

>  <SCORE.INTRA.POLAR.0>
0

>  <SCORE.INTRA.REPUL>
0

>  <SCORE.INTRA.REPUL.0>
0

>  <SCORE.INTRA.SOLV>
0.66602

>  <SCORE.INTRA.SOLV.lig_0>
-65.9238

>  <SCORE.INTRA.VDW>
-1.88144

>  <SCORE.INTRA.VDW.0>
-0.405582

>  <SCORE.INTRA.norm>
-0.0519895

>  <SCORE.RESTR>
0

>  <SCORE.RESTR.CAVITY>
0

>  <SCORE.RESTR.norm>
0

>  <SCORE.SYSTEM>
0

>  <SCORE.SYSTEM.CONST>
0

>  <SCORE.SYSTEM.DIHEDRAL>
0

>  <SCORE.SYSTEM.SOLV>
0

>  <SCORE.SYSTEM.norm>
0

>  <SCORE.heavy>
26

>  <SCORE.norm>
-0.50418

>  <RMSD>
8.179

$$$$
ligand
 OpenBabel11021811443D
libRbt.so/2013.1/901 2013/11/27
 26 28  0  0  0  0  0  0  0  0999 V2000
   28.2902   39.9999   71.8135 C   0  0  0  0  0  0  0  0  0  0  0  0
   23.4921   38.9021   65.8307 C   0  0  0  0  0  0  0  0  0  0  0  0
   20.3404   43.8204   65.8239 P   0  0  1  0  0  0  0  0  0  0  0  0
   22.6057   44.7805   66.6195 P   0  0  1  0  0  0  0  0  0  0  0  0
   24.7367   37.6713   68.0228 C   0  0  0  0  0  0  0  0  0  0  0  0
   26.3064   39.4871   68.7649 C   0  0  0  0  0  0  0  0  0  0  0  0
   25.6771   38.2864   69.0270 C   0  0  0  0  0  0  0  0  0  0  0  0
   25.9338   37.6568   70.2462 C   0  0  0  0  0  0  0  0  0  0  0  0
   25.3272   36.4490   70.5572 N   0  0  0  0  0  0  0  0  0  0  0  0
   26.7737   38.2297   71.1033 N   0  0  0  0  0  0  0  0  0  0  0  0
   27.3490   39.3789   70.8145 C   0  0  0  0  0  0  0  0  0  0  0  0
   27.1279   39.9989   69.6718 N   0  0  0  0  0  0  0  0  0  0  0  0
   19.1221   44.6602   65.8716 O   0  0  0  0  0  0  0  0  0  0  0  0
   22.4060   45.3258   65.1874 O   0  0  0  0  0  0  0  0  0  0  0  0
   21.2955   38.9519   69.0733 S   0  0  0  0  0  0  0  0  0  0  0  0
   22.8146   38.1625   69.3682 C   0  0  0  0  0  0  0  0  0  0  0  0
   21.1879   44.1777   64.5041 O   0  0  0  0  0  0  0  0  0  0  0  0
   23.0086   45.9881   67.6043 O   0  5  0  0  0  0  0  0  0  0  0  0
   23.3981   38.2400   68.1945 N   0  0  0  0  0  0  0  0  0  0  0  0
   21.2376   44.1028   67.1311 O   0  0  0  0  0  0  0  0  0  0  0  0
   23.7330   43.7237   66.6137 O   0  0  0  0  0  0  0  0  0  0  0  0
   22.8082   38.8199   67.1721 C   0  0  2  0  0  0  0  0  0  0  0  0
   21.5656   39.3367   67.3497 C   0  0  2  0  0  0  0  0  0  0  0  0
   20.6665   40.0416   66.3682 C   0  0  0  0  0  0  0  0  0  0  0  0
   21.0218   41.5296   66.3252 C   0  0  0  0  0  0  0  0  0  0  0  0
   19.9209   42.2661   65.7888 O   0  0  0  0  0  0  0  0  0  0  0  0
  1 11  1  0  0  0  0
  3 13  1  1  0  0  0
  3 17  1  0  0  0  0
  3 20  1  0  0  0  0
  3 26  1  0  0  0  0
  4 14  1  0  0  0  0
  4 18  1  1  0  0  0
  4 21  2  0  0  0  0
  4 20  1  0  0  0  0
  5 19  1  0  0  0  0
  5  7  1  0  0  0  0
  6  7  2  0  0  0  0
  6 12  1  0  0  0  0
  7  8  1  0  0  0  0
  8  9  1  0  0  0  0
  8 10  2  0  0  0  0
 10 11  1  0  0  0  0
 11 12  2  0  0  0  0
 14 17  1  0  0  0  0
 15 23  1  0  0  0  0
 15 16  1  0  0  0  0
 16 19  1  0  0  0  0
 19 22  1  0  0  0  0
 22  2  1  6  0  0  0
 22 23  1  0  0  0  0
 23 24  1  1  0  0  0
 24 25  1  0  0  0  0
 25 26  1  0  0  0  0
M  CHG  1  18  -1
M  END
>  <CHROM.1>
-56.24465745,-85.03968921,94.55625300,-159.86207528,177.93067205,-154.98566346
23.05229388,41.15672320,67.70482265,-0.89844011,-0.48395271,-0.24520530

>  <Name>
ligand

>  <RI>
0

>  <Rbt.Current_Directory>
/home/itssahil/PROJECTS/Mol_Feturizer/New_Systems/rnas/2HOL

>  <Rbt.Executable>
rbdock ($Id: //depot/dev/client3/rdock/2013.1/src/exe/rbdock.cxx#4 $)

>  <Rbt.Library>
libRbt.so (2013.1, Build901 2013/11/27)

>  <Rbt.Parameter_File>
/export/apps/rDock/src/rDock_2013.1_src/data/scripts/dock_solv.prm

>  <Rbt.Receptor>
prm/pocket_docking_7.prm

>  <SCORE>
-23.0061

>  <SCORE.INTER>
-21.0892

>  <SCORE.INTER.CONST>
1

>  <SCORE.INTER.POLAR>
0

>  <SCORE.INTER.ROT>
6

>  <SCORE.INTER.SOLV>
19.5233

>  <SCORE.INTER.VDW>
-28.1672

>  <SCORE.INTER.norm>
-0.811122

>  <SCORE.INTRA>
-1.94605

>  <SCORE.INTRA.DIHEDRAL>
-2.25268

>  <SCORE.INTRA.DIHEDRAL.0>
9.33621

>  <SCORE.INTRA.POLAR>
0

>  <SCORE.INTRA.POLAR.0>
0

>  <SCORE.INTRA.REPUL>
0

>  <SCORE.INTRA.REPUL.0>
0

>  <SCORE.INTRA.SOLV>
1.18407

>  <SCORE.INTRA.SOLV.lig_0>
-65.9238

>  <SCORE.INTRA.VDW>
-1.41174

>  <SCORE.INTRA.VDW.0>
-0.405582

>  <SCORE.INTRA.norm>
-0.0748479

>  <SCORE.RESTR>
0.0290781

>  <SCORE.RESTR.CAVITY>
0.0290781

>  <SCORE.RESTR.norm>
0.00111839

>  <SCORE.SYSTEM>
0

>  <SCORE.SYSTEM.CONST>
0

>  <SCORE.SYSTEM.DIHEDRAL>
0

>  <SCORE.SYSTEM.SOLV>
0

>  <SCORE.SYSTEM.norm>
0

>  <SCORE.heavy>
26

>  <SCORE.norm>
-0.884852

>  <RMSD>
8.180

$$$$
ligand
 OpenBabel11021811443D
libRbt.so/2013.1/901 2013/11/27
 26 28  0  0  0  0  0  0  0  0999 V2000
   28.2901   39.9955   71.8528 C   0  0  0  0  0  0  0  0  0  0  0  0
   23.5700   38.9338   65.8369 C   0  0  0  0  0  0  0  0  0  0  0  0
   20.3546   43.8017   65.8477 P   0  0  1  0  0  0  0  0  0  0  0  0
   22.6252   44.7748   66.6118 P   0  0  1  0  0  0  0  0  0  0  0  0
   24.7984   37.6565   68.0115 C   0  0  0  0  0  0  0  0  0  0  0  0
   26.3485   39.4790   68.7778 C   0  0  0  0  0  0  0  0  0  0  0  0
   25.7224   38.2744   69.0291 C   0  0  0  0  0  0  0  0  0  0  0  0
   25.9668   37.6434   70.2501 C   0  0  0  0  0  0  0  0  0  0  0  0
   25.3627   36.4317   70.5506 N   0  0  0  0  0  0  0  0  0  0  0  0
   26.7925   38.2188   71.1192 N   0  0  0  0  0  0  0  0  0  0  0  0
   27.3652   39.3718   70.8404 C   0  0  0  0  0  0  0  0  0  0  0  0
   27.1555   39.9931   69.6963 N   0  0  0  0  0  0  0  0  0  0  0  0
   19.1384   44.6450   65.8807 O   0  0  0  0  0  0  0  0  0  0  0  0
   22.4209   45.2872   65.1682 O   0  0  0  0  0  0  0  0  0  0  0  0
   21.3266   38.8648   69.0469 S   0  0  0  0  0  0  0  0  0  0  0  0
   22.8510   38.0859   69.3417 C   0  0  0  0  0  0  0  0  0  0  0  0
   21.1976   44.1262   64.5165 O   0  0  0  0  0  0  0  0  0  0  0  0
   23.0346   46.0041   67.5666 O   0  5  0  0  0  0  0  0  0  0  0  0
   23.4503   38.2037   68.1795 N   0  0  0  0  0  0  0  0  0  0  0  0
   21.2577   44.1123   67.1444 O   0  0  0  0  0  0  0  0  0  0  0  0
   23.7502   43.7157   66.6260 O   0  0  0  0  0  0  0  0  0  0  0  0
   22.8680   38.8053   67.1652 C   0  0  2  0  0  0  0  0  0  0  0  0
   21.6166   39.3016   67.3390 C   0  0  2  0  0  0  0  0  0  0  0  0
   20.7229   40.0232   66.3646 C   0  0  0  0  0  0  0  0  0  0  0  0
   21.0344   41.5212   66.3962 C   0  0  0  0  0  0  0  0  0  0  0  0
   19.9316   42.2479   65.8504 O   0  0  0  0  0  0  0  0  0  0  0  0
  1 11  1  0  0  0  0
  3 13  1  1  0  0  0
  3 17  1  0  0  0  0
  3 20  1  0  0  0  0
  3 26  1  0  0  0  0
  4 14  1  0  0  0  0
  4 18  1  1  0  0  0
  4 21  2  0  0  0  0
  4 20  1  0  0  0  0
  5 19  1  0  0  0  0
  5  7  1  0  0  0  0
  6  7  2  0  0  0  0
  6 12  1  0  0  0  0
  7  8  1  0  0  0  0
  8  9  1  0  0  0  0
  8 10  2  0  0  0  0
 10 11  1  0  0  0  0
 11 12  2  0  0  0  0
 14 17  1  0  0  0  0
 15 23  1  0  0  0  0
 15 16  1  0  0  0  0
 16 19  1  0  0  0  0
 19 22  1  0  0  0  0
 22  2  1  6  0  0  0
 22 23  1  0  0  0  0
 23 24  1  1  0  0  0
 24 25  1  0  0  0  0
 25 26  1  0  0  0  0
M  CHG  1  18  -1
M  END
>  <CHROM.1>
-57.34254986,-85.82586730,93.05287602,-160.40900819,-177.28432484,-155.13109710
23.08138931,41.13664049,67.71012382,-0.89839818,-0.48479950,-0.24262945

>  <Name>
ligand

>  <RI>
0

>  <Rbt.Current_Directory>
/home/itssahil/PROJECTS/Mol_Feturizer/New_Systems/rnas/2HOL

>  <Rbt.Executable>
rbdock ($Id: //depot/dev/client3/rdock/2013.1/src/exe/rbdock.cxx#4 $)

>  <Rbt.Library>
libRbt.so (2013.1, Build901 2013/11/27)

>  <Rbt.Parameter_File>
/export/apps/rDock/src/rDock_2013.1_src/data/scripts/dock_solv.prm

>  <Rbt.Receptor>
prm/pocket_docking_6.prm

>  <SCORE>
-23.0152

>  <SCORE.INTER>
-21.0584

>  <SCORE.INTER.CONST>
1

>  <SCORE.INTER.POLAR>
0

>  <SCORE.INTER.ROT>
6

>  <SCORE.INTER.SOLV>
19.3077

>  <SCORE.INTER.VDW>
-28.0748

>  <SCORE.INTER.norm>
-0.809938

>  <SCORE.INTRA>
-1.97679

>  <SCORE.INTRA.DIHEDRAL>
-2.29183

>  <SCORE.INTRA.DIHEDRAL.0>
9.33621

>  <SCORE.INTRA.POLAR>
0

>  <SCORE.INTRA.POLAR.0>
0

>  <SCORE.INTRA.REPUL>
0

>  <SCORE.INTRA.REPUL.0>
0

>  <SCORE.INTRA.SOLV>
1.23549

>  <SCORE.INTRA.SOLV.lig_0>
-65.9238

>  <SCORE.INTRA.VDW>
-1.44862

>  <SCORE.INTRA.VDW.0>
-0.405582

>  <SCORE.INTRA.norm>
-0.0760303

>  <SCORE.RESTR>
0.020007

>  <SCORE.RESTR.CAVITY>
0.020007

>  <SCORE.RESTR.norm>
0.000769498

>  <SCORE.SYSTEM>
0

>  <SCORE.SYSTEM.CONST>
0

>  <SCORE.SYSTEM.DIHEDRAL>
0

>  <SCORE.SYSTEM.SOLV>
0

>  <SCORE.SYSTEM.norm>
0

>  <SCORE.heavy>
26

>  <SCORE.norm>
-0.885198

>  <RMSD>
8.181

$$$$
ligand
 OpenBabel11021811443D
libRbt.so/2013.1/901 2013/11/27
 26 28  0  0  0  0  0  0  0  0999 V2000
   28.2495   40.0557   71.7853 C   0  0  0  0  0  0  0  0  0  0  0  0
   23.5276   38.8939   65.8103 C   0  0  0  0  0  0  0  0  0  0  0  0
   20.3179   43.8030   65.8014 P   0  0  1  0  0  0  0  0  0  0  0  0
   22.5690   44.7821   66.6142 P   0  0  1  0  0  0  0  0  0  0  0  0
   24.7338   37.6426   68.0123 C   0  0  0  0  0  0  0  0  0  0  0  0
   26.2780   39.4864   68.7388 C   0  0  0  0  0  0  0  0  0  0  0  0
   25.6642   38.2802   69.0119 C   0  0  0  0  0  0  0  0  0  0  0  0
   25.9271   37.6662   70.2377 C   0  0  0  0  0  0  0  0  0  0  0  0
   25.3361   36.4536   70.5597 N   0  0  0  0  0  0  0  0  0  0  0  0
   26.7579   38.2586   71.0904 N   0  0  0  0  0  0  0  0  0  0  0  0
   27.3184   39.4124   70.7910 C   0  0  0  0  0  0  0  0  0  0  0  0
   27.0911   40.0180   69.6418 N   0  0  0  0  0  0  0  0  0  0  0  0
   19.0992   44.6434   65.8075 O   0  0  0  0  0  0  0  0  0  0  0  0
   22.3949   45.2933   65.1663 O   0  0  0  0  0  0  0  0  0  0  0  0
   21.2714   38.9064   69.0121 S   0  0  0  0  0  0  0  0  0  0  0  0
   22.7862   38.1167   69.3269 C   0  0  0  0  0  0  0  0  0  0  0  0
   21.1888   44.1290   64.4888 O   0  0  0  0  0  0  0  0  0  0  0  0
   22.9545   46.0128   67.5772 O   0  5  0  0  0  0  0  0  0  0  0  0
   23.3911   38.2072   68.1651 N   0  0  0  0  0  0  0  0  0  0  0  0
   21.1918   44.1165   67.1173 O   0  0  0  0  0  0  0  0  0  0  0  0
   23.6960   43.7257   66.6535 O   0  0  0  0  0  0  0  0  0  0  0  0
   22.8192   38.7967   67.1379 C   0  0  2  0  0  0  0  0  0  0  0  0
   21.5725   39.3094   67.2978 C   0  0  2  0  0  0  0  0  0  0  0  0
   20.6904   40.0230   66.3071 C   0  0  0  0  0  0  0  0  0  0  0  0
   21.0099   41.5196   66.3215 C   0  0  0  0  0  0  0  0  0  0  0  0
   19.8988   42.2482   65.7957 O   0  0  0  0  0  0  0  0  0  0  0  0
  1 11  1  0  0  0  0
  3 13  1  1  0  0  0
  3 17  1  0  0  0  0
  3 20  1  0  0  0  0
  3 26  1  0  0  0  0
  4 14  1  0  0  0  0
  4 18  1  1  0  0  0
  4 21  2  0  0  0  0
  4 20  1  0  0  0  0
  5 19  1  0  0  0  0
  5  7  1  0  0  0  0
  6  7  2  0  0  0  0
  6 12  1  0  0  0  0
  7  8  1  0  0  0  0
  8  9  1  0  0  0  0
  8 10  2  0  0  0  0
 10 11  1  0  0  0  0
 11 12  2  0  0  0  0
 14 17  1  0  0  0  0
 15 23  1  0  0  0  0
 15 16  1  0  0  0  0
 16 19  1  0  0  0  0
 19 22  1  0  0  0  0
 22  2  1  6  0  0  0
 22 23  1  0  0  0  0
 23 24  1  1  0  0  0
 24 25  1  0  0  0  0
 25 26  1  0  0  0  0
M  CHG  1  18  -1
M  END
>  <CHROM.1>
-57.98621328,-84.34118329,92.59095485,-158.63831485,-178.43157884,-157.15322603
23.03457158,41.14790467,67.68208524,-0.89468381,-0.49102937,-0.23723764

>  <Name>
ligand

>  <RI>
0

>  <Rbt.Current_Directory>
/home/itssahil/PROJECTS/Mol_Feturizer/New_Systems/rnas/2HOL

>  <Rbt.Executable>
rbdock ($Id: //depot/dev/client3/rdock/2013.1/src/exe/rbdock.cxx#4 $)

>  <Rbt.Library>
libRbt.so (2013.1, Build901 2013/11/27)

>  <Rbt.Parameter_File>
/export/apps/rDock/src/rDock_2013.1_src/data/scripts/dock_solv.prm

>  <Rbt.Receptor>
prm/pocket_docking_8.prm

>  <SCORE>
-22.9116

>  <SCORE.INTER>
-20.8394

>  <SCORE.INTER.CONST>
1

>  <SCORE.INTER.POLAR>
0

>  <SCORE.INTER.ROT>
6

>  <SCORE.INTER.SOLV>
19.5637

>  <SCORE.INTER.VDW>
-28.0142

>  <SCORE.INTER.norm>
-0.801514

>  <SCORE.INTRA>
-2.0722

>  <SCORE.INTRA.DIHEDRAL>
-2.20481

>  <SCORE.INTRA.DIHEDRAL.0>
9.33621

>  <SCORE.INTRA.POLAR>
0

>  <SCORE.INTRA.POLAR.0>
0

>  <SCORE.INTRA.REPUL>
0

>  <SCORE.INTRA.REPUL.0>
0

>  <SCORE.INTRA.SOLV>
1.16034

>  <SCORE.INTRA.SOLV.lig_0>
-65.9238

>  <SCORE.INTRA.VDW>
-1.54997

>  <SCORE.INTRA.VDW.0>
-0.405582

>  <SCORE.INTRA.norm>
-0.0797001

>  <SCORE.RESTR>
0

>  <SCORE.RESTR.CAVITY>
0

>  <SCORE.RESTR.norm>
0

>  <SCORE.SYSTEM>
0

>  <SCORE.SYSTEM.CONST>
0

>  <SCORE.SYSTEM.DIHEDRAL>
0

>  <SCORE.SYSTEM.SOLV>
0

>  <SCORE.SYSTEM.norm>
0

>  <SCORE.heavy>
26

>  <SCORE.norm>
-0.881214

>  <RMSD>
8.181

$$$$
ligand
 OpenBabel11021811443D
libRbt.so/2013.1/901 2013/11/27
 26 28  0  0  0  0  0  0  0  0999 V2000
   28.1775   41.2098   70.9143 C   0  0  0  0  0  0  0  0  0  0  0  0
   22.6963   38.3074   69.0829 C   0  0  0  0  0  0  0  0  0  0  0  0
   19.9072   43.1872   65.9686 P   0  0  1  0  0  0  0  0  0  0  0  0
   22.0899   44.5737   65.9765 P   0  0  1  0  0  0  0  0  0  0  0  0
   25.1350   37.2221   68.2199 C   0  0  0  0  0  0  0  0  0  0  0  0
   25.9289   38.3690   70.3094 C   0  0  0  0  0  0  0  0  0  0  0  0
   25.9407   38.2782   68.9317 C   0  0  0  0  0  0  0  0  0  0  0  0
   26.7184   39.1892   68.2149 C   0  0  0  0  0  0  0  0  0  0  0  0
   26.7639   39.1404   66.8296 N   0  0  0  0  0  0  0  0  0  0  0  0
   27.4110   40.1091   68.8800 N   0  0  0  0  0  0  0  0  0  0  0  0
   27.3746   40.1569   70.1958 C   0  0  0  0  0  0  0  0  0  0  0  0
   26.6500   39.3113   70.9021 N   0  0  0  0  0  0  0  0  0  0  0  0
   18.5955   43.8700   66.0391 O   0  0  0  0  0  0  0  0  0  0  0  0
   21.5637   44.6399   64.5250 O   0  0  0  0  0  0  0  0  0  0  0  0
   23.2911   38.7299   65.2346 S   0  0  0  0  0  0  0  0  0  0  0  0
   24.6256   37.9039   65.9789 C   0  0  0  0  0  0  0  0  0  0  0  0
   20.4485   43.2184   64.4541 O   0  0  0  0  0  0  0  0  0  0  0  0
   22.4543   46.0565   66.4853 O   0  5  0  0  0  0  0  0  0  0  0  0
   24.2546   37.8585   67.2376 N   0  0  0  0  0  0  0  0  0  0  0  0
   20.9565   43.9415   66.9297 O   0  0  0  0  0  0  0  0  0  0  0  0
   23.3553   43.6882   66.0239 O   0  0  0  0  0  0  0  0  0  0  0  0
   23.1090   38.3686   67.6338 C   0  0  2  0  0  0  0  0  0  0  0  0
   22.3090   38.9586   66.7094 C   0  0  2  0  0  0  0  0  0  0  0  0
   20.9658   39.6186   66.8790 C   0  0  0  0  0  0  0  0  0  0  0  0
   21.0475   41.0740   66.4131 C   0  0  0  0  0  0  0  0  0  0  0  0
   19.7443   41.6591   66.4497 O   0  0  0  0  0  0  0  0  0  0  0  0
  1 11  1  0  0  0  0
  3 13  1  1  0  0  0
  3 17  1  0  0  0  0
  3 20  1  0  0  0  0
  3 26  1  0  0  0  0
  4 14  1  0  0  0  0
  4 18  1  1  0  0  0
  4 21  2  0  0  0  0
  4 20  1  0  0  0  0
  5 19  1  0  0  0  0
  5  7  1  0  0  0  0
  6  7  2  0  0  0  0
  6 12  1  0  0  0  0
  7  8  1  0  0  0  0
  8  9  1  0  0  0  0
  8 10  2  0  0  0  0
 10 11  1  0  0  0  0
 11 12  2  0  0  0  0
 14 17  1  0  0  0  0
 15 23  1  0  0  0  0
 15 16  1  0  0  0  0
 16 19  1  0  0  0  0
 19 22  1  0  0  0  0
 22  2  1  1  0  0  0
 22 23  1  0  0  0  0
 23 24  1  6  0  0  0
 24 25  1  0  0  0  0
 25 26  1  0  0  0  0
M  CHG  1  18  -1
M  END
>  <CHROM.1>
98.01109500,125.01519954,-59.01754546,174.29718283,179.26171580,-177.60293989
23.17688842,41.05383348,67.08925466,-0.65004331,-0.54442257,0.02853814

>  <Name>
ligand

>  <RI>
0

>  <Rbt.Current_Directory>
/home/itssahil/PROJECTS/Mol_Feturizer/New_Systems/rnas/2HOL

>  <Rbt.Executable>
rbdock ($Id: //depot/dev/client3/rdock/2013.1/src/exe/rbdock.cxx#4 $)

>  <Rbt.Library>
libRbt.so (2013.1, Build901 2013/11/27)

>  <Rbt.Parameter_File>
/export/apps/rDock/src/rDock_2013.1_src/data/scripts/dock_solv.prm

>  <Rbt.Receptor>
prm/pocket_docking_4.prm

>  <SCORE>
-15.9353

>  <SCORE.INTER>
-13.8105

>  <SCORE.INTER.CONST>
1

>  <SCORE.INTER.POLAR>
0

>  <SCORE.INTER.ROT>
6

>  <SCORE.INTER.SOLV>
17.8281

>  <SCORE.INTER.VDW>
-22.7497

>  <SCORE.INTER.norm>
-0.531171

>  <SCORE.INTRA>
-2.22931

>  <SCORE.INTRA.DIHEDRAL>
-4.03824

>  <SCORE.INTRA.DIHEDRAL.0>
9.33621

>  <SCORE.INTRA.POLAR>
0

>  <SCORE.INTRA.POLAR.0>
0

>  <SCORE.INTRA.REPUL>
0

>  <SCORE.INTRA.REPUL.0>
0

>  <SCORE.INTRA.SOLV>
2.51437

>  <SCORE.INTRA.SOLV.lig_0>
-65.9238

>  <SCORE.INTRA.VDW>
-1.46737

>  <SCORE.INTRA.VDW.0>
-0.405582

>  <SCORE.INTRA.norm>
-0.0857426

>  <SCORE.RESTR>
0.104436

>  <SCORE.RESTR.CAVITY>
0.104436

>  <SCORE.RESTR.norm>
0.00401678

>  <SCORE.SYSTEM>
0

>  <SCORE.SYSTEM.CONST>
0

>  <SCORE.SYSTEM.DIHEDRAL>
0

>  <SCORE.SYSTEM.SOLV>
0

>  <SCORE.SYSTEM.norm>
0

>  <SCORE.heavy>
26

>  <SCORE.norm>
-0.612897

>  <RMSD>
8.198

$$$$
ligand
 OpenBabel11021811443D
libRbt.so/2013.1/901 2013/11/27
 26 28  0  0  0  0  0  0  0  0999 V2000
   23.0889   36.4175   70.0215 C   0  0  0  0  0  0  0  0  0  0  0  0
   23.6570   41.2684   65.0086 C   0  0  0  0  0  0  0  0  0  0  0  0
   19.4979   42.2295   65.4125 P   0  0  1  0  0  0  0  0  0  0  0  0
   18.4688   39.9344   64.8124 P   0  0  1  0  0  0  0  0  0  0  0  0
   25.6867   40.1342   66.5782 C   0  0  0  0  0  0  0  0  0  0  0  0
   23.6314   39.1830   67.6656 C   0  0  0  0  0  0  0  0  0  0  0  0
   25.0004   39.1498   67.4900 C   0  0  0  0  0  0  0  0  0  0  0  0
   25.7329   38.1811   68.1782 C   0  0  0  0  0  0  0  0  0  0  0  0
   27.1105   38.1062   68.0363 N   0  0  0  0  0  0  0  0  0  0  0  0
   25.0906   37.3340   68.9771 N   0  0  0  0  0  0  0  0  0  0  0  0
   23.7818   37.3982   69.1118 C   0  0  0  0  0  0  0  0  0  0  0  0
   23.0613   38.3013   68.4761 N   0  0  0  0  0  0  0  0  0  0  0  0
   18.6186   43.3970   65.6477 O   0  0  0  0  0  0  0  0  0  0  0  0
   18.3283   40.0618   66.3461 O   0  0  0  0  0  0  0  0  0  0  0  0
   24.9158   43.6514   67.8510 S   0  0  0  0  0  0  0  0  0  0  0  0
   25.7731   42.1411   67.8862 C   0  0  0  0  0  0  0  0  0  0  0  0
   19.5587   41.3261   66.7422 O   0  0  0  0  0  0  0  0  0  0  0  0
   17.0585   39.4886   64.1777 O   0  5  0  0  0  0  0  0  0  0  0  0
   25.2255   41.4896   66.8864 N   0  0  0  0  0  0  0  0  0  0  0  0
   18.9120   41.3538   64.1945 O   0  0  0  0  0  0  0  0  0  0  0  0
   19.5406   38.8716   64.4817 O   0  0  0  0  0  0  0  0  0  0  0  0
   24.2752   42.0291   66.1545 C   0  0  2  0  0  0  0  0  0  0  0  0
   23.8578   43.2843   66.4589 C   0  0  2  0  0  0  0  0  0  0  0  0
   22.8001   44.1330   65.8032 C   0  0  0  0  0  0  0  0  0  0  0  0
   21.4159   43.5639   66.1226 C   0  0  0  0  0  0  0  0  0  0  0  0
   20.9796   42.7387   65.0406 O   0  0  0  0  0  0  0  0  0  0  0  0
  1 11  1  0  0  0  0
  3 13  1  1  0  0  0
  3 17  1  0  0  0  0
  3 20  1  0  0  0  0
  3 26  1  0  0  0  0
  4 14  1  0  0  0  0
  4 18  1  6  0  0  0
  4 21  2  0  0  0  0
  4 20  1  0  0  0  0
  5 19  1  0  0  0  0
  5  7  1  0  0  0  0
  6  7  2  0  0  0  0
  6 12  1  0  0  0  0
  7  8  1  0  0  0  0
  8  9  1  0  0  0  0
  8 10  2  0  0  0  0
 10 11  1  0  0  0  0
 11 12  2  0  0  0  0
 14 17  1  0  0  0  0
 15 23  1  0  0  0  0
 15 16  1  0  0  0  0
 16 19  1  0  0  0  0
 19 22  1  0  0  0  0
 22  2  1  1  0  0  0
 22 23  1  0  0  0  0
 23 24  1  6  0  0  0
 24 25  1  0  0  0  0
 25 26  1  0  0  0  0
M  CHG  1  18  -1
M  END
>  <CHROM.1>
82.34852425,48.86267245,-108.95859122,-96.92983703,-177.53533930,57.06390249
22.13943670,40.77597838,66.52564080,0.33332512,0.36540229,2.86226641

>  <Name>
ligand

>  <RI>
0

>  <Rbt.Current_Directory>
/home/itssahil/PROJECTS/Mol_Feturizer/New_Systems/rnas/2HOL

>  <Rbt.Executable>
rbdock ($Id: //depot/dev/client3/rdock/2013.1/src/exe/rbdock.cxx#4 $)

>  <Rbt.Library>
libRbt.so (2013.1, Build901 2013/11/27)

>  <Rbt.Parameter_File>
/export/apps/rDock/src/rDock_2013.1_src/data/scripts/dock_solv.prm

>  <Rbt.Receptor>
prm/pocket_docking_4.prm

>  <SCORE>
-16.9002

>  <SCORE.INTER>
-14.6964

>  <SCORE.INTER.CONST>
1

>  <SCORE.INTER.POLAR>
0

>  <SCORE.INTER.ROT>
6

>  <SCORE.INTER.SOLV>
25.0347

>  <SCORE.INTER.VDW>
-25.7425

>  <SCORE.INTER.norm>
-0.565246

>  <SCORE.INTRA>
-2.20377

>  <SCORE.INTRA.DIHEDRAL>
-0.931679

>  <SCORE.INTRA.DIHEDRAL.0>
9.33621

>  <SCORE.INTRA.POLAR>
0

>  <SCORE.INTRA.POLAR.0>
0

>  <SCORE.INTRA.REPUL>
0

>  <SCORE.INTRA.REPUL.0>
0

>  <SCORE.INTRA.SOLV>
-0.21406

>  <SCORE.INTRA.SOLV.lig_0>
-65.9238

>  <SCORE.INTRA.VDW>
-1.6309

>  <SCORE.INTRA.VDW.0>
-0.405582

>  <SCORE.INTRA.norm>
-0.0847603

>  <SCORE.RESTR>
0

>  <SCORE.RESTR.CAVITY>
0

>  <SCORE.RESTR.norm>
0

>  <SCORE.SYSTEM>
0

>  <SCORE.SYSTEM.CONST>
0

>  <SCORE.SYSTEM.DIHEDRAL>
0

>  <SCORE.SYSTEM.SOLV>
0

>  <SCORE.SYSTEM.norm>
0

>  <SCORE.heavy>
26

>  <SCORE.norm>
-0.650006

>  <RMSD>
8.214

$$$$
ligand
 OpenBabel11021811443D
libRbt.so/2013.1/901 2013/11/27
 26 28  0  0  0  0  0  0  0  0999 V2000
   27.6591   38.4836   74.2438 C   0  0  0  0  0  0  0  0  0  0  0  0
   25.0956   38.9244   67.6192 C   0  0  0  0  0  0  0  0  0  0  0  0
   22.7540   42.8468   66.6684 P   0  0  1  0  0  0  0  0  0  0  0  0
   23.3572   45.3556   66.4999 P   0  0  1  0  0  0  0  0  0  0  0  0
   25.5186   36.7018   69.2777 C   0  0  0  0  0  0  0  0  0  0  0  0
   26.6718   38.4167   70.7065 C   0  0  0  0  0  0  0  0  0  0  0  0
   26.0848   37.1721   70.5928 C   0  0  0  0  0  0  0  0  0  0  0  0
   26.0288   36.3605   71.7272 C   0  0  0  0  0  0  0  0  0  0  0  0
   25.4501   35.1017   71.6653 N   0  0  0  0  0  0  0  0  0  0  0  0
   26.5442   36.8101   72.8676 N   0  0  0  0  0  0  0  0  0  0  0  0
   27.0910   38.0067   72.9326 C   0  0  0  0  0  0  0  0  0  0  0  0
   27.1599   38.7974   71.8795 N   0  0  0  0  0  0  0  0  0  0  0  0
   23.1434   41.9168   65.5843 O   0  0  0  0  0  0  0  0  0  0  0  0
   24.6459   44.6524   66.9822 O   0  0  0  0  0  0  0  0  0  0  0  0
   21.8022   37.5813   69.2599 S   0  0  0  0  0  0  0  0  0  0  0  0
   23.1707   36.6335   69.7561 C   0  0  0  0  0  0  0  0  0  0  0  0
   24.0106   43.0934   67.6420 O   0  0  0  0  0  0  0  0  0  0  0  0
   23.7040   46.3274   65.2647 O   0  5  0  0  0  0  0  0  0  0  0  0
   24.1578   37.2192   69.1185 N   0  0  0  0  0  0  0  0  0  0  0  0
   22.2863   44.2491   66.0294 O   0  0  0  0  0  0  0  0  0  0  0  0
   22.7626   46.1880   67.6580 O   0  0  0  0  0  0  0  0  0  0  0  0
   23.9512   38.2618   68.3438 C   0  0  2  0  0  0  0  0  0  0  0  0
   22.6823   38.7236   68.2051 C   0  0  2  0  0  0  0  0  0  0  0  0
   22.1618   39.8795   67.3916 C   0  0  0  0  0  0  0  0  0  0  0  0
   22.0830   41.1300   68.2702 C   0  0  0  0  0  0  0  0  0  0  0  0
   21.5380   42.2111   67.5111 O   0  0  0  0  0  0  0  0  0  0  0  0
  1 11  1  0  0  0  0
  3 13  1  6  0  0  0
  3 17  1  0  0  0  0
  3 20  1  0  0  0  0
  3 26  1  0  0  0  0
  4 14  1  0  0  0  0
  4 18  1  6  0  0  0
  4 21  2  0  0  0  0
  4 20  1  0  0  0  0
  5 19  1  0  0  0  0
  5  7  1  0  0  0  0
  6  7  2  0  0  0  0
  6 12  1  0  0  0  0
  7  8  1  0  0  0  0
  8  9  1  0  0  0  0
  8 10  2  0  0  0  0
 10 11  1  0  0  0  0
 11 12  2  0  0  0  0
 14 17  1  0  0  0  0
 15 23  1  0  0  0  0
 15 16  1  0  0  0  0
 16 19  1  0  0  0  0
 19 22  1  0  0  0  0
 22  2  1  6  0  0  0
 22 23  1  0  0  0  0
 23 24  1  1  0  0  0
 24 25  1  0  0  0  0
 25 26  1  0  0  0  0
M  CHG  1  18  -1
M  END
>  <CHROM.1>
-78.43425409,-83.92556865,85.57561892,-177.66429383,-82.82465892,71.73018804
24.02695187,40.47168646,68.69247566,-1.19052300,-0.69540453,-0.33208058

>  <Name>
ligand

>  <RI>
0

>  <Rbt.Current_Directory>
/home/itssahil/PROJECTS/Mol_Feturizer/New_Systems/rnas/2HOL

>  <Rbt.Executable>
rbdock ($Id: //depot/dev/client3/rdock/2013.1/src/exe/rbdock.cxx#4 $)

>  <Rbt.Library>
libRbt.so (2013.1, Build901 2013/11/27)

>  <Rbt.Parameter_File>
/export/apps/rDock/src/rDock_2013.1_src/data/scripts/dock_solv.prm

>  <Rbt.Receptor>
prm/pocket_docking_7.prm

>  <SCORE>
-16.3796

>  <SCORE.INTER>
-14.617

>  <SCORE.INTER.CONST>
1

>  <SCORE.INTER.POLAR>
0

>  <SCORE.INTER.ROT>
6

>  <SCORE.INTER.SOLV>
17.4892

>  <SCORE.INTER.VDW>
-23.1744

>  <SCORE.INTER.norm>
-0.562192

>  <SCORE.INTRA>
-1.76265

>  <SCORE.INTRA.DIHEDRAL>
-1.90741

>  <SCORE.INTRA.DIHEDRAL.0>
9.33621

>  <SCORE.INTRA.POLAR>
0

>  <SCORE.INTRA.POLAR.0>
0

>  <SCORE.INTRA.REPUL>
0

>  <SCORE.INTRA.REPUL.0>
0

>  <SCORE.INTRA.SOLV>
0.914233

>  <SCORE.INTRA.SOLV.lig_0>
-65.9238

>  <SCORE.INTRA.VDW>
-1.26607

>  <SCORE.INTRA.VDW.0>
-0.405582

>  <SCORE.INTRA.norm>
-0.0677944

>  <SCORE.RESTR>
0

>  <SCORE.RESTR.CAVITY>
0

>  <SCORE.RESTR.norm>
0

>  <SCORE.SYSTEM>
0

>  <SCORE.SYSTEM.CONST>
0

>  <SCORE.SYSTEM.DIHEDRAL>
0

>  <SCORE.SYSTEM.SOLV>
0

>  <SCORE.SYSTEM.norm>
0

>  <SCORE.heavy>
26

>  <SCORE.norm>
-0.629986

>  <RMSD>
8.251

$$$$
ligand
 OpenBabel11021811443D
libRbt.so/2013.1/901 2013/11/27
 26 28  0  0  0  0  0  0  0  0999 V2000
   26.5657   38.0100   75.8529 C   0  0  0  0  0  0  0  0  0  0  0  0
   26.4017   35.9555   69.3927 C   0  0  0  0  0  0  0  0  0  0  0  0
   25.4229   41.5285   65.7683 P   0  0  1  0  0  0  0  0  0  0  0  0
   23.3201   42.6994   66.7137 P   0  0  1  0  0  0  0  0  0  0  0  0
   24.4897   35.2560   71.3226 C   0  0  0  0  0  0  0  0  0  0  0  0
   26.0069   36.9574   72.3784 C   0  0  0  0  0  0  0  0  0  0  0  0
   25.0383   35.9841   72.5226 C   0  0  0  0  0  0  0  0  0  0  0  0
   24.5798   35.6918   73.8083 C   0  0  0  0  0  0  0  0  0  0  0  0
   23.6083   34.7221   74.0066 N   0  0  0  0  0  0  0  0  0  0  0  0
   25.0929   36.3531   74.8416 N   0  0  0  0  0  0  0  0  0  0  0  0
   26.0126   37.2780   74.6581 C   0  0  0  0  0  0  0  0  0  0  0  0
   26.4670   37.5775   73.4569 N   0  0  0  0  0  0  0  0  0  0  0  0
   26.1388   42.1121   64.6113 O   0  0  0  0  0  0  0  0  0  0  0  0
   24.5226   43.4726   67.3005 O   0  0  0  0  0  0  0  0  0  0  0  0
   22.9807   37.8003   68.9071 S   0  0  0  0  0  0  0  0  0  0  0  0
   22.9230   36.7444   70.2851 C   0  0  0  0  0  0  0  0  0  0  0  0
   25.8727   42.2843   67.1152 O   0  0  0  0  0  0  0  0  0  0  0  0
   22.2622   43.7406   66.0914 O   0  5  0  0  0  0  0  0  0  0  0  0
   24.1290   36.2253   70.2856 N   0  0  0  0  0  0  0  0  0  0  0  0
   23.8355   41.7019   65.5595 O   0  0  0  0  0  0  0  0  0  0  0  0
   22.6391   41.8821   67.8343 O   0  0  0  0  0  0  0  0  0  0  0  0
   25.0201   36.5596   69.3779 C   0  0  2  0  0  0  0  0  0  0  0  0
   24.6654   37.4558   68.4221 C   0  0  2  0  0  0  0  0  0  0  0  0
   25.4693   38.0088   67.2747 C   0  0  0  0  0  0  0  0  0  0  0  0
   25.0583   39.4596   67.0133 C   0  0  0  0  0  0  0  0  0  0  0  0
   25.7788   39.9624   65.8864 O   0  0  0  0  0  0  0  0  0  0  0  0
  1 11  1  0  0  0  0
  3 13  1  6  0  0  0
  3 17  1  0  0  0  0
  3 20  1  0  0  0  0
  3 26  1  0  0  0  0
  4 14  1  0  0  0  0
  4 18  1  6  0  0  0
  4 21  2  0  0  0  0
  4 20  1  0  0  0  0
  5 19  1  0  0  0  0
  5  7  1  0  0  0  0
  6  7  2  0  0  0  0
  6 12  1  0  0  0  0
  7  8  1  0  0  0  0
  8  9  1  0  0  0  0
  8 10  2  0  0  0  0
 10 11  1  0  0  0  0
 11 12  2  0  0  0  0
 14 17  1  0  0  0  0
 15 23  1  0  0  0  0
 15 16  1  0  0  0  0
 16 19  1  0  0  0  0
 19 22  1  0  0  0  0
 22  2  1  6  0  0  0
 22 23  1  0  0  0  0
 23 24  1  1  0  0  0
 24 25  1  0  0  0  0
 25 26  1  0  0  0  0
M  CHG  1  18  -1
M  END
>  <CHROM.1>
-88.66032366,-48.25103265,33.57136281,-177.40831617,-173.90943683,-179.84892116
24.66308942,39.08700910,69.17202208,-0.58193761,-1.47330238,0.10723293

>  <Name>
ligand

>  <RI>
0

>  <Rbt.Current_Directory>
/home/itssahil/PROJECTS/Mol_Feturizer/New_Systems/rnas/2HOL

>  <Rbt.Executable>
rbdock ($Id: //depot/dev/client3/rdock/2013.1/src/exe/rbdock.cxx#4 $)

>  <Rbt.Library>
libRbt.so (2013.1, Build901 2013/11/27)

>  <Rbt.Parameter_File>
/export/apps/rDock/src/rDock_2013.1_src/data/scripts/dock_solv.prm

>  <Rbt.Receptor>
prm/blind_docking_100.prm

>  <SCORE>
-14.1708

>  <SCORE.INTER>
-10.5169

>  <SCORE.INTER.CONST>
1

>  <SCORE.INTER.POLAR>
0

>  <SCORE.INTER.ROT>
6

>  <SCORE.INTER.SOLV>
9.06497

>  <SCORE.INTER.VDW>
-17.6329

>  <SCORE.INTER.norm>
-0.404495

>  <SCORE.INTRA>
-3.6539

>  <SCORE.INTRA.DIHEDRAL>
-4.20713

>  <SCORE.INTRA.DIHEDRAL.0>
9.33621

>  <SCORE.INTRA.POLAR>
0

>  <SCORE.INTRA.POLAR.0>
0

>  <SCORE.INTRA.REPUL>
0

>  <SCORE.INTRA.REPUL.0>
0

>  <SCORE.INTRA.SOLV>
0.0693345

>  <SCORE.INTRA.SOLV.lig_0>
-65.9238

>  <SCORE.INTRA.VDW>
-1.585

>  <SCORE.INTRA.VDW.0>
-0.405582

>  <SCORE.INTRA.norm>
-0.140535

>  <SCORE.RESTR>
0

>  <SCORE.RESTR.CAVITY>
0

>  <SCORE.RESTR.norm>
0

>  <SCORE.SYSTEM>
0

>  <SCORE.SYSTEM.CONST>
0

>  <SCORE.SYSTEM.DIHEDRAL>
0

>  <SCORE.SYSTEM.SOLV>
0

>  <SCORE.SYSTEM.norm>
0

>  <SCORE.heavy>
26

>  <SCORE.norm>
-0.545029

>  <RMSD>
8.258

$$$$
ligand
 OpenBabel11021811443D
libRbt.so/2013.1/901 2013/11/27
 26 28  0  0  0  0  0  0  0  0999 V2000
   28.5172   40.4694   72.2491 C   0  0  0  0  0  0  0  0  0  0  0  0
   22.4610   37.4063   68.4219 C   0  0  0  0  0  0  0  0  0  0  0  0
   21.8773   42.1513   66.8900 P   0  0  1  0  0  0  0  0  0  0  0  0
   21.9430   44.6390   66.1876 P   0  0  1  0  0  0  0  0  0  0  0  0
   25.0882   36.9968   69.3165 C   0  0  0  0  0  0  0  0  0  0  0  0
   26.4073   39.1208   69.5619 C   0  0  0  0  0  0  0  0  0  0  0  0
   25.9959   37.9149   70.0938 C   0  0  0  0  0  0  0  0  0  0  0  0
   26.4418   37.5679   71.3703 C   0  0  0  0  0  0  0  0  0  0  0  0
   26.0576   36.3675   71.9489 N   0  0  0  0  0  0  0  0  0  0  0  0
   27.2458   38.4032   72.0215 N   0  0  0  0  0  0  0  0  0  0  0  0
   27.6101   39.5465   71.4780 C   0  0  0  0  0  0  0  0  0  0  0  0
   27.2066   39.9035   70.2744 N   0  0  0  0  0  0  0  0  0  0  0  0
   21.7375   41.7882   68.3184 O   0  0  0  0  0  0  0  0  0  0  0  0
   20.4484   44.3093   66.4006 O   0  0  0  0  0  0  0  0  0  0  0  0
   25.1628   38.4268   65.7760 S   0  0  0  0  0  0  0  0  0  0  0  0
   25.9118   37.8258   67.2235 C   0  0  0  0  0  0  0  0  0  0  0  0
   20.4308   42.5052   66.2815 O   0  0  0  0  0  0  0  0  0  0  0  0
   22.3113   45.9975   66.9682 O   0  5  0  0  0  0  0  0  0  0  0  0
   24.8728   37.5433   67.9749 N   0  0  0  0  0  0  0  0  0  0  0  0
   22.8448   43.4316   66.7546 O   0  0  0  0  0  0  0  0  0  0  0  0
   22.2181   44.8224   64.6782 O   0  0  0  0  0  0  0  0  0  0  0  0
   23.6441   37.7370   67.5474 C   0  0  2  0  0  0  0  0  0  0  0  0
   23.4651   38.2489   66.3031 C   0  0  2  0  0  0  0  0  0  0  0  0
   22.1901   38.5730   65.5695 C   0  0  0  0  0  0  0  0  0  0  0  0
   21.5692   39.8423   66.1572 C   0  0  0  0  0  0  0  0  0  0  0  0
   22.5126   40.9128   66.0802 O   0  0  0  0  0  0  0  0  0  0  0  0
  1 11  1  0  0  0  0
  3 13  1  1  0  0  0
  3 17  1  0  0  0  0
  3 20  1  0  0  0  0
  3 26  1  0  0  0  0
  4 14  1  0  0  0  0
  4 18  1  1  0  0  0
  4 21  2  0  0  0  0
  4 20  1  0  0  0  0
  5 19  1  0  0  0  0
  5  7  1  0  0  0  0
  6  7  2  0  0  0  0
  6 12  1  0  0  0  0
  7  8  1  0  0  0  0
  8  9  1  0  0  0  0
  8 10  2  0  0  0  0
 10 11  1  0  0  0  0
 11 12  2  0  0  0  0
 14 17  1  0  0  0  0
 15 23  1  0  0  0  0
 15 16  1  0  0  0  0
 16 19  1  0  0  0  0
 19 22  1  0  0  0  0
 22  2  1  1  0  0  0
 22 23  1  0  0  0  0
 23 24  1  6  0  0  0
 24 25  1  0  0  0  0
 25 26  1  0  0  0  0
M  CHG  1  18  -1
M  END
>  <CHROM.1>
54.69990574,5.02258314,-106.20574976,57.08436231,-172.43402800,64.08853492
23.83191698,40.45488514,67.83935489,-0.57570339,-0.83562941,0.21685169

>  <Name>
ligand

>  <RI>
0

>  <Rbt.Current_Directory>
/home/itssahil/PROJECTS/Mol_Feturizer/New_Systems/rnas/2HOL

>  <Rbt.Executable>
rbdock ($Id: //depot/dev/client3/rdock/2013.1/src/exe/rbdock.cxx#4 $)

>  <Rbt.Library>
libRbt.so (2013.1, Build901 2013/11/27)

>  <Rbt.Parameter_File>
/export/apps/rDock/src/rDock_2013.1_src/data/scripts/dock_solv.prm

>  <Rbt.Receptor>
prm/pocket_docking_6.prm

>  <SCORE>
-18.9213

>  <SCORE.INTER>
-16.084

>  <SCORE.INTER.CONST>
1

>  <SCORE.INTER.POLAR>
0

>  <SCORE.INTER.ROT>
6

>  <SCORE.INTER.SOLV>
20.4267

>  <SCORE.INTER.VDW>
-25.1315

>  <SCORE.INTER.norm>
-0.618614

>  <SCORE.INTRA>
-2.83737

>  <SCORE.INTRA.DIHEDRAL>
-4.35748

>  <SCORE.INTRA.DIHEDRAL.0>
9.33621

>  <SCORE.INTRA.POLAR>
0

>  <SCORE.INTRA.POLAR.0>
0

>  <SCORE.INTRA.REPUL>
0

>  <SCORE.INTRA.REPUL.0>
0

>  <SCORE.INTRA.SOLV>
-0.583711

>  <SCORE.INTRA.SOLV.lig_0>
-65.9238

>  <SCORE.INTRA.VDW>
-0.366778

>  <SCORE.INTRA.VDW.0>
-0.405582

>  <SCORE.INTRA.norm>
-0.10913

>  <SCORE.RESTR>
0

>  <SCORE.RESTR.CAVITY>
0

>  <SCORE.RESTR.norm>
0

>  <SCORE.SYSTEM>
0

>  <SCORE.SYSTEM.CONST>
0

>  <SCORE.SYSTEM.DIHEDRAL>
0

>  <SCORE.SYSTEM.SOLV>
0

>  <SCORE.SYSTEM.norm>
0

>  <SCORE.heavy>
26

>  <SCORE.norm>
-0.727744

>  <RMSD>
8.272

$$$$
ligand
 OpenBabel11021811443D
libRbt.so/2013.1/901 2013/11/27
 26 28  0  0  0  0  0  0  0  0999 V2000
   27.1125   42.5028   71.1748 C   0  0  0  0  0  0  0  0  0  0  0  0
   24.2172   40.5380   66.3727 C   0  0  0  0  0  0  0  0  0  0  0  0
   20.8536   40.1022   65.6157 P   0  0  1  0  0  0  0  0  0  0  0  0
   18.3135   40.2509   65.1551 P   0  0  1  0  0  0  0  0  0  0  0  0
   26.7683   41.4102   65.5975 C   0  0  0  0  0  0  0  0  0  0  0  0
   27.5321   40.8460   67.9234 C   0  0  0  0  0  0  0  0  0  0  0  0
   26.8585   41.7006   67.0735 C   0  0  0  0  0  0  0  0  0  0  0  0
   26.2634   42.8408   67.6162 C   0  0  0  0  0  0  0  0  0  0  0  0
   25.5749   43.7305   66.8051 N   0  0  0  0  0  0  0  0  0  0  0  0
   26.3615   43.0586   68.9244 N   0  0  0  0  0  0  0  0  0  0  0  0
   27.0180   42.2190   69.6983 C   0  0  0  0  0  0  0  0  0  0  0  0
   27.5909   41.1331   69.2170 N   0  0  0  0  0  0  0  0  0  0  0  0
   21.8003   40.9110   64.8148 O   0  0  0  0  0  0  0  0  0  0  0  0
   18.6507   41.4900   66.0147 O   0  0  0  0  0  0  0  0  0  0  0  0
   26.4158   37.6850   64.8335 S   0  0  0  0  0  0  0  0  0  0  0  0
   27.2860   39.1881   64.8626 C   0  0  0  0  0  0  0  0  0  0  0  0
   20.2186   41.0140   66.7790 O   0  0  0  0  0  0  0  0  0  0  0  0
   17.4478   40.7024   63.8756 O   0  5  0  0  0  0  0  0  0  0  0  0
   26.4079   40.0049   65.3970 N   0  0  0  0  0  0  0  0  0  0  0  0
   19.6780   39.5527   64.6619 O   0  0  0  0  0  0  0  0  0  0  0  0
   17.4974   39.2469   65.9998 O   0  0  0  0  0  0  0  0  0  0  0  0
   25.2143   39.5877   65.7590 C   0  0  2  0  0  0  0  0  0  0  0  0
   24.8972   38.2829   65.5605 C   0  0  2  0  0  0  0  0  0  0  0  0
   23.6219   37.5438   65.8706 C   0  0  0  0  0  0  0  0  0  0  0  0
   22.4369   38.2809   65.2423 C   0  0  0  0  0  0  0  0  0  0  0  0
   21.6339   38.8571   66.2744 O   0  0  0  0  0  0  0  0  0  0  0  0
  1 11  1  0  0  0  0
  3 13  1  6  0  0  0
  3 17  1  0  0  0  0
  3 20  1  0  0  0  0
  3 26  1  0  0  0  0
  4 14  1  0  0  0  0
  4 18  1  6  0  0  0
  4 21  2  0  0  0  0
  4 20  1  0  0  0  0
  5 19  1  0  0  0  0
  5  7  1  0  0  0  0
  6  7  2  0  0  0  0
  6 12  1  0  0  0  0
  7  8  1  0  0  0  0
  8  9  1  0  0  0  0
  8 10  2  0  0  0  0
 10 11  1  0  0  0  0
 11 12  2  0  0  0  0
 14 17  1  0  0  0  0
 15 23  1  0  0  0  0
 15 16  1  0  0  0  0
 16 19  1  0  0  0  0
 19 22  1  0  0  0  0
 22  2  1  6  0  0  0
 22 23  1  0  0  0  0
 23 24  1  1  0  0  0
 24 25  1  0  0  0  0
 25 26  1  0  0  0  0
M  CHG  1  18  -1
M  END
>  <CHROM.1>
-112.55255236,46.14073227,-127.20977032,-110.77925072,155.17617274,-46.06854265
23.31272035,40.33257255,66.23768074,0.28298943,-0.14434019,0.69579152

>  <Name>
ligand

>  <RI>
0

>  <Rbt.Current_Directory>
/home/itssahil/PROJECTS/Mol_Feturizer/New_Systems/rnas/2HOL

>  <Rbt.Executable>
rbdock ($Id: //depot/dev/client3/rdock/2013.1/src/exe/rbdock.cxx#4 $)

>  <Rbt.Library>
libRbt.so (2013.1, Build901 2013/11/27)

>  <Rbt.Parameter_File>
/export/apps/rDock/src/rDock_2013.1_src/data/scripts/dock_solv.prm

>  <Rbt.Receptor>
prm/pocket_docking_5.prm

>  <SCORE>
-10.6449

>  <SCORE.INTER>
-13.9532

>  <SCORE.INTER.CONST>
1

>  <SCORE.INTER.POLAR>
0

>  <SCORE.INTER.ROT>
6

>  <SCORE.INTER.SOLV>
25.4325

>  <SCORE.INTER.VDW>
-25.3796

>  <SCORE.INTER.norm>
-0.536663

>  <SCORE.INTRA>
3.29521

>  <SCORE.INTRA.DIHEDRAL>
3.38187

>  <SCORE.INTRA.DIHEDRAL.0>
9.33621

>  <SCORE.INTRA.POLAR>
0

>  <SCORE.INTRA.POLAR.0>
0

>  <SCORE.INTRA.REPUL>
0

>  <SCORE.INTRA.REPUL.0>
0

>  <SCORE.INTRA.SOLV>
2.01882

>  <SCORE.INTRA.SOLV.lig_0>
-65.9238

>  <SCORE.INTRA.VDW>
0.594862

>  <SCORE.INTRA.VDW.0>
-0.405582

>  <SCORE.INTRA.norm>
0.126739

>  <SCORE.RESTR>
0.0131028

>  <SCORE.RESTR.CAVITY>
0.0131028

>  <SCORE.RESTR.norm>
0.000503955

>  <SCORE.SYSTEM>
0

>  <SCORE.SYSTEM.CONST>
0

>  <SCORE.SYSTEM.DIHEDRAL>
0

>  <SCORE.SYSTEM.SOLV>
0

>  <SCORE.SYSTEM.norm>
0

>  <SCORE.heavy>
26

>  <SCORE.norm>
-0.40942

>  <RMSD>
8.287

$$$$
ligand
 OpenBabel11021811443D
libRbt.so/2013.1/901 2013/11/27
 26 28  0  0  0  0  0  0  0  0999 V2000
   28.2808   39.8048   72.0746 C   0  0  0  0  0  0  0  0  0  0  0  0
   27.8892   40.5604   65.6715 C   0  0  0  0  0  0  0  0  0  0  0  0
   23.3517   44.9922   65.5493 P   0  0  1  0  0  0  0  0  0  0  0  0
   21.0738   44.0742   66.3587 P   0  0  1  0  0  0  0  0  0  0  0  0
   27.4486   38.0034   66.7378 C   0  0  0  0  0  0  0  0  0  0  0  0
   28.7777   39.2314   68.4806 C   0  0  0  0  0  0  0  0  0  0  0  0
   27.6677   38.4795   68.1508 C   0  0  0  0  0  0  0  0  0  0  0  0
   26.7531   38.1717   69.1595 C   0  0  0  0  0  0  0  0  0  0  0  0
   25.6223   37.4189   68.8800 N   0  0  0  0  0  0  0  0  0  0  0  0
   26.9851   38.6063   70.3947 N   0  0  0  0  0  0  0  0  0  0  0  0
   28.0553   39.3254   70.6644 C   0  0  0  0  0  0  0  0  0  0  0  0
   28.9383   39.6330   69.7345 N   0  0  0  0  0  0  0  0  0  0  0  0
   23.5082   46.4356   65.2599 O   0  0  0  0  0  0  0  0  0  0  0  0
   21.7386   44.6915   67.6098 O   0  0  0  0  0  0  0  0  0  0  0  0
   24.1675   39.3817   65.3523 S   0  0  0  0  0  0  0  0  0  0  0  0
   25.1352   38.1680   66.1319 C   0  0  0  0  0  0  0  0  0  0  0  0
   23.4820   44.7446   67.1334 O   0  0  0  0  0  0  0  0  0  0  0  0
   19.5607   44.6084   66.2340 O   0  5  0  0  0  0  0  0  0  0  0  0
   26.3222   38.7291   66.1467 N   0  0  0  0  0  0  0  0  0  0  0  0
   21.9039   44.4984   65.0458 O   0  0  0  0  0  0  0  0  0  0  0  0
   21.0667   42.5345   66.4883 O   0  0  0  0  0  0  0  0  0  0  0  0
   26.5201   39.9289   65.6458 C   0  0  2  0  0  0  0  0  0  0  0  0
   25.4648   40.5836   65.0979 C   0  0  2  0  0  0  0  0  0  0  0  0
   25.4035   41.9455   64.4574 C   0  0  0  0  0  0  0  0  0  0  0  0
   24.3385   42.7932   65.1569 C   0  0  0  0  0  0  0  0  0  0  0  0
   24.4972   44.1624   64.7797 O   0  0  0  0  0  0  0  0  0  0  0  0
  1 11  1  0  0  0  0
  3 13  1  6  0  0  0
  3 17  1  0  0  0  0
  3 20  1  0  0  0  0
  3 26  1  0  0  0  0
  4 14  1  0  0  0  0
  4 18  1  6  0  0  0
  4 21  2  0  0  0  0
  4 20  1  0  0  0  0
  5 19  1  0  0  0  0
  5  7  1  0  0  0  0
  6  7  2  0  0  0  0
  6 12  1  0  0  0  0
  7  8  1  0  0  0  0
  8  9  1  0  0  0  0
  8 10  2  0  0  0  0
 10 11  1  0  0  0  0
 11 12  2  0  0  0  0
 14 17  1  0  0  0  0
 15 23  1  0  0  0  0
 15 16  1  0  0  0  0
 16 19  1  0  0  0  0
 19 22  1  0  0  0  0
 22  2  1  6  0  0  0
 22 23  1  0  0  0  0
 23 24  1  1  0  0  0
 24 25  1  0  0  0  0
 25 26  1  0  0  0  0
M  CHG  1  18  -1
M  END
>  <CHROM.1>
-97.96685180,-109.77519096,55.37287312,166.11288072,-179.93559019,176.84451298
24.73006754,41.57732113,66.81487195,0.02951715,-0.87443972,1.15388386

>  <Name>
ligand

>  <RI>
0

>  <Rbt.Current_Directory>
/home/itssahil/PROJECTS/Mol_Feturizer/New_Systems/rnas/2HOL

>  <Rbt.Executable>
rbdock ($Id: //depot/dev/client3/rdock/2013.1/src/exe/rbdock.cxx#4 $)

>  <Rbt.Library>
libRbt.so (2013.1, Build901 2013/11/27)

>  <Rbt.Parameter_File>
/export/apps/rDock/src/rDock_2013.1_src/data/scripts/dock_solv.prm

>  <Rbt.Receptor>
prm/pocket_docking_6.prm

>  <SCORE>
-11.7751

>  <SCORE.INTER>
-8.91687

>  <SCORE.INTER.CONST>
1

>  <SCORE.INTER.POLAR>
0

>  <SCORE.INTER.ROT>
6

>  <SCORE.INTER.SOLV>
20.3491

>  <SCORE.INTER.VDW>
-20.3276

>  <SCORE.INTER.norm>
-0.342957

>  <SCORE.INTRA>
-2.85821

>  <SCORE.INTRA.DIHEDRAL>
-3.47299

>  <SCORE.INTRA.DIHEDRAL.0>
9.33621

>  <SCORE.INTRA.POLAR>
0

>  <SCORE.INTRA.POLAR.0>
0

>  <SCORE.INTRA.REPUL>
0

>  <SCORE.INTRA.REPUL.0>
0

>  <SCORE.INTRA.SOLV>
1.72789

>  <SCORE.INTRA.SOLV.lig_0>
-65.9238

>  <SCORE.INTRA.VDW>
-1.98566

>  <SCORE.INTRA.VDW.0>
-0.405582

>  <SCORE.INTRA.norm>
-0.109931

>  <SCORE.RESTR>
0

>  <SCORE.RESTR.CAVITY>
0

>  <SCORE.RESTR.norm>
0

>  <SCORE.SYSTEM>
0

>  <SCORE.SYSTEM.CONST>
0

>  <SCORE.SYSTEM.DIHEDRAL>
0

>  <SCORE.SYSTEM.SOLV>
0

>  <SCORE.SYSTEM.norm>
0

>  <SCORE.heavy>
26

>  <SCORE.norm>
-0.452888

>  <RMSD>
8.345

$$$$
ligand
 OpenBabel11021811443D
libRbt.so/2013.1/901 2013/11/27
 26 28  0  0  0  0  0  0  0  0999 V2000
   24.4595   35.8447   76.7979 C   0  0  0  0  0  0  0  0  0  0  0  0
   24.5947   37.0810   69.9039 C   0  0  0  0  0  0  0  0  0  0  0  0
   23.1352   38.1754   65.6591 P   0  0  1  0  0  0  0  0  0  0  0  0
   25.6085   38.7720   66.1213 P   0  0  1  0  0  0  0  0  0  0  0  0
   23.8418   34.7362   71.2474 C   0  0  0  0  0  0  0  0  0  0  0  0
   22.9128   35.3160   73.5085 C   0  0  0  0  0  0  0  0  0  0  0  0
   24.0068   35.0295   72.7164 C   0  0  0  0  0  0  0  0  0  0  0  0
   25.2697   35.0181   73.3110 C   0  0  0  0  0  0  0  0  0  0  0  0
   26.4004   34.7367   72.5587 N   0  0  0  0  0  0  0  0  0  0  0  0
   25.3736   35.2870   74.6091 N   0  0  0  0  0  0  0  0  0  0  0  0
   24.3024   35.5506   75.3289 C   0  0  0  0  0  0  0  0  0  0  0  0
   23.0956   35.5696   74.7975 N   0  0  0  0  0  0  0  0  0  0  0  0
   22.3955   38.8672   64.5794 O   0  0  0  0  0  0  0  0  0  0  0  0
   25.6339   37.8177   64.9061 O   0  0  0  0  0  0  0  0  0  0  0  0
   20.7147   36.5596   70.0302 S   0  0  0  0  0  0  0  0  0  0  0  0
   21.5392   35.2597   70.8351 C   0  0  0  0  0  0  0  0  0  0  0  0
   24.0282   36.9955   65.0280 O   0  0  0  0  0  0  0  0  0  0  0  0
   26.5090   40.0684   65.8068 O   0  5  0  0  0  0  0  0  0  0  0  0
   22.7989   35.6006   70.6906 N   0  0  0  0  0  0  0  0  0  0  0  0
   24.0922   39.2284   66.4133 O   0  0  0  0  0  0  0  0  0  0  0  0
   26.1738   38.0412   67.3597 O   0  0  0  0  0  0  0  0  0  0  0  0
   23.1434   36.7024   70.0604 C   0  0  2  0  0  0  0  0  0  0  0  0
   22.1627   37.4879   69.5470 C   0  0  2  0  0  0  0  0  0  0  0  0
   22.2661   38.7835   68.7857 C   0  0  0  0  0  0  0  0  0  0  0  0
   21.5393   38.6496   67.4456 C   0  0  0  0  0  0  0  0  0  0  0  0
   22.0896   37.5526   66.7136 O   0  0  0  0  0  0  0  0  0  0  0  0
  1 11  1  0  0  0  0
  3 13  1  6  0  0  0
  3 17  1  0  0  0  0
  3 20  1  0  0  0  0
  3 26  1  0  0  0  0
  4 14  1  0  0  0  0
  4 18  1  6  0  0  0
  4 21  2  0  0  0  0
  4 20  1  0  0  0  0
  5 19  1  0  0  0  0
  5  7  1  0  0  0  0
  6  7  2  0  0  0  0
  6 12  1  0  0  0  0
  7  8  1  0  0  0  0
  8  9  1  0  0  0  0
  8 10  2  0  0  0  0
 10 11  1  0  0  0  0
 11 12  2  0  0  0  0
 14 17  1  0  0  0  0
 15 23  1  0  0  0  0
 15 16  1  0  0  0  0
 16 19  1  0  0  0  0
 19 22  1  0  0  0  0
 22  2  1  6  0  0  0
 22 23  1  0  0  0  0
 23 24  1  1  0  0  0
 24 25  1  0  0  0  0
 25 26  1  0  0  0  0
M  CHG  1  18  -1
M  END
>  <CHROM.1>
-81.99425038,37.77023236,-55.77143886,-56.81676630,-98.60724239,-72.33001855
23.72892165,37.07531723,69.29662719,-1.58745021,-0.07648914,-1.20721033

>  <Name>
ligand

>  <RI>
0

>  <Rbt.Current_Directory>
/home/itssahil/PROJECTS/Mol_Feturizer/New_Systems/rnas/2HOL

>  <Rbt.Executable>
rbdock ($Id: //depot/dev/client3/rdock/2013.1/src/exe/rbdock.cxx#4 $)

>  <Rbt.Library>
libRbt.so (2013.1, Build901 2013/11/27)

>  <Rbt.Parameter_File>
/export/apps/rDock/src/rDock_2013.1_src/data/scripts/dock_solv.prm

>  <Rbt.Receptor>
prm/blind_docking_100.prm

>  <SCORE>
-18.9919

>  <SCORE.INTER>
-18.7356

>  <SCORE.INTER.CONST>
1

>  <SCORE.INTER.POLAR>
0

>  <SCORE.INTER.ROT>
6

>  <SCORE.INTER.SOLV>
11.3979

>  <SCORE.INTER.VDW>
-23.8897

>  <SCORE.INTER.norm>
-0.720602

>  <SCORE.INTRA>
-0.256233

>  <SCORE.INTRA.DIHEDRAL>
1.25733

>  <SCORE.INTRA.DIHEDRAL.0>
9.33621

>  <SCORE.INTRA.POLAR>
0

>  <SCORE.INTRA.POLAR.0>
0

>  <SCORE.INTRA.REPUL>
0

>  <SCORE.INTRA.REPUL.0>
0

>  <SCORE.INTRA.SOLV>
2.56677

>  <SCORE.INTRA.SOLV.lig_0>
-65.9238

>  <SCORE.INTRA.VDW>
-2.16828

>  <SCORE.INTRA.VDW.0>
-0.405582

>  <SCORE.INTRA.norm>
-0.0098551

>  <SCORE.RESTR>
0

>  <SCORE.RESTR.CAVITY>
0

>  <SCORE.RESTR.norm>
0

>  <SCORE.SYSTEM>
0

>  <SCORE.SYSTEM.CONST>
0

>  <SCORE.SYSTEM.DIHEDRAL>
0

>  <SCORE.SYSTEM.SOLV>
0

>  <SCORE.SYSTEM.norm>
0

>  <SCORE.heavy>
26

>  <SCORE.norm>
-0.730457

>  <RMSD>
8.372

$$$$
ligand
 OpenBabel11021811443D
libRbt.so/2013.1/901 2013/11/27
 26 28  0  0  0  0  0  0  0  0999 V2000
   28.4118   45.6112   65.3618 C   0  0  0  0  0  0  0  0  0  0  0  0
   28.2805   39.9111   69.1060 C   0  0  0  0  0  0  0  0  0  0  0  0
   22.4300   37.4506   67.4854 P   0  0  1  0  0  0  0  0  0  0  0  0
   21.8846   39.2175   65.6780 P   0  0  1  0  0  0  0  0  0  0  0  0
   30.1579   40.4782   67.1001 C   0  0  0  0  0  0  0  0  0  0  0  0
   28.3570   42.1691   66.6429 C   0  0  0  0  0  0  0  0  0  0  0  0
   29.6971   41.8372   66.6396 C   0  0  0  0  0  0  0  0  0  0  0  0
   30.6147   42.7926   66.1993 C   0  0  0  0  0  0  0  0  0  0  0  0
   31.9720   42.5083   66.1762 N   0  0  0  0  0  0  0  0  0  0  0  0
   30.1675   43.9783   65.7964 N   0  0  0  0  0  0  0  0  0  0  0  0
   28.8798   44.2548   65.8205 C   0  0  0  0  0  0  0  0  0  0  0  0
   27.9877   43.3744   66.2304 N   0  0  0  0  0  0  0  0  0  0  0  0
   21.3345   36.7164   68.1582 O   0  0  0  0  0  0  0  0  0  0  0  0
   21.7838   37.8510   64.9635 O   0  0  0  0  0  0  0  0  0  0  0  0
   27.6991   37.8473   65.8281 S   0  0  0  0  0  0  0  0  0  0  0  0
   29.0762   38.8932   65.6635 C   0  0  0  0  0  0  0  0  0  0  0  0
   22.7349   36.7720   66.0591 O   0  0  0  0  0  0  0  0  0  0  0  0
   20.5752   40.0943   65.3505 O   0  5  0  0  0  0  0  0  0  0  0  0
   29.1104   39.4903   66.8323 N   0  0  0  0  0  0  0  0  0  0  0  0
   21.9923   38.9850   67.2676 O   0  0  0  0  0  0  0  0  0  0  0  0
   23.1420   39.9653   65.1805 O   0  0  0  0  0  0  0  0  0  0  0  0
   28.2271   39.2178   67.7680 C   0  0  2  0  0  0  0  0  0  0  0  0
   27.2610   38.3030   67.4991 C   0  0  2  0  0  0  0  0  0  0  0  0
   26.1355   37.8072   68.3687 C   0  0  0  0  0  0  0  0  0  0  0  0
   24.8021   38.0084   67.6451 C   0  0  0  0  0  0  0  0  0  0  0  0
   23.7542   37.3969   68.4001 O   0  0  0  0  0  0  0  0  0  0  0  0
  1 11  1  0  0  0  0
  3 13  1  1  0  0  0
  3 17  1  0  0  0  0
  3 20  1  0  0  0  0
  3 26  1  0  0  0  0
  4 14  1  0  0  0  0
  4 18  1  6  0  0  0
  4 21  2  0  0  0  0
  4 20  1  0  0  0  0
  5 19  1  0  0  0  0
  5  7  1  0  0  0  0
  6  7  2  0  0  0  0
  6 12  1  0  0  0  0
  7  8  1  0  0  0  0
  8  9  1  0  0  0  0
  8 10  2  0  0  0  0
 10 11  1  0  0  0  0
 11 12  2  0  0  0  0
 14 17  1  0  0  0  0
 15 23  1  0  0  0  0
 15 16  1  0  0  0  0
 16 19  1  0  0  0  0
 19 22  1  0  0  0  0
 22  2  1  6  0  0  0
 22 23  1  0  0  0  0
 23 24  1  1  0  0  0
 24 25  1  0  0  0  0
 25 26  1  0  0  0  0
M  CHG  1  18  -1
M  END
>  <CHROM.1>
87.71942212,29.71777137,-55.62862639,173.24443041,-171.69901940,174.64806233
25.90071936,39.72264601,66.61869189,0.49800281,-0.16287629,-0.36223479

>  <Name>
ligand

>  <RI>
0

>  <Rbt.Current_Directory>
/home/itssahil/PROJECTS/Mol_Feturizer/New_Systems/rnas/2HOL

>  <Rbt.Executable>
rbdock ($Id: //depot/dev/client3/rdock/2013.1/src/exe/rbdock.cxx#4 $)

>  <Rbt.Library>
libRbt.so (2013.1, Build901 2013/11/27)

>  <Rbt.Parameter_File>
/export/apps/rDock/src/rDock_2013.1_src/data/scripts/dock_solv.prm

>  <Rbt.Receptor>
prm/pocket_docking_7.prm

>  <SCORE>
-11.0303

>  <SCORE.INTER>
-7.5708

>  <SCORE.INTER.CONST>
1

>  <SCORE.INTER.POLAR>
0

>  <SCORE.INTER.ROT>
6

>  <SCORE.INTER.SOLV>
15.3412

>  <SCORE.INTER.VDW>
-17.7609

>  <SCORE.INTER.norm>
-0.291185

>  <SCORE.INTRA>
-3.45949

>  <SCORE.INTRA.DIHEDRAL>
-3.62854

>  <SCORE.INTRA.DIHEDRAL.0>
9.33621

>  <SCORE.INTRA.POLAR>
0

>  <SCORE.INTRA.POLAR.0>
0

>  <SCORE.INTRA.REPUL>
0

>  <SCORE.INTRA.REPUL.0>
0

>  <SCORE.INTRA.SOLV>
0.0369611

>  <SCORE.INTRA.SOLV.lig_0>
-65.9238

>  <SCORE.INTRA.VDW>
-1.66371

>  <SCORE.INTRA.VDW.0>
-0.405582

>  <SCORE.INTRA.norm>
-0.133057

>  <SCORE.RESTR>
0

>  <SCORE.RESTR.CAVITY>
0

>  <SCORE.RESTR.norm>
0

>  <SCORE.SYSTEM>
0

>  <SCORE.SYSTEM.CONST>
0

>  <SCORE.SYSTEM.DIHEDRAL>
0

>  <SCORE.SYSTEM.SOLV>
0

>  <SCORE.SYSTEM.norm>
0

>  <SCORE.heavy>
26

>  <SCORE.norm>
-0.424242

>  <RMSD>
8.376

$$$$
ligand
 OpenBabel11021811443D
libRbt.so/2013.1/901 2013/11/27
 26 28  0  0  0  0  0  0  0  0999 V2000
   27.4876   37.5222   64.6612 C   0  0  0  0  0  0  0  0  0  0  0  0
   24.7048   44.5892   65.7485 C   0  0  0  0  0  0  0  0  0  0  0  0
   19.0202   41.9789   65.3183 P   0  0  1  0  0  0  0  0  0  0  0  0
   18.9858   39.4213   64.9391 P   0  0  1  0  0  0  0  0  0  0  0  0
   25.9290   42.4396   67.0713 C   0  0  0  0  0  0  0  0  0  0  0  0
   26.4182   39.9775   67.1752 C   0  0  0  0  0  0  0  0  0  0  0  0
   26.3418   41.1387   66.4321 C   0  0  0  0  0  0  0  0  0  0  0  0
   26.6562   41.0771   65.0734 C   0  0  0  0  0  0  0  0  0  0  0  0
   26.5954   42.2155   64.2836 N   0  0  0  0  0  0  0  0  0  0  0  0
   27.0208   39.9111   64.5483 N   0  0  0  0  0  0  0  0  0  0  0  0
   27.0759   38.8262   65.2933 C   0  0  0  0  0  0  0  0  0  0  0  0
   26.7854   38.8508   66.5794 N   0  0  0  0  0  0  0  0  0  0  0  0
   17.7517   42.7151   65.5199 O   0  0  0  0  0  0  0  0  0  0  0  0
   18.8415   39.6146   66.4655 O   0  0  0  0  0  0  0  0  0  0  0  0
   22.1378   42.1602   67.4376 S   0  0  0  0  0  0  0  0  0  0  0  0
   23.7672   41.6215   67.7065 C   0  0  0  0  0  0  0  0  0  0  0  0
   19.4694   41.2935   66.7025 O   0  0  0  0  0  0  0  0  0  0  0  0
   17.8590   38.3974   64.4171 O   0  5  0  0  0  0  0  0  0  0  0  0
   24.4678   42.5381   67.0796 N   0  0  0  0  0  0  0  0  0  0  0  0
   18.8072   40.8403   64.1995 O   0  0  0  0  0  0  0  0  0  0  0  0
   20.3862   38.8491   64.6243 O   0  0  0  0  0  0  0  0  0  0  0  0
   23.8861   43.5436   66.4629 C   0  0  2  0  0  0  0  0  0  0  0  0
   22.5307   43.6149   66.4776 C   0  0  2  0  0  0  0  0  0  0  0  0
   21.6134   44.6376   65.8600 C   0  0  0  0  0  0  0  0  0  0  0  0
   20.1945   44.0701   65.7780 C   0  0  0  0  0  0  0  0  0  0  0  0
   20.1636   43.0019   64.8293 O   0  0  0  0  0  0  0  0  0  0  0  0
  1 11  1  0  0  0  0
  3 13  1  1  0  0  0
  3 17  1  0  0  0  0
  3 20  1  0  0  0  0
  3 26  1  0  0  0  0
  4 14  1  0  0  0  0
  4 18  1  6  0  0  0
  4 21  2  0  0  0  0
  4 20  1  0  0  0  0
  5 19  1  0  0  0  0
  5  7  1  0  0  0  0
  6  7  2  0  0  0  0
  6 12  1  0  0  0  0
  7  8  1  0  0  0  0
  8  9  1  0  0  0  0
  8 10  2  0  0  0  0
 10 11  1  0  0  0  0
 11 12  2  0  0  0  0
 14 17  1  0  0  0  0
 15 23  1  0  0  0  0
 15 16  1  0  0  0  0
 16 19  1  0  0  0  0
 19 22  1  0  0  0  0
 22  2  1  6  0  0  0
 22 23  1  0  0  0  0
 23 24  1  1  0  0  0
 24 25  1  0  0  0  0
 25 26  1  0  0  0  0
M  CHG  1  18  -1
M  END
>  <CHROM.1>
59.55949612,-85.57867144,-17.51655206,-67.94998271,149.96094413,53.25531108
22.34286398,41.29839251,65.77197235,0.03937332,0.07952200,-2.89236905

>  <Name>
ligand

>  <RI>
0

>  <Rbt.Current_Directory>
/home/itssahil/PROJECTS/Mol_Feturizer/New_Systems/rnas/2HOL

>  <Rbt.Executable>
rbdock ($Id: //depot/dev/client3/rdock/2013.1/src/exe/rbdock.cxx#4 $)

>  <Rbt.Library>
libRbt.so (2013.1, Build901 2013/11/27)

>  <Rbt.Parameter_File>
/export/apps/rDock/src/rDock_2013.1_src/data/scripts/dock_solv.prm

>  <Rbt.Receptor>
prm/pocket_docking_8.prm

>  <SCORE>
-19.0807

>  <SCORE.INTER>
-17.6402

>  <SCORE.INTER.CONST>
1

>  <SCORE.INTER.POLAR>
0

>  <SCORE.INTER.ROT>
6

>  <SCORE.INTER.SOLV>
26.3609

>  <SCORE.INTER.VDW>
-28.1471

>  <SCORE.INTER.norm>
-0.678468

>  <SCORE.INTRA>
-1.45299

>  <SCORE.INTRA.DIHEDRAL>
-0.750916

>  <SCORE.INTRA.DIHEDRAL.0>
9.33621

>  <SCORE.INTRA.POLAR>
0

>  <SCORE.INTRA.POLAR.0>
0

>  <SCORE.INTRA.REPUL>
0

>  <SCORE.INTRA.REPUL.0>
0

>  <SCORE.INTRA.SOLV>
1.69531

>  <SCORE.INTRA.SOLV.lig_0>
-65.9238

>  <SCORE.INTRA.VDW>
-1.92518

>  <SCORE.INTRA.VDW.0>
-0.405582

>  <SCORE.INTRA.norm>
-0.0558841

>  <SCORE.RESTR>
0.0124486

>  <SCORE.RESTR.CAVITY>
0.0124486

>  <SCORE.RESTR.norm>
0.000478793

>  <SCORE.SYSTEM>
0

>  <SCORE.SYSTEM.CONST>
0

>  <SCORE.SYSTEM.DIHEDRAL>
0

>  <SCORE.SYSTEM.SOLV>
0

>  <SCORE.SYSTEM.norm>
0

>  <SCORE.heavy>
26

>  <SCORE.norm>
-0.733873

>  <RMSD>
8.406

$$$$
ligand
 OpenBabel11021811443D
libRbt.so/2013.1/901 2013/11/27
 26 28  0  0  0  0  0  0  0  0999 V2000
   31.5907   36.6084   63.8262 C   0  0  0  0  0  0  0  0  0  0  0  0
   25.4385   38.3643   65.2667 C   0  0  0  0  0  0  0  0  0  0  0  0
   21.6888   39.0679   65.5405 P   0  0  1  0  0  0  0  0  0  0  0  0
   21.8894   38.0476   67.9080 P   0  0  1  0  0  0  0  0  0  0  0  0
   27.2348   37.7161   67.3216 C   0  0  0  0  0  0  0  0  0  0  0  0
   28.1939   36.7316   65.2186 C   0  0  0  0  0  0  0  0  0  0  0  0
   28.3887   37.4235   66.3974 C   0  0  0  0  0  0  0  0  0  0  0  0
   29.6817   37.8456   66.7113 C   0  0  0  0  0  0  0  0  0  0  0  0
   29.9301   38.5436   67.8837 N   0  0  0  0  0  0  0  0  0  0  0  0
   30.6736   37.5633   65.8719 N   0  0  0  0  0  0  0  0  0  0  0  0
   30.4422   36.9044   64.7550 C   0  0  0  0  0  0  0  0  0  0  0  0
   29.2327   36.4917   64.4296 N   0  0  0  0  0  0  0  0  0  0  0  0
   20.6427   38.5840   64.6114 O   0  0  0  0  0  0  0  0  0  0  0  0
   20.7339   39.0700   67.9953 O   0  0  0  0  0  0  0  0  0  0  0  0
   26.5295   41.4688   67.3913 S   0  0  0  0  0  0  0  0  0  0  0  0
   27.2963   40.0224   67.9721 C   0  0  0  0  0  0  0  0  0  0  0  0
   21.0481   40.1301   66.5647 O   0  0  0  0  0  0  0  0  0  0  0  0
   21.4204   36.6487   68.5509 O   0  5  0  0  0  0  0  0  0  0  0  0
   26.8184   39.1105   67.1572 N   0  0  0  0  0  0  0  0  0  0  0  0
   22.2911   37.8226   66.3651 O   0  0  0  0  0  0  0  0  0  0  0  0
   23.1114   38.5868   68.6849 O   0  0  0  0  0  0  0  0  0  0  0  0
   25.9775   39.4230   66.1954 C   0  0  2  0  0  0  0  0  0  0  0  0
   25.5997   40.7199   66.0622 C   0  0  2  0  0  0  0  0  0  0  0  0
   24.6610   41.3522   65.0683 C   0  0  0  0  0  0  0  0  0  0  0  0
   23.2195   40.9660   65.4074 C   0  0  0  0  0  0  0  0  0  0  0  0
   22.8679   39.7743   64.7015 O   0  0  0  0  0  0  0  0  0  0  0  0
  1 11  1  0  0  0  0
  3 13  1  6  0  0  0
  3 17  1  0  0  0  0
  3 20  1  0  0  0  0
  3 26  1  0  0  0  0
  4 14  1  0  0  0  0
  4 18  1  1  0  0  0
  4 21  2  0  0  0  0
  4 20  1  0  0  0  0
  5 19  1  0  0  0  0
  5  7  1  0  0  0  0
  6  7  2  0  0  0  0
  6 12  1  0  0  0  0
  7  8  1  0  0  0  0
  8  9  1  0  0  0  0
  8 10  2  0  0  0  0
 10 11  1  0  0  0  0
 11 12  2  0  0  0  0
 14 17  1  0  0  0  0
 15 23  1  0  0  0  0
 15 16  1  0  0  0  0
 16 19  1  0  0  0  0
 19 22  1  0  0  0  0
 22  2  1  1  0  0  0
 22 23  1  0  0  0  0
 23 24  1  6  0  0  0
 24 25  1  0  0  0  0
 25 26  1  0  0  0  0
M  CHG  1  18  -1
M  END
>  <CHROM.1>
-95.14697873,-102.13382732,-107.44196636,-91.14679715,155.22878572,137.00722676
25.17153729,38.76895818,66.39462790,0.17059155,-0.07809007,-2.90787204

>  <Name>
ligand

>  <RI>
0

>  <Rbt.Current_Directory>
/home/itssahil/PROJECTS/Mol_Feturizer/New_Systems/rnas/2HOL

>  <Rbt.Executable>
rbdock ($Id: //depot/dev/client3/rdock/2013.1/src/exe/rbdock.cxx#4 $)

>  <Rbt.Library>
libRbt.so (2013.1, Build901 2013/11/27)

>  <Rbt.Parameter_File>
/export/apps/rDock/src/rDock_2013.1_src/data/scripts/dock_solv.prm

>  <Rbt.Receptor>
prm/pocket_docking_5.prm

>  <SCORE>
-5.62602

>  <SCORE.INTER>
-6.99222

>  <SCORE.INTER.CONST>
1

>  <SCORE.INTER.POLAR>
0

>  <SCORE.INTER.ROT>
6

>  <SCORE.INTER.SOLV>
20.5969

>  <SCORE.INTER.VDW>
-19.1271

>  <SCORE.INTER.norm>
-0.268932

>  <SCORE.INTRA>
1.31901

>  <SCORE.INTRA.DIHEDRAL>
2.79696

>  <SCORE.INTRA.DIHEDRAL.0>
9.33621

>  <SCORE.INTRA.POLAR>
0

>  <SCORE.INTRA.POLAR.0>
0

>  <SCORE.INTRA.REPUL>
0

>  <SCORE.INTRA.REPUL.0>
0

>  <SCORE.INTRA.SOLV>
2.63504

>  <SCORE.INTRA.SOLV.lig_0>
-65.9238

>  <SCORE.INTRA.VDW>
-1.39699

>  <SCORE.INTRA.VDW.0>
-0.405582

>  <SCORE.INTRA.norm>
0.0507312

>  <SCORE.RESTR>
0.0471906

>  <SCORE.RESTR.CAVITY>
0.0471906

>  <SCORE.RESTR.norm>
0.00181502

>  <SCORE.SYSTEM>
0

>  <SCORE.SYSTEM.CONST>
0

>  <SCORE.SYSTEM.DIHEDRAL>
0

>  <SCORE.SYSTEM.SOLV>
0

>  <SCORE.SYSTEM.norm>
0

>  <SCORE.heavy>
26

>  <SCORE.norm>
-0.216385

>  <RMSD>
8.472

$$$$
ligand
 OpenBabel11021811443D
libRbt.so/2013.1/901 2013/11/27
 26 28  0  0  0  0  0  0  0  0999 V2000
   26.4486   41.2968   60.0623 C   0  0  0  0  0  0  0  0  0  0  0  0
   25.3074   43.4932   67.2583 C   0  0  0  0  0  0  0  0  0  0  0  0
   20.5747   43.8513   65.3781 P   0  0  1  0  0  0  0  0  0  0  0  0
   20.7863   41.4005   66.1753 P   0  0  1  0  0  0  0  0  0  0  0  0
   27.1018   43.8161   65.1264 C   0  0  0  0  0  0  0  0  0  0  0  0
   25.7897   42.4283   63.4942 C   0  0  0  0  0  0  0  0  0  0  0  0
   26.9303   43.1497   63.7856 C   0  0  0  0  0  0  0  0  0  0  0  0
   27.9205   43.2465   62.8065 C   0  0  0  0  0  0  0  0  0  0  0  0
   29.0851   43.9593   63.0499 N   0  0  0  0  0  0  0  0  0  0  0  0
   27.7333   42.6400   61.6380 N   0  0  0  0  0  0  0  0  0  0  0  0
   26.6271   41.9655   61.4003 C   0  0  0  0  0  0  0  0  0  0  0  0
   25.6730   41.8549   62.3039 N   0  0  0  0  0  0  0  0  0  0  0  0
   20.0322   44.1487   64.0332 O   0  0  0  0  0  0  0  0  0  0  0  0
   19.3024   41.7769   66.3864 O   0  0  0  0  0  0  0  0  0  0  0  0
   24.5866   46.6900   65.1128 S   0  0  0  0  0  0  0  0  0  0  0  0
   25.9557   45.8223   64.4880 C   0  0  0  0  0  0  0  0  0  0  0  0
   19.3613   43.5840   66.3999 O   0  0  0  0  0  0  0  0  0  0  0  0
   20.8798   39.9920   65.4021 O   0  5  0  0  0  0  0  0  0  0  0  0
   26.0420   44.8086   65.3180 N   0  0  0  0  0  0  0  0  0  0  0  0
   21.5104   42.5428   65.3014 O   0  0  0  0  0  0  0  0  0  0  0  0
   21.4858   41.2812   67.5479 O   0  0  0  0  0  0  0  0  0  0  0  0
   25.1958   44.6638   66.3144 C   0  0  2  0  0  0  0  0  0  0  0  0
   24.2236   45.5967   66.4785 C   0  0  2  0  0  0  0  0  0  0  0  0
   23.1385   45.6839   67.5195 C   0  0  0  0  0  0  0  0  0  0  0  0
   22.0019   44.7255   67.1563 C   0  0  0  0  0  0  0  0  0  0  0  0
   21.4466   45.1027   65.8949 O   0  0  0  0  0  0  0  0  0  0  0  0
  1 11  1  0  0  0  0
  3 13  1  6  0  0  0
  3 17  1  0  0  0  0
  3 20  1  0  0  0  0
  3 26  1  0  0  0  0
  4 14  1  0  0  0  0
  4 18  1  6  0  0  0
  4 21  2  0  0  0  0
  4 20  1  0  0  0  0
  5 19  1  0  0  0  0
  5  7  1  0  0  0  0
  6  7  2  0  0  0  0
  6 12  1  0  0  0  0
  7  8  1  0  0  0  0
  8  9  1  0  0  0  0
  8 10  2  0  0  0  0
 10 11  1  0  0  0  0
 11 12  2  0  0  0  0
 14 17  1  0  0  0  0
 15 23  1  0  0  0  0
 15 16  1  0  0  0  0
 16 19  1  0  0  0  0
 19 22  1  0  0  0  0
 22  2  1  1  0  0  0
 22 23  1  0  0  0  0
 23 24  1  6  0  0  0
 24 25  1  0  0  0  0
 25 26  1  0  0  0  0
M  CHG  1  18  -1
M  END
>  <CHROM.1>
-61.59465647,-61.41876284,101.03590917,-61.33241932,164.21615050,-176.77080615
23.61928786,43.47173998,64.98010187,0.19128623,-0.42034078,-2.53513960

>  <Name>
ligand

>  <RI>
0

>  <Rbt.Current_Directory>
/home/itssahil/PROJECTS/Mol_Feturizer/New_Systems/rnas/2HOL

>  <Rbt.Executable>
rbdock ($Id: //depot/dev/client3/rdock/2013.1/src/exe/rbdock.cxx#4 $)

>  <Rbt.Library>
libRbt.so (2013.1, Build901 2013/11/27)

>  <Rbt.Parameter_File>
/export/apps/rDock/src/rDock_2013.1_src/data/scripts/dock_solv.prm

>  <Rbt.Receptor>
prm/pocket_docking_7.prm

>  <SCORE>
-21.1255

>  <SCORE.INTER>
-17.188

>  <SCORE.INTER.CONST>
1

>  <SCORE.INTER.POLAR>
0

>  <SCORE.INTER.ROT>
6

>  <SCORE.INTER.SOLV>
19.1605

>  <SCORE.INTER.VDW>
-25.4455

>  <SCORE.INTER.norm>
-0.661075

>  <SCORE.INTRA>
-3.93755

>  <SCORE.INTRA.DIHEDRAL>
-3.46638

>  <SCORE.INTRA.DIHEDRAL.0>
9.33621

>  <SCORE.INTRA.POLAR>
0

>  <SCORE.INTRA.POLAR.0>
0

>  <SCORE.INTRA.REPUL>
0

>  <SCORE.INTRA.REPUL.0>
0

>  <SCORE.INTRA.SOLV>
0.583428

>  <SCORE.INTRA.SOLV.lig_0>
-65.9238

>  <SCORE.INTRA.VDW>
-2.49607

>  <SCORE.INTRA.VDW.0>
-0.405582

>  <SCORE.INTRA.norm>
-0.151444

>  <SCORE.RESTR>
0

>  <SCORE.RESTR.CAVITY>
0

>  <SCORE.RESTR.norm>
0

>  <SCORE.SYSTEM>
0

>  <SCORE.SYSTEM.CONST>
0

>  <SCORE.SYSTEM.DIHEDRAL>
0

>  <SCORE.SYSTEM.SOLV>
0

>  <SCORE.SYSTEM.norm>
0

>  <SCORE.heavy>
26

>  <SCORE.norm>
-0.812519

>  <RMSD>
8.536

$$$$
ligand
 OpenBabel11021811443D
libRbt.so/2013.1/901 2013/11/27
 26 28  0  0  0  0  0  0  0  0999 V2000
   26.4544   37.6712   75.3149 C   0  0  0  0  0  0  0  0  0  0  0  0
   24.7469   37.6220   67.9626 C   0  0  0  0  0  0  0  0  0  0  0  0
   22.8557   42.1694   66.7999 P   0  0  1  0  0  0  0  0  0  0  0  0
   22.1410   44.3588   65.6242 P   0  0  1  0  0  0  0  0  0  0  0  0
   25.0520   35.8414   70.1088 C   0  0  0  0  0  0  0  0  0  0  0  0
   26.3003   37.3767   71.6568 C   0  0  0  0  0  0  0  0  0  0  0  0
   25.4224   36.3246   71.4874 C   0  0  0  0  0  0  0  0  0  0  0  0
   24.8861   35.7200   72.6256 C   0  0  0  0  0  0  0  0  0  0  0  0
   24.0003   34.6593   72.5093 N   0  0  0  0  0  0  0  0  0  0  0  0
   25.2420   36.1726   73.8243 N   0  0  0  0  0  0  0  0  0  0  0  0
   26.0796   37.1826   73.9400 C   0  0  0  0  0  0  0  0  0  0  0  0
   26.6038   37.7751   72.8850 N   0  0  0  0  0  0  0  0  0  0  0  0
   24.1528   42.0992   67.5100 O   0  0  0  0  0  0  0  0  0  0  0  0
   21.8209   44.5703   67.1211 O   0  0  0  0  0  0  0  0  0  0  0  0
   21.3574   36.7210   69.7066 S   0  0  0  0  0  0  0  0  0  0  0  0
   22.6838   35.9037   70.4748 C   0  0  0  0  0  0  0  0  0  0  0  0
   21.7626   42.8747   67.7463 O   0  0  0  0  0  0  0  0  0  0  0  0
   22.9564   45.6280   65.0632 O   0  5  0  0  0  0  0  0  0  0  0  0
   23.7098   36.3181   69.7680 N   0  0  0  0  0  0  0  0  0  0  0  0
   23.0301   43.0279   65.4486 O   0  0  0  0  0  0  0  0  0  0  0  0
   20.8220   44.2048   64.8341 O   0  0  0  0  0  0  0  0  0  0  0  0
   23.5584   37.1542   68.7640 C   0  0  2  0  0  0  0  0  0  0  0  0
   22.3060   37.5808   68.4605 C   0  0  2  0  0  0  0  0  0  0  0  0
   21.8450   38.5205   67.3774 C   0  0  0  0  0  0  0  0  0  0  0  0
   22.4125   39.9181   67.6357 C   0  0  0  0  0  0  0  0  0  0  0  0
   22.3649   40.6814   66.4286 O   0  0  0  0  0  0  0  0  0  0  0  0
  1 11  1  0  0  0  0
  3 13  1  1  0  0  0
  3 17  1  0  0  0  0
  3 20  1  0  0  0  0
  3 26  1  0  0  0  0
  4 14  1  0  0  0  0
  4 18  1  6  0  0  0
  4 21  2  0  0  0  0
  4 20  1  0  0  0  0
  5 19  1  0  0  0  0
  5  7  1  0  0  0  0
  6  7  2  0  0  0  0
  6 12  1  0  0  0  0
  7  8  1  0  0  0  0
  8  9  1  0  0  0  0
  8 10  2  0  0  0  0
 10 11  1  0  0  0  0
 11 12  2  0  0  0  0
 14 17  1  0  0  0  0
 15 23  1  0  0  0  0
 15 16  1  0  0  0  0
 16 19  1  0  0  0  0
 19 22  1  0  0  0  0
 22  2  1  6  0  0  0
 22 23  1  0  0  0  0
 23 24  1  1  0  0  0
 24 25  1  0  0  0  0
 25 26  1  0  0  0  0
M  CHG  1  18  -1
M  END
>  <CHROM.1>
-63.89190691,-103.73309275,114.86048558,160.85808173,175.27193575,51.96865552
23.38766536,39.59586990,68.89564146,-1.16163928,-0.84575804,-0.39589160

>  <Name>
ligand

>  <RI>
0

>  <Rbt.Current_Directory>
/home/itssahil/PROJECTS/Mol_Feturizer/New_Systems/rnas/2HOL

>  <Rbt.Executable>
rbdock ($Id: //depot/dev/client3/rdock/2013.1/src/exe/rbdock.cxx#4 $)

>  <Rbt.Library>
libRbt.so (2013.1, Build901 2013/11/27)

>  <Rbt.Parameter_File>
/export/apps/rDock/src/rDock_2013.1_src/data/scripts/dock_solv.prm

>  <Rbt.Receptor>
prm/blind_docking_100.prm

>  <SCORE>
-15.9751

>  <SCORE.INTER>
-14.1155

>  <SCORE.INTER.CONST>
1

>  <SCORE.INTER.POLAR>
0

>  <SCORE.INTER.ROT>
6

>  <SCORE.INTER.SOLV>
15.0997

>  <SCORE.INTER.VDW>
-22.0436

>  <SCORE.INTER.norm>
-0.542904

>  <SCORE.INTRA>
-1.85959

>  <SCORE.INTRA.DIHEDRAL>
-3.28077

>  <SCORE.INTRA.DIHEDRAL.0>
9.33621

>  <SCORE.INTRA.POLAR>
0

>  <SCORE.INTRA.POLAR.0>
0

>  <SCORE.INTRA.REPUL>
0

>  <SCORE.INTRA.REPUL.0>
0

>  <SCORE.INTRA.SOLV>
1.035

>  <SCORE.INTRA.SOLV.lig_0>
-65.9238

>  <SCORE.INTRA.VDW>
-0.736711

>  <SCORE.INTRA.VDW.0>
-0.405582

>  <SCORE.INTRA.norm>
-0.0715228

>  <SCORE.RESTR>
0

>  <SCORE.RESTR.CAVITY>
0

>  <SCORE.RESTR.norm>
0

>  <SCORE.SYSTEM>
0

>  <SCORE.SYSTEM.CONST>
0

>  <SCORE.SYSTEM.DIHEDRAL>
0

>  <SCORE.SYSTEM.SOLV>
0

>  <SCORE.SYSTEM.norm>
0

>  <SCORE.heavy>
26

>  <SCORE.norm>
-0.614427

>  <RMSD>
8.556

$$$$
ligand
 OpenBabel11021811443D
libRbt.so/2013.1/901 2013/11/27
 26 28  0  0  0  0  0  0  0  0999 V2000
   28.4096   40.7873   72.0670 C   0  0  0  0  0  0  0  0  0  0  0  0
   22.7000   37.6240   68.0426 C   0  0  0  0  0  0  0  0  0  0  0  0
   20.2240   41.7974   65.5806 P   0  0  1  0  0  0  0  0  0  0  0  0
   21.2085   44.1882   65.6173 P   0  0  1  0  0  0  0  0  0  0  0  0
   25.2975   37.1465   68.9884 C   0  0  0  0  0  0  0  0  0  0  0  0
   26.5154   39.3244   69.2806 C   0  0  0  0  0  0  0  0  0  0  0  0
   26.1213   38.1092   69.8044 C   0  0  0  0  0  0  0  0  0  0  0  0
   26.5050   37.7950   71.1092 C   0  0  0  0  0  0  0  0  0  0  0  0
   26.1351   36.5869   71.6812 N   0  0  0  0  0  0  0  0  0  0  0  0
   27.2360   38.6693   71.7944 N   0  0  0  0  0  0  0  0  0  0  0  0
   27.5862   39.8199   71.2573 C   0  0  0  0  0  0  0  0  0  0  0  0
   27.2402   40.1466   70.0275 N   0  0  0  0  0  0  0  0  0  0  0  0
   19.3005   41.3600   66.6518 O   0  0  0  0  0  0  0  0  0  0  0  0
   19.7828   44.3373   65.0398 O   0  0  0  0  0  0  0  0  0  0  0  0
   25.4766   38.5182   65.4287 S   0  0  0  0  0  0  0  0  0  0  0  0
   26.1819   37.9166   66.8977 C   0  0  0  0  0  0  0  0  0  0  0  0
   19.4123   42.6556   64.4886 O   0  0  0  0  0  0  0  0  0  0  0  0
   21.4324   45.2725   66.7855 O   0  5  0  0  0  0  0  0  0  0  0  0
   25.1220   37.6785   67.6352 N   0  0  0  0  0  0  0  0  0  0  0  0
   21.3918   42.7054   66.2174 O   0  0  0  0  0  0  0  0  0  0  0  0
   22.2439   44.4209   64.4942 O   0  0  0  0  0  0  0  0  0  0  0  0
   23.9074   37.9039   67.1838 C   0  0  2  0  0  0  0  0  0  0  0  0
   23.7655   38.4017   65.9290 C   0  0  2  0  0  0  0  0  0  0  0  0
   22.5138   38.7541   65.1687 C   0  0  0  0  0  0  0  0  0  0  0  0
   21.9126   40.0404   65.7394 C   0  0  0  0  0  0  0  0  0  0  0  0
   20.8763   40.5064   64.8729 O   0  0  0  0  0  0  0  0  0  0  0  0
  1 11  1  0  0  0  0
  3 13  1  1  0  0  0
  3 17  1  0  0  0  0
  3 20  1  0  0  0  0
  3 26  1  0  0  0  0
  4 14  1  0  0  0  0
  4 18  1  1  0  0  0
  4 21  2  0  0  0  0
  4 20  1  0  0  0  0
  5 19  1  0  0  0  0
  5  7  1  0  0  0  0
  6  7  2  0  0  0  0
  6 12  1  0  0  0  0
  7  8  1  0  0  0  0
  8  9  1  0  0  0  0
  8 10  2  0  0  0  0
 10 11  1  0  0  0  0
 11 12  2  0  0  0  0
 14 17  1  0  0  0  0
 15 23  1  0  0  0  0
 15 16  1  0  0  0  0
 16 19  1  0  0  0  0
 19 22  1  0  0  0  0
 22  2  1  1  0  0  0
 22 23  1  0  0  0  0
 23 24  1  6  0  0  0
 24 25  1  0  0  0  0
 25 26  1  0  0  0  0
M  CHG  1  18  -1
M  END
>  <CHROM.1>
59.63952585,4.14123830,-107.00425462,169.45872221,176.22104736,-78.55860448
23.44831229,40.40983800,67.25276328,-0.31692124,-0.78465623,0.34474564

>  <Name>
ligand

>  <RI>
0

>  <Rbt.Current_Directory>
/home/itssahil/PROJECTS/Mol_Feturizer/New_Systems/rnas/2HOL

>  <Rbt.Executable>
rbdock ($Id: //depot/dev/client3/rdock/2013.1/src/exe/rbdock.cxx#4 $)

>  <Rbt.Library>
libRbt.so (2013.1, Build901 2013/11/27)

>  <Rbt.Parameter_File>
/export/apps/rDock/src/rDock_2013.1_src/data/scripts/dock_solv.prm

>  <Rbt.Receptor>
prm/pocket_docking_7.prm

>  <SCORE>
-18.0433

>  <SCORE.INTER>
-15.8984

>  <SCORE.INTER.CONST>
1

>  <SCORE.INTER.POLAR>
0

>  <SCORE.INTER.ROT>
6

>  <SCORE.INTER.SOLV>
23.8806

>  <SCORE.INTER.VDW>
-26.1591

>  <SCORE.INTER.norm>
-0.611476

>  <SCORE.INTRA>
-2.14496

>  <SCORE.INTRA.DIHEDRAL>
-3.69613

>  <SCORE.INTRA.DIHEDRAL.0>
9.33621

>  <SCORE.INTRA.POLAR>
0

>  <SCORE.INTRA.POLAR.0>
0

>  <SCORE.INTRA.REPUL>
0

>  <SCORE.INTRA.REPUL.0>
0

>  <SCORE.INTRA.SOLV>
-0.381794

>  <SCORE.INTRA.SOLV.lig_0>
-65.9238

>  <SCORE.INTRA.VDW>
-0.106

>  <SCORE.INTRA.VDW.0>
-0.405582

>  <SCORE.INTRA.norm>
-0.0824985

>  <SCORE.RESTR>
0

>  <SCORE.RESTR.CAVITY>
0

>  <SCORE.RESTR.norm>
0

>  <SCORE.SYSTEM>
0

>  <SCORE.SYSTEM.CONST>
0

>  <SCORE.SYSTEM.DIHEDRAL>
0

>  <SCORE.SYSTEM.SOLV>
0

>  <SCORE.SYSTEM.norm>
0

>  <SCORE.heavy>
26

>  <SCORE.norm>
-0.693975

>  <RMSD>
8.590

$$$$
ligand
 OpenBabel11021811443D
libRbt.so/2013.1/901 2013/11/27
 26 28  0  0  0  0  0  0  0  0999 V2000
   32.3504   42.3295   66.1909 C   0  0  0  0  0  0  0  0  0  0  0  0
   24.6549   45.0867   64.8145 C   0  0  0  0  0  0  0  0  0  0  0  0
   20.5315   40.2227   66.1386 P   0  0  1  0  0  0  0  0  0  0  0  0
   22.2462   38.3268   65.7490 P   0  0  1  0  0  0  0  0  0  0  0  0
   27.3187   44.9452   65.6828 C   0  0  0  0  0  0  0  0  0  0  0  0
   29.3517   44.2885   67.0047 C   0  0  0  0  0  0  0  0  0  0  0  0
   28.6504   44.2525   65.8159 C   0  0  0  0  0  0  0  0  0  0  0  0
   29.2062   43.5577   64.7402 C   0  0  0  0  0  0  0  0  0  0  0  0
   28.5419   43.4922   63.5246 N   0  0  0  0  0  0  0  0  0  0  0  0
   30.3858   42.9640   64.8966 N   0  0  0  0  0  0  0  0  0  0  0  0
   31.0187   43.0196   66.0504 C   0  0  0  0  0  0  0  0  0  0  0  0
   30.5210   43.6677   67.0855 N   0  0  0  0  0  0  0  0  0  0  0  0
   19.1033   40.0084   65.8131 O   0  0  0  0  0  0  0  0  0  0  0  0
   21.5496   37.9856   67.0856 O   0  0  0  0  0  0  0  0  0  0  0  0
   25.1348   42.7626   67.9306 S   0  0  0  0  0  0  0  0  0  0  0  0
   26.6500   43.4529   67.4355 C   0  0  0  0  0  0  0  0  0  0  0  0
   20.8568   39.5816   67.5776 O   0  0  0  0  0  0  0  0  0  0  0  0
   22.2581   37.0264   64.8007 O   0  5  0  0  0  0  0  0  0  0  0  0
   26.2966   44.1818   66.4023 N   0  0  0  0  0  0  0  0  0  0  0  0
   21.4484   39.5187   65.0172 O   0  0  0  0  0  0  0  0  0  0  0  0
   23.6989   38.7741   66.0268 O   0  0  0  0  0  0  0  0  0  0  0  0
   25.0452   44.2438   66.0023 C   0  0  2  0  0  0  0  0  0  0  0  0
   24.1133   43.5253   66.6789 C   0  0  2  0  0  0  0  0  0  0  0  0
   22.6304   43.4071   66.4427 C   0  0  0  0  0  0  0  0  0  0  0  0
   22.2032   41.9449   66.5895 C   0  0  0  0  0  0  0  0  0  0  0  0
   20.8444   41.8021   66.1708 O   0  0  0  0  0  0  0  0  0  0  0  0
  1 11  1  0  0  0  0
  3 13  1  6  0  0  0
  3 17  1  0  0  0  0
  3 20  1  0  0  0  0
  3 26  1  0  0  0  0
  4 14  1  0  0  0  0
  4 18  1  6  0  0  0
  4 21  2  0  0  0  0
  4 20  1  0  0  0  0
  5 19  1  0  0  0  0
  5  7  1  0  0  0  0
  6  7  2  0  0  0  0
  6 12  1  0  0  0  0
  7  8  1  0  0  0  0
  8  9  1  0  0  0  0
  8 10  2  0  0  0  0
 10 11  1  0  0  0  0
 11 12  2  0  0  0  0
 14 17  1  0  0  0  0
 15 23  1  0  0  0  0
 15 16  1  0  0  0  0
 16 19  1  0  0  0  0
 19 22  1  0  0  0  0
 22  2  1  6  0  0  0
 22 23  1  0  0  0  0
 23 24  1  1  0  0  0
 24 25  1  0  0  0  0
 25 26  1  0  0  0  0
M  CHG  1  18  -1
M  END
>  <CHROM.1>
28.14994682,-73.77915785,-43.05910538,-171.36914846,171.65680760,175.61419573
24.74020163,41.74886172,66.12628621,-0.46534808,-0.08295816,-3.01969039

>  <Name>
ligand

>  <RI>
0

>  <Rbt.Current_Directory>
/home/itssahil/PROJECTS/Mol_Feturizer/New_Systems/rnas/2HOL

>  <Rbt.Executable>
rbdock ($Id: //depot/dev/client3/rdock/2013.1/src/exe/rbdock.cxx#4 $)

>  <Rbt.Library>
libRbt.so (2013.1, Build901 2013/11/27)

>  <Rbt.Parameter_File>
/export/apps/rDock/src/rDock_2013.1_src/data/scripts/dock_solv.prm

>  <Rbt.Receptor>
prm/pocket_docking_8.prm

>  <SCORE>
-13.4733

>  <SCORE.INTER>
-11.3475

>  <SCORE.INTER.CONST>
1

>  <SCORE.INTER.POLAR>
0

>  <SCORE.INTER.ROT>
6

>  <SCORE.INTER.SOLV>
15.2909

>  <SCORE.INTER.VDW>
-20.262

>  <SCORE.INTER.norm>
-0.436443

>  <SCORE.INTRA>
-2.12574

>  <SCORE.INTRA.DIHEDRAL>
-3.65508

>  <SCORE.INTRA.DIHEDRAL.0>
9.33621

>  <SCORE.INTRA.POLAR>
0

>  <SCORE.INTRA.POLAR.0>
0

>  <SCORE.INTRA.REPUL>
0

>  <SCORE.INTRA.REPUL.0>
0

>  <SCORE.INTRA.SOLV>
0.750432

>  <SCORE.INTRA.SOLV.lig_0>
-65.9238

>  <SCORE.INTRA.VDW>
-0.673413

>  <SCORE.INTRA.VDW.0>
-0.405582

>  <SCORE.INTRA.norm>
-0.0817592

>  <SCORE.RESTR>
0

>  <SCORE.RESTR.CAVITY>
0

>  <SCORE.RESTR.norm>
0

>  <SCORE.SYSTEM>
0

>  <SCORE.SYSTEM.CONST>
0

>  <SCORE.SYSTEM.DIHEDRAL>
0

>  <SCORE.SYSTEM.SOLV>
0

>  <SCORE.SYSTEM.norm>
0

>  <SCORE.heavy>
26

>  <SCORE.norm>
-0.518203

>  <RMSD>
8.623

$$$$
ligand
 OpenBabel11021811443D
libRbt.so/2013.1/901 2013/11/27
 26 28  0  0  0  0  0  0  0  0999 V2000
   23.6685   35.5688   76.1383 C   0  0  0  0  0  0  0  0  0  0  0  0
   21.7895   35.3553   70.1823 C   0  0  0  0  0  0  0  0  0  0  0  0
   21.5712   41.3417   67.0345 P   0  0  1  0  0  0  0  0  0  0  0  0
   23.3330   43.2091   66.7254 P   0  0  1  0  0  0  0  0  0  0  0  0
   24.5477   34.9918   70.5425 C   0  0  0  0  0  0  0  0  0  0  0  0
   24.7951   36.2420   72.7076 C   0  0  0  0  0  0  0  0  0  0  0  0
   24.3144   35.1432   72.0237 C   0  0  0  0  0  0  0  0  0  0  0  0
   23.6062   34.1760   72.7390 C   0  0  0  0  0  0  0  0  0  0  0  0
   23.1030   33.0535   72.0986 N   0  0  0  0  0  0  0  0  0  0  0  0
   23.4259   34.3440   74.0457 N   0  0  0  0  0  0  0  0  0  0  0  0
   23.8980   35.4106   74.6578 C   0  0  0  0  0  0  0  0  0  0  0  0
   24.5711   36.3421   74.0111 N   0  0  0  0  0  0  0  0  0  0  0  0
   20.2080   41.5106   66.4824 O   0  0  0  0  0  0  0  0  0  0  0  0
   23.3140   42.4337   65.3888 O   0  0  0  0  0  0  0  0  0  0  0  0
   23.9332   38.2706   68.6831 S   0  0  0  0  0  0  0  0  0  0  0  0
   24.9516   37.0654   69.4097 C   0  0  0  0  0  0  0  0  0  0  0  0
   22.5674   40.8581   65.8677 O   0  0  0  0  0  0  0  0  0  0  0  0
   23.2285   44.7884   66.4334 O   0  5  0  0  0  0  0  0  0  0  0  0
   24.0752   36.1916   69.8481 N   0  0  0  0  0  0  0  0  0  0  0  0
   22.0853   42.7461   67.6319 O   0  0  0  0  0  0  0  0  0  0  0  0
   24.6517   42.9104   67.4733 O   0  0  0  0  0  0  0  0  0  0  0  0
   22.7836   36.3688   69.6740 C   0  0  2  0  0  0  0  0  0  0  0  0
   22.3649   37.4894   69.0325 C   0  0  2  0  0  0  0  0  0  0  0  0
   20.9676   37.9453   68.7032 C   0  0  0  0  0  0  0  0  0  0  0  0
   21.0239   39.0385   67.6337 C   0  0  0  0  0  0  0  0  0  0  0  0
   21.5431   40.2395   68.2082 O   0  0  0  0  0  0  0  0  0  0  0  0
  1 11  1  0  0  0  0
  3 13  1  6  0  0  0
  3 17  1  0  0  0  0
  3 20  1  0  0  0  0
  3 26  1  0  0  0  0
  4 14  1  0  0  0  0
  4 18  1  6  0  0  0
  4 21  2  0  0  0  0
  4 20  1  0  0  0  0
  5 19  1  0  0  0  0
  5  7  1  0  0  0  0
  6  7  2  0  0  0  0
  6 12  1  0  0  0  0
  7  8  1  0  0  0  0
  8  9  1  0  0  0  0
  8 10  2  0  0  0  0
 10 11  1  0  0  0  0
 11 12  2  0  0  0  0
 14 17  1  0  0  0  0
 15 23  1  0  0  0  0
 15 16  1  0  0  0  0
 16 19  1  0  0  0  0
 19 22  1  0  0  0  0
 22  2  1  1  0  0  0
 22 23  1  0  0  0  0
 23 24  1  6  0  0  0
 24 25  1  0  0  0  0
 25 26  1  0  0  0  0
M  CHG  1  18  -1
M  END
>  <CHROM.1>
104.20195910,-53.98109304,16.34166429,-71.50221530,-179.86822175,57.49915640
23.02865265,38.72237801,69.32744189,-1.37286809,-0.89904345,-0.54708049

>  <Name>
ligand

>  <RI>
0

>  <Rbt.Current_Directory>
/home/itssahil/PROJECTS/Mol_Feturizer/New_Systems/rnas/2HOL

>  <Rbt.Executable>
rbdock ($Id: //depot/dev/client3/rdock/2013.1/src/exe/rbdock.cxx#4 $)

>  <Rbt.Library>
libRbt.so (2013.1, Build901 2013/11/27)

>  <Rbt.Parameter_File>
/export/apps/rDock/src/rDock_2013.1_src/data/scripts/dock_solv.prm

>  <Rbt.Receptor>
prm/blind_docking_100.prm

>  <SCORE>
-18.7614

>  <SCORE.INTER>
-15.6461

>  <SCORE.INTER.CONST>
1

>  <SCORE.INTER.POLAR>
0

>  <SCORE.INTER.ROT>
6

>  <SCORE.INTER.SOLV>
11.0445

>  <SCORE.INTER.VDW>
-21.7122

>  <SCORE.INTER.norm>
-0.601772

>  <SCORE.INTRA>
-3.11529

>  <SCORE.INTRA.DIHEDRAL>
-4.16286

>  <SCORE.INTRA.DIHEDRAL.0>
9.33621

>  <SCORE.INTRA.POLAR>
0

>  <SCORE.INTRA.POLAR.0>
0

>  <SCORE.INTRA.REPUL>
0

>  <SCORE.INTRA.REPUL.0>
0

>  <SCORE.INTRA.SOLV>
1.03263

>  <SCORE.INTRA.SOLV.lig_0>
-65.9238

>  <SCORE.INTRA.VDW>
-1.55018

>  <SCORE.INTRA.VDW.0>
-0.405582

>  <SCORE.INTRA.norm>
-0.119819

>  <SCORE.RESTR>
0

>  <SCORE.RESTR.CAVITY>
0

>  <SCORE.RESTR.norm>
0

>  <SCORE.SYSTEM>
0

>  <SCORE.SYSTEM.CONST>
0

>  <SCORE.SYSTEM.DIHEDRAL>
0

>  <SCORE.SYSTEM.SOLV>
0

>  <SCORE.SYSTEM.norm>
0

>  <SCORE.heavy>
26

>  <SCORE.norm>
-0.721591

>  <RMSD>
8.631

$$$$
ligand
 OpenBabel11021811443D
libRbt.so/2013.1/901 2013/11/27
 26 28  0  0  0  0  0  0  0  0999 V2000
   26.3346   37.8386   75.6306 C   0  0  0  0  0  0  0  0  0  0  0  0
   26.0339   37.1517   68.9292 C   0  0  0  0  0  0  0  0  0  0  0  0
   22.5465   42.5380   66.9814 P   0  0  1  0  0  0  0  0  0  0  0  0
   22.5833   44.9391   66.0224 P   0  0  1  0  0  0  0  0  0  0  0  0
   24.6797   35.4731   70.7231 C   0  0  0  0  0  0  0  0  0  0  0  0
   26.1410   37.0237   72.0542 C   0  0  0  0  0  0  0  0  0  0  0  0
   25.1168   36.0984   72.0228 C   0  0  0  0  0  0  0  0  0  0  0  0
   24.4960   35.7569   73.2256 C   0  0  0  0  0  0  0  0  0  0  0  0
   23.4625   34.8322   73.2477 N   0  0  0  0  0  0  0  0  0  0  0  0
   24.9142   36.3273   74.3516 N   0  0  0  0  0  0  0  0  0  0  0  0
   25.8924   37.2094   74.3353 C   0  0  0  0  0  0  0  0  0  0  0  0
   26.4994   37.5532   73.2163 N   0  0  0  0  0  0  0  0  0  0  0  0
   21.6634   42.2098   68.1234 O   0  0  0  0  0  0  0  0  0  0  0  0
   21.3293   44.2709   65.4150 O   0  0  0  0  0  0  0  0  0  0  0  0
   22.1683   37.7793   69.0027 S   0  0  0  0  0  0  0  0  0  0  0  0
   22.6100   36.5145   70.1084 C   0  0  0  0  0  0  0  0  0  0  0  0
   21.6935   42.5115   65.6177 O   0  0  0  0  0  0  0  0  0  0  0  0
   22.1874   46.3765   66.6287 O   0  5  0  0  0  0  0  0  0  0  0  0
   23.9112   36.4478   69.9459 N   0  0  0  0  0  0  0  0  0  0  0  0
   23.1744   44.0057   67.1938 O   0  0  0  0  0  0  0  0  0  0  0  0
   23.6517   45.1220   64.9212 O   0  0  0  0  0  0  0  0  0  0  0  0
   24.5387   37.2395   69.1037 C   0  0  2  0  0  0  0  0  0  0  0  0
   23.8085   38.1329   68.3888 C   0  0  2  0  0  0  0  0  0  0  0  0
   24.2565   39.1437   67.3658 C   0  0  0  0  0  0  0  0  0  0  0  0
   23.1493   40.1774   67.1478 C   0  0  0  0  0  0  0  0  0  0  0  0
   23.7353   41.4554   66.8927 O   0  0  0  0  0  0  0  0  0  0  0  0
  1 11  1  0  0  0  0
  3 13  1  1  0  0  0
  3 17  1  0  0  0  0
  3 20  1  0  0  0  0
  3 26  1  0  0  0  0
  4 14  1  0  0  0  0
  4 18  1  1  0  0  0
  4 21  2  0  0  0  0
  4 20  1  0  0  0  0
  5 19  1  0  0  0  0
  5  7  1  0  0  0  0
  6  7  2  0  0  0  0
  6 12  1  0  0  0  0
  7  8  1  0  0  0  0
  8  9  1  0  0  0  0
  8 10  2  0  0  0  0
 10 11  1  0  0  0  0
 11 12  2  0  0  0  0
 14 17  1  0  0  0  0
 15 23  1  0  0  0  0
 15 16  1  0  0  0  0
 16 19  1  0  0  0  0
 19 22  1  0  0  0  0
 22  2  1  6  0  0  0
 22 23  1  0  0  0  0
 23 24  1  1  0  0  0
 24 25  1  0  0  0  0
 25 26  1  0  0  0  0
M  CHG  1  18  -1
M  END
>  <CHROM.1>
-89.77069868,-74.53309214,16.27880666,145.46553256,-168.36675220,41.39967444
23.62834808,39.89215041,69.07104246,-0.99773360,-1.10866309,-0.17368972

>  <Name>
ligand

>  <RI>
0

>  <Rbt.Current_Directory>
/home/itssahil/PROJECTS/Mol_Feturizer/New_Systems/rnas/2HOL

>  <Rbt.Executable>
rbdock ($Id: //depot/dev/client3/rdock/2013.1/src/exe/rbdock.cxx#4 $)

>  <Rbt.Library>
libRbt.so (2013.1, Build901 2013/11/27)

>  <Rbt.Parameter_File>
/export/apps/rDock/src/rDock_2013.1_src/data/scripts/dock_solv.prm

>  <Rbt.Receptor>
prm/pocket_docking_8.prm

>  <SCORE>
-15.4924

>  <SCORE.INTER>
-14.811

>  <SCORE.INTER.CONST>
1

>  <SCORE.INTER.POLAR>
0

>  <SCORE.INTER.ROT>
6

>  <SCORE.INTER.SOLV>
16.3231

>  <SCORE.INTER.VDW>
-22.9151

>  <SCORE.INTER.norm>
-0.569655

>  <SCORE.INTRA>
-0.681377

>  <SCORE.INTRA.DIHEDRAL>
-0.0863416

>  <SCORE.INTRA.DIHEDRAL.0>
9.33621

>  <SCORE.INTRA.POLAR>
0

>  <SCORE.INTRA.POLAR.0>
0

>  <SCORE.INTRA.REPUL>
0

>  <SCORE.INTRA.REPUL.0>
0

>  <SCORE.INTRA.SOLV>
-0.137208

>  <SCORE.INTRA.SOLV.lig_0>
-65.9238

>  <SCORE.INTRA.VDW>
-0.569602

>  <SCORE.INTRA.VDW.0>
-0.405582

>  <SCORE.INTRA.norm>
-0.0262068

>  <SCORE.RESTR>
0

>  <SCORE.RESTR.CAVITY>
0

>  <SCORE.RESTR.norm>
0

>  <SCORE.SYSTEM>
0

>  <SCORE.SYSTEM.CONST>
0

>  <SCORE.SYSTEM.DIHEDRAL>
0

>  <SCORE.SYSTEM.SOLV>
0

>  <SCORE.SYSTEM.norm>
0

>  <SCORE.heavy>
26

>  <SCORE.norm>
-0.595862

>  <RMSD>
8.640

$$$$
ligand
 OpenBabel11021811443D
libRbt.so/2013.1/901 2013/11/27
 26 28  0  0  0  0  0  0  0  0999 V2000
   22.9033   29.6684   69.9503 C   0  0  0  0  0  0  0  0  0  0  0  0
   24.8126   36.2643   69.9699 C   0  0  0  0  0  0  0  0  0  0  0  0
   21.8374   41.1542   66.8744 P   0  0  1  0  0  0  0  0  0  0  0  0
   22.2557   43.7015   66.7244 P   0  0  1  0  0  0  0  0  0  0  0  0
   22.7698   35.1376   71.5278 C   0  0  0  0  0  0  0  0  0  0  0  0
   22.6362   33.3283   69.7898 C   0  0  0  0  0  0  0  0  0  0  0  0
   22.8053   33.6895   71.1117 C   0  0  0  0  0  0  0  0  0  0  0  0
   23.0103   32.6793   72.0530 C   0  0  0  0  0  0  0  0  0  0  0  0
   23.1850   32.9898   73.3933 N   0  0  0  0  0  0  0  0  0  0  0  0
   23.0300   31.4134   71.6462 N   0  0  0  0  0  0  0  0  0  0  0  0
   22.8690   31.1137   70.3737 C   0  0  0  0  0  0  0  0  0  0  0  0
   22.6731   32.0441   69.4600 N   0  0  0  0  0  0  0  0  0  0  0  0
   20.4806   40.6111   66.6383 O   0  0  0  0  0  0  0  0  0  0  0  0
   22.2449   43.1979   65.2634 O   0  0  0  0  0  0  0  0  0  0  0  0
   21.2239   37.1812   68.6960 S   0  0  0  0  0  0  0  0  0  0  0  0
   21.1394   36.1670   70.1037 C   0  0  0  0  0  0  0  0  0  0  0  0
   22.5593   41.4286   65.4633 O   0  0  0  0  0  0  0  0  0  0  0  0
   21.2973   44.9877   66.8577 O   0  5  0  0  0  0  0  0  0  0  0  0
   22.4081   35.9681   70.3770 N   0  0  0  0  0  0  0  0  0  0  0  0
   21.7268   42.5335   67.6983 O   0  0  0  0  0  0  0  0  0  0  0  0
   23.6971   44.0907   67.1225 O   0  0  0  0  0  0  0  0  0  0  0  0
   23.3599   36.5011   69.6423 C   0  0  2  0  0  0  0  0  0  0  0  0
   23.0046   37.2637   68.5770 C   0  0  2  0  0  0  0  0  0  0  0  0
   23.8705   37.9826   67.5759 C   0  0  0  0  0  0  0  0  0  0  0  0
   23.0346   39.0262   66.8314 C   0  0  0  0  0  0  0  0  0  0  0  0
   22.7014   40.0924   67.7225 O   0  0  0  0  0  0  0  0  0  0  0  0
  1 11  1  0  0  0  0
  3 13  1  6  0  0  0
  3 17  1  0  0  0  0
  3 20  1  0  0  0  0
  3 26  1  0  0  0  0
  4 14  1  0  0  0  0
  4 18  1  1  0  0  0
  4 21  2  0  0  0  0
  4 20  1  0  0  0  0
  5 19  1  0  0  0  0
  5  7  1  0  0  0  0
  6  7  2  0  0  0  0
  6 12  1  0  0  0  0
  7  8  1  0  0  0  0
  8  9  1  0  0  0  0
  8 10  2  0  0  0  0
 10 11  1  0  0  0  0
 11 12  2  0  0  0  0
 14 17  1  0  0  0  0
 15 23  1  0  0  0  0
 15 16  1  0  0  0  0
 16 19  1  0  0  0  0
 19 22  1  0  0  0  0
 22  2  1  6  0  0  0
 22 23  1  0  0  0  0
 23 24  1  1  0  0  0
 24 25  1  0  0  0  0
 25 26  1  0  0  0  0
M  CHG  1  18  -1
M  END
>  <CHROM.1>
86.37635771,5.68041832,16.56472392,70.00652514,179.53246881,73.53066969,22.48020809
37.97146609,68.60876463,1.29745347,1.32201647,3.01149701

>  <Name>
ligand

>  <RI>
0

>  <Rbt.Current_Directory>
/home/itssahil/PROJECTS/Mol_Feturizer/New_Systems/rnas/2HOL

>  <Rbt.Executable>
rbdock ($Id: //depot/dev/client3/rdock/2013.1/src/exe/rbdock.cxx#4 $)

>  <Rbt.Library>
libRbt.so (2013.1, Build901 2013/11/27)

>  <Rbt.Parameter_File>
/export/apps/rDock/src/rDock_2013.1_src/data/scripts/dock_solv.prm

>  <Rbt.Receptor>
prm/blind_docking_100.prm

>  <SCORE>
-20.1035

>  <SCORE.INTER>
-16.5162

>  <SCORE.INTER.CONST>
1

>  <SCORE.INTER.POLAR>
0

>  <SCORE.INTER.ROT>
6

>  <SCORE.INTER.SOLV>
13.45

>  <SCORE.INTER.VDW>
-23.0941

>  <SCORE.INTER.norm>
-0.635237

>  <SCORE.INTRA>
-3.58736

>  <SCORE.INTRA.DIHEDRAL>
-3.99742

>  <SCORE.INTRA.DIHEDRAL.0>
9.33621

>  <SCORE.INTRA.POLAR>
0

>  <SCORE.INTRA.POLAR.0>
0

>  <SCORE.INTRA.REPUL>
0

>  <SCORE.INTRA.REPUL.0>
0

>  <SCORE.INTRA.SOLV>
-0.689749

>  <SCORE.INTRA.SOLV.lig_0>
-65.9238

>  <SCORE.INTRA.VDW>
-1.24377

>  <SCORE.INTRA.VDW.0>
-0.405582

>  <SCORE.INTRA.norm>
-0.137975

>  <SCORE.RESTR>
0

>  <SCORE.RESTR.CAVITY>
0

>  <SCORE.RESTR.norm>
0

>  <SCORE.SYSTEM>
0

>  <SCORE.SYSTEM.CONST>
0

>  <SCORE.SYSTEM.DIHEDRAL>
0

>  <SCORE.SYSTEM.SOLV>
0

>  <SCORE.SYSTEM.norm>
0

>  <SCORE.heavy>
26

>  <SCORE.norm>
-0.773212

>  <RMSD>
8.644

$$$$
ligand
 OpenBabel11021811443D
libRbt.so/2013.1/901 2013/11/27
 26 28  0  0  0  0  0  0  0  0999 V2000
   29.0121   37.7829   66.3949 C   0  0  0  0  0  0  0  0  0  0  0  0
   23.5182   40.5403   64.7841 C   0  0  0  0  0  0  0  0  0  0  0  0
   19.1062   42.1030   65.2905 P   0  0  1  0  0  0  0  0  0  0  0  0
   18.0435   39.8169   64.7154 P   0  0  1  0  0  0  0  0  0  0  0  0
   23.3331   38.0747   66.1093 C   0  0  0  0  0  0  0  0  0  0  0  0
   25.6094   38.0907   65.0463 C   0  0  0  0  0  0  0  0  0  0  0  0
   24.8361   37.9972   66.1864 C   0  0  0  0  0  0  0  0  0  0  0  0
   25.4821   37.8294   67.4124 C   0  0  0  0  0  0  0  0  0  0  0  0
   24.7507   37.7295   68.5866 N   0  0  0  0  0  0  0  0  0  0  0  0
   26.8098   37.7607   67.4375 N   0  0  0  0  0  0  0  0  0  0  0  0
   27.5092   37.8594   66.3256 C   0  0  0  0  0  0  0  0  0  0  0  0
   26.9295   38.0181   65.1518 N   0  0  0  0  0  0  0  0  0  0  0  0
   18.2447   43.2881   65.5028 O   0  0  0  0  0  0  0  0  0  0  0  0
   17.8945   39.9684   66.2460 O   0  0  0  0  0  0  0  0  0  0  0  0
   21.9845   40.8366   68.3761 S   0  0  0  0  0  0  0  0  0  0  0  0
   22.3831   39.1863   68.0087 C   0  0  0  0  0  0  0  0  0  0  0  0
   19.1428   41.2178   66.6331 O   0  0  0  0  0  0  0  0  0  0  0  0
   16.6305   39.3854   64.0769 O   0  5  0  0  0  0  0  0  0  0  0  0
   22.8703   39.2841   66.7934 N   0  0  0  0  0  0  0  0  0  0  0  0
   18.5144   41.2199   64.0808 O   0  0  0  0  0  0  0  0  0  0  0  0
   19.0999   38.7321   64.4074 O   0  0  0  0  0  0  0  0  0  0  0  0
   22.9549   40.4442   66.1796 C   0  0  2  0  0  0  0  0  0  0  0  0
   22.5163   41.5530   66.8282 C   0  0  2  0  0  0  0  0  0  0  0  0
   22.4892   42.9881   66.3717 C   0  0  0  0  0  0  0  0  0  0  0  0
   21.0553   43.3847   66.0130 C   0  0  0  0  0  0  0  0  0  0  0  0
   20.5987   42.5825   64.9221 O   0  0  0  0  0  0  0  0  0  0  0  0
  1 11  1  0  0  0  0
  3 13  1  1  0  0  0
  3 17  1  0  0  0  0
  3 20  1  0  0  0  0
  3 26  1  0  0  0  0
  4 14  1  0  0  0  0
  4 18  1  6  0  0  0
  4 21  2  0  0  0  0
  4 20  1  0  0  0  0
  5 19  1  0  0  0  0
  5  7  1  0  0  0  0
  6  7  2  0  0  0  0
  6 12  1  0  0  0  0
  7  8  1  0  0  0  0
  8  9  1  0  0  0  0
  8 10  2  0  0  0  0
 10 11  1  0  0  0  0
 11 12  2  0  0  0  0
 14 17  1  0  0  0  0
 15 23  1  0  0  0  0
 15 16  1  0  0  0  0
 16 19  1  0  0  0  0
 19 22  1  0  0  0  0
 22  2  1  6  0  0  0
 22 23  1  0  0  0  0
 23 24  1  1  0  0  0
 24 25  1  0  0  0  0
 25 26  1  0  0  0  0
M  CHG  1  18  -1
M  END
>  <CHROM.1>
-100.93275152,-114.49818857,-75.13089886,-62.58107488,135.28352579,58.66925850
21.85825221,40.09624145,66.03440168,-0.28410113,-0.29304957,0.31999291

>  <Name>
ligand

>  <RI>
0

>  <Rbt.Current_Directory>
/home/itssahil/PROJECTS/Mol_Feturizer/New_Systems/rnas/2HOL

>  <Rbt.Executable>
rbdock ($Id: //depot/dev/client3/rdock/2013.1/src/exe/rbdock.cxx#4 $)

>  <Rbt.Library>
libRbt.so (2013.1, Build901 2013/11/27)

>  <Rbt.Parameter_File>
/export/apps/rDock/src/rDock_2013.1_src/data/scripts/dock_solv.prm

>  <Rbt.Receptor>
prm/pocket_docking_3.prm

>  <SCORE>
-19.5702

>  <SCORE.INTER>
-18.3202

>  <SCORE.INTER.CONST>
1

>  <SCORE.INTER.POLAR>
0

>  <SCORE.INTER.ROT>
6

>  <SCORE.INTER.SOLV>
30.2957

>  <SCORE.INTER.VDW>
-29.912

>  <SCORE.INTER.norm>
-0.704622

>  <SCORE.INTRA>
-1.25

>  <SCORE.INTRA.DIHEDRAL>
1.87365

>  <SCORE.INTRA.DIHEDRAL.0>
9.33621

>  <SCORE.INTRA.POLAR>
0

>  <SCORE.INTRA.POLAR.0>
0

>  <SCORE.INTRA.REPUL>
0

>  <SCORE.INTRA.REPUL.0>
0

>  <SCORE.INTRA.SOLV>
1.59067

>  <SCORE.INTRA.SOLV.lig_0>
-65.9238

>  <SCORE.INTRA.VDW>
-2.98216

>  <SCORE.INTRA.VDW.0>
-0.405582

>  <SCORE.INTRA.norm>
-0.0480769

>  <SCORE.RESTR>
0

>  <SCORE.RESTR.CAVITY>
0

>  <SCORE.RESTR.norm>
0

>  <SCORE.SYSTEM>
0

>  <SCORE.SYSTEM.CONST>
0

>  <SCORE.SYSTEM.DIHEDRAL>
0

>  <SCORE.SYSTEM.SOLV>
0

>  <SCORE.SYSTEM.norm>
0

>  <SCORE.heavy>
26

>  <SCORE.norm>
-0.752699

>  <RMSD>
8.662

$$$$
ligand
 OpenBabel11021811443D
libRbt.so/2013.1/901 2013/11/27
 26 28  0  0  0  0  0  0  0  0999 V2000
   28.7035   40.8430   71.5835 C   0  0  0  0  0  0  0  0  0  0  0  0
   24.6240   41.0129   64.5493 C   0  0  0  0  0  0  0  0  0  0  0  0
   19.1195   40.7503   65.2868 P   0  0  1  0  0  0  0  0  0  0  0  0
   19.6534   43.2715   65.4996 P   0  0  1  0  0  0  0  0  0  0  0  0
   26.7981   40.4549   66.2321 C   0  0  0  0  0  0  0  0  0  0  0  0
   28.2411   39.6707   68.1333 C   0  0  0  0  0  0  0  0  0  0  0  0
   27.3015   40.5588   67.6488 C   0  0  0  0  0  0  0  0  0  0  0  0
   26.8297   41.5556   68.5046 C   0  0  0  0  0  0  0  0  0  0  0  0
   25.8852   42.4718   68.0664 N   0  0  0  0  0  0  0  0  0  0  0  0
   27.2952   41.6104   69.7490 N   0  0  0  0  0  0  0  0  0  0  0  0
   28.1956   40.7454   70.1686 C   0  0  0  0  0  0  0  0  0  0  0  0
   28.6612   39.7920   69.3855 N   0  0  0  0  0  0  0  0  0  0  0  0
   18.1943   40.1055   66.2457 O   0  0  0  0  0  0  0  0  0  0  0  0
   18.2835   43.1979   64.7884 O   0  0  0  0  0  0  0  0  0  0  0  0
   24.2219   37.6500   66.5168 S   0  0  0  0  0  0  0  0  0  0  0  0
   25.7235   38.4252   66.9189 C   0  0  0  0  0  0  0  0  0  0  0  0
   18.2718   41.5070   64.1481 O   0  0  0  0  0  0  0  0  0  0  0  0
   19.5714   44.3185   66.7193 O   0  5  0  0  0  0  0  0  0  0  0  0
   25.6816   39.5086   66.1783 N   0  0  0  0  0  0  0  0  0  0  0  0
   20.0426   41.8153   66.0661 O   0  0  0  0  0  0  0  0  0  0  0  0
   20.7297   43.7372   64.4935 O   0  0  0  0  0  0  0  0  0  0  0  0
   24.6579   39.7635   65.3929 C   0  0  2  0  0  0  0  0  0  0  0  0
   23.6352   38.8719   65.3530 C   0  0  2  0  0  0  0  0  0  0  0  0
   22.3591   38.9054   64.5533 C   0  0  0  0  0  0  0  0  0  0  0  0
   21.2540   39.5676   65.3794 C   0  0  0  0  0  0  0  0  0  0  0  0
   20.0544   39.6300   64.6055 O   0  0  0  0  0  0  0  0  0  0  0  0
  1 11  1  0  0  0  0
  3 13  1  1  0  0  0
  3 17  1  0  0  0  0
  3 20  1  0  0  0  0
  3 26  1  0  0  0  0
  4 14  1  0  0  0  0
  4 18  1  1  0  0  0
  4 21  2  0  0  0  0
  4 20  1  0  0  0  0
  5 19  1  0  0  0  0
  5  7  1  0  0  0  0
  6  7  2  0  0  0  0
  6 12  1  0  0  0  0
  7  8  1  0  0  0  0
  8  9  1  0  0  0  0
  8 10  2  0  0  0  0
 10 11  1  0  0  0  0
 11 12  2  0  0  0  0
 14 17  1  0  0  0  0
 15 23  1  0  0  0  0
 15 16  1  0  0  0  0
 16 19  1  0  0  0  0
 19 22  1  0  0  0  0
 22  2  1  6  0  0  0
 22 23  1  0  0  0  0
 23 24  1  1  0  0  0
 24 25  1  0  0  0  0
 25 26  1  0  0  0  0
M  CHG  1  18  -1
M  END
>  <CHROM.1>
-38.15866817,86.10127448,87.42458386,178.47684317,-160.77734762,-93.71925338
23.07735450,40.79746383,66.45273715,-0.00145984,-0.43786266,0.43456224

>  <Name>
ligand

>  <RI>
0

>  <Rbt.Current_Directory>
/home/itssahil/PROJECTS/Mol_Feturizer/New_Systems/rnas/2HOL

>  <Rbt.Executable>
rbdock ($Id: //depot/dev/client3/rdock/2013.1/src/exe/rbdock.cxx#4 $)

>  <Rbt.Library>
libRbt.so (2013.1, Build901 2013/11/27)

>  <Rbt.Parameter_File>
/export/apps/rDock/src/rDock_2013.1_src/data/scripts/dock_solv.prm

>  <Rbt.Receptor>
prm/pocket_docking_3.prm

>  <SCORE>
-13.7969

>  <SCORE.INTER>
-13.8316

>  <SCORE.INTER.CONST>
1

>  <SCORE.INTER.POLAR>
0

>  <SCORE.INTER.ROT>
6

>  <SCORE.INTER.SOLV>
28.7706

>  <SCORE.INTER.VDW>
-26.4112

>  <SCORE.INTER.norm>
-0.531983

>  <SCORE.INTRA>
-0.541879

>  <SCORE.INTRA.DIHEDRAL>
-1.3231

>  <SCORE.INTRA.DIHEDRAL.0>
9.33621

>  <SCORE.INTRA.POLAR>
0

>  <SCORE.INTRA.POLAR.0>
0

>  <SCORE.INTRA.REPUL>
0

>  <SCORE.INTRA.REPUL.0>
0

>  <SCORE.INTRA.SOLV>
1.07044

>  <SCORE.INTRA.SOLV.lig_0>
-65.9238

>  <SCORE.INTRA.VDW>
-0.415544

>  <SCORE.INTRA.VDW.0>
-0.405582

>  <SCORE.INTRA.norm>
-0.0208415

>  <SCORE.RESTR>
0.576555

>  <SCORE.RESTR.CAVITY>
0.576555

>  <SCORE.RESTR.norm>
0.0221752

>  <SCORE.SYSTEM>
0

>  <SCORE.SYSTEM.CONST>
0

>  <SCORE.SYSTEM.DIHEDRAL>
0

>  <SCORE.SYSTEM.SOLV>
0

>  <SCORE.SYSTEM.norm>
0

>  <SCORE.heavy>
26

>  <SCORE.norm>
-0.530649

>  <RMSD>
8.663

$$$$
ligand
 OpenBabel11021811443D
libRbt.so/2013.1/901 2013/11/27
 26 28  0  0  0  0  0  0  0  0999 V2000
   32.5400   41.1883   66.2946 C   0  0  0  0  0  0  0  0  0  0  0  0
   25.3070   44.9681   65.2708 C   0  0  0  0  0  0  0  0  0  0  0  0
   20.6811   40.6432   66.3414 P   0  0  1  0  0  0  0  0  0  0  0  0
   22.1267   38.5876   65.7322 P   0  0  1  0  0  0  0  0  0  0  0  0
   27.9427   44.5435   66.1323 C   0  0  0  0  0  0  0  0  0  0  0  0
   30.1765   43.8890   67.0774 C   0  0  0  0  0  0  0  0  0  0  0  0
   29.1590   43.6547   66.1741 C   0  0  0  0  0  0  0  0  0  0  0  0
   29.2853   42.5731   65.3006 C   0  0  0  0  0  0  0  0  0  0  0  0
   28.2913   42.2956   64.3741 N   0  0  0  0  0  0  0  0  0  0  0  0
   30.3763   41.8157   65.3659 N   0  0  0  0  0  0  0  0  0  0  0  0
   31.3212   42.0725   66.2469 C   0  0  0  0  0  0  0  0  0  0  0  0
   31.2324   43.0863   67.0856 N   0  0  0  0  0  0  0  0  0  0  0  0
   19.2215   40.6216   66.0954 O   0  0  0  0  0  0  0  0  0  0  0  0
   21.4697   38.2434   67.0879 O   0  0  0  0  0  0  0  0  0  0  0  0
   25.5416   42.6410   68.4127 S   0  0  0  0  0  0  0  0  0  0  0  0
   27.1214   43.1542   67.9047 C   0  0  0  0  0  0  0  0  0  0  0  0
   21.0057   39.8741   67.7164 O   0  0  0  0  0  0  0  0  0  0  0  0
   21.9265   37.3607   64.7099 O   0  5  0  0  0  0  0  0  0  0  0  0
   26.8460   43.9058   66.8639 N   0  0  0  0  0  0  0  0  0  0  0  0
   21.4408   39.9115   65.1244 O   0  0  0  0  0  0  0  0  0  0  0  0
   23.6365   38.8403   65.9430 O   0  0  0  0  0  0  0  0  0  0  0  0
   25.6072   44.1009   66.4673 C   0  0  2  0  0  0  0  0  0  0  0  0
   24.6048   43.4974   67.1553 C   0  0  2  0  0  0  0  0  0  0  0  0
   23.1169   43.5408   66.9253 C   0  0  0  0  0  0  0  0  0  0  0  0
   22.5923   42.1215   66.6960 C   0  0  0  0  0  0  0  0  0  0  0  0
   21.1859   42.1687   66.4468 O   0  0  0  0  0  0  0  0  0  0  0  0
  1 11  1  0  0  0  0
  3 13  1  6  0  0  0
  3 17  1  0  0  0  0
  3 20  1  0  0  0  0
  3 26  1  0  0  0  0
  4 14  1  0  0  0  0
  4 18  1  6  0  0  0
  4 21  2  0  0  0  0
  4 20  1  0  0  0  0
  5 19  1  0  0  0  0
  5  7  1  0  0  0  0
  6  7  2  0  0  0  0
  6 12  1  0  0  0  0
  7  8  1  0  0  0  0
  8  9  1  0  0  0  0
  8 10  2  0  0  0  0
 10 11  1  0  0  0  0
 11 12  2  0  0  0  0
 14 17  1  0  0  0  0
 15 23  1  0  0  0  0
 15 16  1  0  0  0  0
 16 19  1  0  0  0  0
 19 22  1  0  0  0  0
 22  2  1  6  0  0  0
 22 23  1  0  0  0  0
 23 24  1  1  0  0  0
 24 25  1  0  0  0  0
 25 26  1  0  0  0  0
M  CHG  1  18  -1
M  END
>  <CHROM.1>
32.76203352,-99.08548431,-58.98609304,-178.64351271,-175.24964168,179.45847450
24.98555646,41.62568278,66.39040735,-0.34285305,-0.07709844,-2.88417770

>  <Name>
ligand

>  <RI>
0

>  <Rbt.Current_Directory>
/home/itssahil/PROJECTS/Mol_Feturizer/New_Systems/rnas/2HOL

>  <Rbt.Executable>
rbdock ($Id: //depot/dev/client3/rdock/2013.1/src/exe/rbdock.cxx#4 $)

>  <Rbt.Library>
libRbt.so (2013.1, Build901 2013/11/27)

>  <Rbt.Parameter_File>
/export/apps/rDock/src/rDock_2013.1_src/data/scripts/dock_solv.prm

>  <Rbt.Receptor>
prm/pocket_docking_6.prm

>  <SCORE>
-13.0731

>  <SCORE.INTER>
-10.4377

>  <SCORE.INTER.CONST>
1

>  <SCORE.INTER.POLAR>
0

>  <SCORE.INTER.ROT>
6

>  <SCORE.INTER.SOLV>
16.4032

>  <SCORE.INTER.VDW>
-20.0262

>  <SCORE.INTER.norm>
-0.40145

>  <SCORE.INTRA>
-2.63539

>  <SCORE.INTRA.DIHEDRAL>
-4.06553

>  <SCORE.INTRA.DIHEDRAL.0>
9.33621

>  <SCORE.INTRA.POLAR>
0

>  <SCORE.INTRA.POLAR.0>
0

>  <SCORE.INTRA.REPUL>
0

>  <SCORE.INTRA.REPUL.0>
0

>  <SCORE.INTRA.SOLV>
1.69035

>  <SCORE.INTRA.SOLV.lig_0>
-65.9238

>  <SCORE.INTRA.VDW>
-1.4478

>  <SCORE.INTRA.VDW.0>
-0.405582

>  <SCORE.INTRA.norm>
-0.101361

>  <SCORE.RESTR>
0

>  <SCORE.RESTR.CAVITY>
0

>  <SCORE.RESTR.norm>
0

>  <SCORE.SYSTEM>
0

>  <SCORE.SYSTEM.CONST>
0

>  <SCORE.SYSTEM.DIHEDRAL>
0

>  <SCORE.SYSTEM.SOLV>
0

>  <SCORE.SYSTEM.norm>
0

>  <SCORE.heavy>
26

>  <SCORE.norm>
-0.502811

>  <RMSD>
8.689

$$$$
ligand
 OpenBabel11021811443D
libRbt.so/2013.1/901 2013/11/27
 26 28  0  0  0  0  0  0  0  0999 V2000
   25.8315   36.3526   73.5859 C   0  0  0  0  0  0  0  0  0  0  0  0
   27.9642   39.9702   68.2791 C   0  0  0  0  0  0  0  0  0  0  0  0
   22.5486   42.1443   66.3780 P   0  0  1  0  0  0  0  0  0  0  0  0
   21.3908   44.4556   66.3145 P   0  0  1  0  0  0  0  0  0  0  0  0
   28.5231   40.6217   70.9498 C   0  0  0  0  0  0  0  0  0  0  0  0
   26.9299   38.6792   70.9643 C   0  0  0  0  0  0  0  0  0  0  0  0
   27.8113   39.4921   71.6488 C   0  0  0  0  0  0  0  0  0  0  0  0
   28.0267   39.2409   73.0050 C   0  0  0  0  0  0  0  0  0  0  0  0
   28.9019   40.0290   73.7374 N   0  0  0  0  0  0  0  0  0  0  0  0
   27.3755   38.2377   73.5862 N   0  0  0  0  0  0  0  0  0  0  0  0
   26.5466   37.4836   72.8939 C   0  0  0  0  0  0  0  0  0  0  0  0
   26.3210   37.6947   71.6119 N   0  0  0  0  0  0  0  0  0  0  0  0
   21.9386   40.9907   65.6788 O   0  0  0  0  0  0  0  0  0  0  0  0
   22.1362   44.3297   64.9667 O   0  0  0  0  0  0  0  0  0  0  0  0
   25.9330   43.0626   69.5648 S   0  0  0  0  0  0  0  0  0  0  0  0
   26.9659   42.4390   70.8145 C   0  0  0  0  0  0  0  0  0  0  0  0
   23.3592   43.0460   65.3208 O   0  0  0  0  0  0  0  0  0  0  0  0
   19.8739   44.9239   66.0494 O   0  5  0  0  0  0  0  0  0  0  0  0
   27.5502   41.4298   70.2113 N   0  0  0  0  0  0  0  0  0  0  0  0
   21.3905   43.0297   67.0625 O   0  0  0  0  0  0  0  0  0  0  0  0
   22.1046   45.5014   67.2000 O   0  0  0  0  0  0  0  0  0  0  0  0
   27.2836   41.1317   68.9583 C   0  0  2  0  0  0  0  0  0  0  0  0
   26.3754   41.8894   68.2922 C   0  0  2  0  0  0  0  0  0  0  0  0
   25.8813   41.7753   66.8738 C   0  0  0  0  0  0  0  0  0  0  0  0
   24.6114   40.9219   66.8408 C   0  0  0  0  0  0  0  0  0  0  0  0
   23.5571   41.6118   67.5149 O   0  0  0  0  0  0  0  0  0  0  0  0
  1 11  1  0  0  0  0
  3 13  1  6  0  0  0
  3 17  1  0  0  0  0
  3 20  1  0  0  0  0
  3 26  1  0  0  0  0
  4 14  1  0  0  0  0
  4 18  1  6  0  0  0
  4 21  2  0  0  0  0
  4 20  1  0  0  0  0
  5 19  1  0  0  0  0
  5  7  1  0  0  0  0
  6  7  2  0  0  0  0
  6 12  1  0  0  0  0
  7  8  1  0  0  0  0
  8  9  1  0  0  0  0
  8 10  2  0  0  0  0
 10 11  1  0  0  0  0
 11 12  2  0  0  0  0
 14 17  1  0  0  0  0
 15 23  1  0  0  0  0
 15 16  1  0  0  0  0
 16 19  1  0  0  0  0
 19 22  1  0  0  0  0
 22  2  1  1  0  0  0
 22 23  1  0  0  0  0
 23 24  1  6  0  0  0
 24 25  1  0  0  0  0
 25 26  1  0  0  0  0
M  CHG  1  18  -1
M  END
>  <CHROM.1>
89.29725462,49.98610386,-86.99745246,66.78950141,106.37531031,64.29857193
24.87313272,41.52186500,68.80628137,0.85223479,0.46582209,2.60463654

>  <Name>
ligand

>  <RI>
0

>  <Rbt.Current_Directory>
/home/itssahil/PROJECTS/Mol_Feturizer/New_Systems/rnas/2HOL

>  <Rbt.Executable>
rbdock ($Id: //depot/dev/client3/rdock/2013.1/src/exe/rbdock.cxx#4 $)

>  <Rbt.Library>
libRbt.so (2013.1, Build901 2013/11/27)

>  <Rbt.Parameter_File>
/export/apps/rDock/src/rDock_2013.1_src/data/scripts/dock_solv.prm

>  <Rbt.Receptor>
prm/pocket_docking_6.prm

>  <SCORE>
-13.6989

>  <SCORE.INTER>
-12.7448

>  <SCORE.INTER.CONST>
1

>  <SCORE.INTER.POLAR>
0

>  <SCORE.INTER.ROT>
6

>  <SCORE.INTER.SOLV>
20.2187

>  <SCORE.INTER.VDW>
-22.8361

>  <SCORE.INTER.norm>
-0.490184

>  <SCORE.INTRA>
-0.960935

>  <SCORE.INTRA.DIHEDRAL>
2.11241

>  <SCORE.INTRA.DIHEDRAL.0>
9.33621

>  <SCORE.INTRA.POLAR>
0

>  <SCORE.INTRA.POLAR.0>
0

>  <SCORE.INTRA.REPUL>
0

>  <SCORE.INTRA.REPUL.0>
0

>  <SCORE.INTRA.SOLV>
-0.523508

>  <SCORE.INTRA.SOLV.lig_0>
-65.9238

>  <SCORE.INTRA.VDW>
-1.75539

>  <SCORE.INTRA.VDW.0>
-0.405582

>  <SCORE.INTRA.norm>
-0.036959

>  <SCORE.RESTR>
0.00686291

>  <SCORE.RESTR.CAVITY>
0.00686291

>  <SCORE.RESTR.norm>
0.000263958

>  <SCORE.SYSTEM>
0

>  <SCORE.SYSTEM.CONST>
0

>  <SCORE.SYSTEM.DIHEDRAL>
0

>  <SCORE.SYSTEM.SOLV>
0

>  <SCORE.SYSTEM.norm>
0

>  <SCORE.heavy>
26

>  <SCORE.norm>
-0.526879

>  <RMSD>
8.719

$$$$
ligand
 OpenBabel11021811443D
libRbt.so/2013.1/901 2013/11/27
 26 28  0  0  0  0  0  0  0  0999 V2000
   28.7646   43.4348   67.0897 C   0  0  0  0  0  0  0  0  0  0  0  0
   25.0860   37.9394   68.9572 C   0  0  0  0  0  0  0  0  0  0  0  0
   20.9006   40.7901   65.9386 P   0  0  1  0  0  0  0  0  0  0  0  0
   18.5124   40.0916   65.2351 P   0  0  1  0  0  0  0  0  0  0  0  0
   27.0914   37.9933   66.9963 C   0  0  0  0  0  0  0  0  0  0  0  0
   26.6545   40.4404   67.3604 C   0  0  0  0  0  0  0  0  0  0  0  0
   27.5356   39.4332   67.0205 C   0  0  0  0  0  0  0  0  0  0  0  0
   28.8486   39.7825   66.7002 C   0  0  0  0  0  0  0  0  0  0  0  0
   29.7721   38.8082   66.3516 N   0  0  0  0  0  0  0  0  0  0  0  0
   29.1999   41.0647   66.7285 N   0  0  0  0  0  0  0  0  0  0  0  0
   28.3277   41.9934   67.0632 C   0  0  0  0  0  0  0  0  0  0  0  0
   27.0802   41.6966   67.3709 N   0  0  0  0  0  0  0  0  0  0  0  0
   21.7140   41.6487   65.0482 O   0  0  0  0  0  0  0  0  0  0  0  0
   18.3769   41.5289   65.7864 O   0  0  0  0  0  0  0  0  0  0  0  0
   23.6714   37.8038   65.3071 S   0  0  0  0  0  0  0  0  0  0  0  0
   25.4067   37.8811   65.2947 C   0  0  0  0  0  0  0  0  0  0  0  0
   19.8779   41.7041   66.7791 O   0  0  0  0  0  0  0  0  0  0  0  0
   17.7661   39.9878   63.8129 O   0  5  0  0  0  0  0  0  0  0  0  0
   25.6903   37.9211   66.5761 N   0  0  0  0  0  0  0  0  0  0  0  0
   20.0712   39.7320   65.0520 O   0  0  0  0  0  0  0  0  0  0  0  0
   17.8680   39.0983   66.2279 O   0  0  0  0  0  0  0  0  0  0  0  0
   24.7441   37.8941   67.4892 C   0  0  2  0  0  0  0  0  0  0  0  0
   23.4514   37.8320   67.0799 C   0  0  2  0  0  0  0  0  0  0  0  0
   22.1844   37.7936   67.8937 C   0  0  0  0  0  0  0  0  0  0  0  0
   21.1814   38.8016   67.3280 C   0  0  0  0  0  0  0  0  0  0  0  0
   21.8689   39.9964   66.9514 O   0  0  0  0  0  0  0  0  0  0  0  0
  1 11  1  0  0  0  0
  3 13  1  6  0  0  0
  3 17  1  0  0  0  0
  3 20  1  0  0  0  0
  3 26  1  0  0  0  0
  4 14  1  0  0  0  0
  4 18  1  6  0  0  0
  4 21  2  0  0  0  0
  4 20  1  0  0  0  0
  5 19  1  0  0  0  0
  5  7  1  0  0  0  0
  6  7  2  0  0  0  0
  6 12  1  0  0  0  0
  7  8  1  0  0  0  0
  8  9  1  0  0  0  0
  8 10  2  0  0  0  0
 10 11  1  0  0  0  0
 11 12  2  0  0  0  0
 14 17  1  0  0  0  0
 15 23  1  0  0  0  0
 15 16  1  0  0  0  0
 16 19  1  0  0  0  0
 19 22  1  0  0  0  0
 22  2  1  6  0  0  0
 22 23  1  0  0  0  0
 23 24  1  1  0  0  0
 24 25  1  0  0  0  0
 25 26  1  0  0  0  0
M  CHG  1  18  -1
M  END
>  <CHROM.1>
86.20856870,33.47391360,-47.48793996,-40.09084115,161.28456307,-154.03285686
23.34687218,39.75298839,66.35694244,-0.02925666,-0.15300642,-0.09281358

>  <Name>
ligand

>  <RI>
0

>  <Rbt.Current_Directory>
/home/itssahil/PROJECTS/Mol_Feturizer/New_Systems/rnas/2HOL

>  <Rbt.Executable>
rbdock ($Id: //depot/dev/client3/rdock/2013.1/src/exe/rbdock.cxx#4 $)

>  <Rbt.Library>
libRbt.so (2013.1, Build901 2013/11/27)

>  <Rbt.Parameter_File>
/export/apps/rDock/src/rDock_2013.1_src/data/scripts/dock_solv.prm

>  <Rbt.Receptor>
prm/pocket_docking_6.prm

>  <SCORE>
-14.6163

>  <SCORE.INTER>
-13.0761

>  <SCORE.INTER.CONST>
1

>  <SCORE.INTER.POLAR>
0

>  <SCORE.INTER.ROT>
6

>  <SCORE.INTER.SOLV>
23.1218

>  <SCORE.INTER.VDW>
-24.0246

>  <SCORE.INTER.norm>
-0.502926

>  <SCORE.INTRA>
-1.54019

>  <SCORE.INTRA.DIHEDRAL>
-0.332046

>  <SCORE.INTRA.DIHEDRAL.0>
9.33621

>  <SCORE.INTRA.POLAR>
0

>  <SCORE.INTRA.POLAR.0>
0

>  <SCORE.INTRA.REPUL>
0

>  <SCORE.INTRA.REPUL.0>
0

>  <SCORE.INTRA.SOLV>
0.380594

>  <SCORE.INTRA.SOLV.lig_0>
-65.9238

>  <SCORE.INTRA.VDW>
-1.56446

>  <SCORE.INTRA.VDW.0>
-0.405582

>  <SCORE.INTRA.norm>
-0.059238

>  <SCORE.RESTR>
0

>  <SCORE.RESTR.CAVITY>
0

>  <SCORE.RESTR.norm>
0

>  <SCORE.SYSTEM>
0

>  <SCORE.SYSTEM.CONST>
0

>  <SCORE.SYSTEM.DIHEDRAL>
0

>  <SCORE.SYSTEM.SOLV>
0

>  <SCORE.SYSTEM.norm>
0

>  <SCORE.heavy>
26

>  <SCORE.norm>
-0.562164

>  <RMSD>
8.721

$$$$
ligand
 OpenBabel11021811443D
libRbt.so/2013.1/901 2013/11/27
 26 28  0  0  0  0  0  0  0  0999 V2000
   26.4639   37.3985   71.4810 C   0  0  0  0  0  0  0  0  0  0  0  0
   25.6433   40.8232   66.5757 C   0  0  0  0  0  0  0  0  0  0  0  0
   19.5548   42.7258   65.2175 P   0  0  1  0  0  0  0  0  0  0  0  0
   18.0156   40.6790   64.8596 P   0  0  1  0  0  0  0  0  0  0  0  0
   25.2440   38.1143   65.9657 C   0  0  0  0  0  0  0  0  0  0  0  0
   26.8525   38.0953   67.8955 C   0  0  0  0  0  0  0  0  0  0  0  0
   25.5655   37.9244   67.4258 C   0  0  0  0  0  0  0  0  0  0  0  0
   24.5693   37.5717   68.3378 C   0  0  0  0  0  0  0  0  0  0  0  0
   23.2609   37.3877   67.9163 N   0  0  0  0  0  0  0  0  0  0  0  0
   24.8947   37.4087   69.6168 N   0  0  0  0  0  0  0  0  0  0  0  0
   26.1350   37.5865   70.0229 C   0  0  0  0  0  0  0  0  0  0  0  0
   27.0989   37.9196   69.1869 N   0  0  0  0  0  0  0  0  0  0  0  0
   19.7715   43.6913   64.1164 O   0  0  0  0  0  0  0  0  0  0  0  0
   17.0663   41.8659   65.1387 O   0  0  0  0  0  0  0  0  0  0  0  0
   21.9844   40.0294   65.4251 S   0  0  0  0  0  0  0  0  0  0  0  0
   22.9570   38.5901   65.4282 C   0  0  0  0  0  0  0  0  0  0  0  0
   18.1614   43.0525   65.9521 O   0  0  0  0  0  0  0  0  0  0  0  0
   17.5176   39.8875   63.5496 O   0  5  0  0  0  0  0  0  0  0  0  0
   24.1214   39.0450   65.8294 N   0  0  0  0  0  0  0  0  0  0  0  0
   19.5088   41.2314   64.6188 O   0  0  0  0  0  0  0  0  0  0  0  0
   18.0102   39.7213   66.0722 O   0  0  0  0  0  0  0  0  0  0  0  0
   24.3000   40.3164   66.1147 C   0  0  2  0  0  0  0  0  0  0  0  0
   23.2489   41.1642   65.9775 C   0  0  2  0  0  0  0  0  0  0  0  0
   23.1695   42.6477   66.2256 C   0  0  0  0  0  0  0  0  0  0  0  0
   21.9253   43.2161   65.5394 C   0  0  0  0  0  0  0  0  0  0  0  0
   20.7612   42.8401   66.2780 O   0  0  0  0  0  0  0  0  0  0  0  0
  1 11  1  0  0  0  0
  3 13  1  6  0  0  0
  3 17  1  0  0  0  0
  3 20  1  0  0  0  0
  3 26  1  0  0  0  0
  4 14  1  0  0  0  0
  4 18  1  6  0  0  0
  4 21  2  0  0  0  0
  4 20  1  0  0  0  0
  5 19  1  0  0  0  0
  5  7  1  0  0  0  0
  6  7  2  0  0  0  0
  6 12  1  0  0  0  0
  7  8  1  0  0  0  0
  8  9  1  0  0  0  0
  8 10  2  0  0  0  0
 10 11  1  0  0  0  0
 11 12  2  0  0  0  0
 14 17  1  0  0  0  0
 15 23  1  0  0  0  0
 15 16  1  0  0  0  0
 16 19  1  0  0  0  0
 19 22  1  0  0  0  0
 22  2  1  6  0  0  0
 22 23  1  0  0  0  0
 23 24  1  1  0  0  0
 24 25  1  0  0  0  0
 25 26  1  0  0  0  0
M  CHG  1  18  -1
M  END
>  <CHROM.1>
-109.79913098,-127.83532460,-17.21388698,74.16231318,-150.00654052,-31.24118663
22.01660613,40.26678620,66.33277853,0.58452842,0.27157325,2.76011639

>  <Name>
ligand

>  <RI>
0

>  <Rbt.Current_Directory>
/home/itssahil/PROJECTS/Mol_Feturizer/New_Systems/rnas/2HOL

>  <Rbt.Executable>
rbdock ($Id: //depot/dev/client3/rdock/2013.1/src/exe/rbdock.cxx#4 $)

>  <Rbt.Library>
libRbt.so (2013.1, Build901 2013/11/27)

>  <Rbt.Parameter_File>
/export/apps/rDock/src/rDock_2013.1_src/data/scripts/dock_solv.prm

>  <Rbt.Receptor>
prm/pocket_docking_4.prm

>  <SCORE>
-11.9382

>  <SCORE.INTER>
-13.1614

>  <SCORE.INTER.CONST>
1

>  <SCORE.INTER.POLAR>
0

>  <SCORE.INTER.ROT>
6

>  <SCORE.INTER.SOLV>
28.9926

>  <SCORE.INTER.VDW>
-26.0385

>  <SCORE.INTER.norm>
-0.506209

>  <SCORE.INTRA>
1.22322

>  <SCORE.INTRA.DIHEDRAL>
0.768035

>  <SCORE.INTRA.DIHEDRAL.0>
9.33621

>  <SCORE.INTRA.POLAR>
0

>  <SCORE.INTRA.POLAR.0>
0

>  <SCORE.INTRA.REPUL>
0

>  <SCORE.INTRA.REPUL.0>
0

>  <SCORE.INTRA.SOLV>
2.65481

>  <SCORE.INTRA.SOLV.lig_0>
-65.9238

>  <SCORE.INTRA.VDW>
-0.488208

>  <SCORE.INTRA.VDW.0>
-0.405582

>  <SCORE.INTRA.norm>
0.0470468

>  <SCORE.RESTR>
0

>  <SCORE.RESTR.CAVITY>
0

>  <SCORE.RESTR.norm>
0

>  <SCORE.SYSTEM>
0

>  <SCORE.SYSTEM.CONST>
0

>  <SCORE.SYSTEM.DIHEDRAL>
0

>  <SCORE.SYSTEM.SOLV>
0

>  <SCORE.SYSTEM.norm>
0

>  <SCORE.heavy>
26

>  <SCORE.norm>
-0.459162

>  <RMSD>
8.734

$$$$
ligand
 OpenBabel11021811443D
libRbt.so/2013.1/901 2013/11/27
 26 28  0  0  0  0  0  0  0  0999 V2000
   29.5900   39.5084   68.9826 C   0  0  0  0  0  0  0  0  0  0  0  0
   24.1564   40.4008   65.6312 C   0  0  0  0  0  0  0  0  0  0  0  0
   19.1182   42.1461   65.3881 P   0  0  1  0  0  0  0  0  0  0  0  0
   18.6759   39.6676   64.7986 P   0  0  1  0  0  0  0  0  0  0  0  0
   24.5756   37.8952   66.8212 C   0  0  0  0  0  0  0  0  0  0  0  0
   25.9865   38.8769   68.6534 C   0  0  0  0  0  0  0  0  0  0  0  0
   25.9035   38.3218   67.3920 C   0  0  0  0  0  0  0  0  0  0  0  0
   27.0811   38.1654   66.6588 C   0  0  0  0  0  0  0  0  0  0  0  0
   27.0513   37.6135   65.3868 N   0  0  0  0  0  0  0  0  0  0  0  0
   28.2321   38.5590   67.1959 N   0  0  0  0  0  0  0  0  0  0  0  0
   28.2662   39.0797   68.4054 C   0  0  0  0  0  0  0  0  0  0  0  0
   27.1721   39.2412   69.1236 N   0  0  0  0  0  0  0  0  0  0  0  0
   17.9849   43.0888   65.5247 O   0  0  0  0  0  0  0  0  0  0  0  0
   18.3996   39.7873   66.3143 O   0  0  0  0  0  0  0  0  0  0  0  0
   21.7091   39.6816   68.6037 S   0  0  0  0  0  0  0  0  0  0  0  0
   22.7931   38.3465   68.3591 C   0  0  0  0  0  0  0  0  0  0  0  0
   19.2834   41.3038   66.7486 O   0  0  0  0  0  0  0  0  0  0  0  0
   17.4512   38.9034   64.0867 O   0  5  0  0  0  0  0  0  0  0  0  0
   23.5173   38.7613   67.3455 N   0  0  0  0  0  0  0  0  0  0  0  0
   18.8333   41.1391   64.1641 O   0  0  0  0  0  0  0  0  0  0  0  0
   19.9797   38.8687   64.5760 O   0  0  0  0  0  0  0  0  0  0  0  0
   23.3152   39.9381   66.7940 C   0  0  2  0  0  0  0  0  0  0  0  0
   22.3265   40.7243   67.2908 C   0  0  2  0  0  0  0  0  0  0  0  0
   21.8776   42.0955   66.8584 C   0  0  0  0  0  0  0  0  0  0  0  0
   21.5592   42.0821   65.3616 C   0  0  0  0  0  0  0  0  0  0  0  0
   20.4711   42.9703   65.0988 O   0  0  0  0  0  0  0  0  0  0  0  0
  1 11  1  0  0  0  0
  3 13  1  1  0  0  0
  3 17  1  0  0  0  0
  3 20  1  0  0  0  0
  3 26  1  0  0  0  0
  4 14  1  0  0  0  0
  4 18  1  6  0  0  0
  4 21  2  0  0  0  0
  4 20  1  0  0  0  0
  5 19  1  0  0  0  0
  5  7  1  0  0  0  0
  6  7  2  0  0  0  0
  6 12  1  0  0  0  0
  7  8  1  0  0  0  0
  8  9  1  0  0  0  0
  8 10  2  0  0  0  0
 10 11  1  0  0  0  0
 11 12  2  0  0  0  0
 14 17  1  0  0  0  0
 15 23  1  0  0  0  0
 15 16  1  0  0  0  0
 16 19  1  0  0  0  0
 19 22  1  0  0  0  0
 22  2  1  6  0  0  0
 22 23  1  0  0  0  0
 23 24  1  1  0  0  0
 24 25  1  0  0  0  0
 25 26  1  0  0  0  0
M  CHG  1  18  -1
M  END
>  <CHROM.1>
-98.39549206,31.15619050,-126.17249784,145.71270682,-84.11559943,163.50893949
22.33403378,40.02493285,66.48522493,-0.14247836,-0.36411479,0.32751913

>  <Name>
ligand

>  <RI>
0

>  <Rbt.Current_Directory>
/home/itssahil/PROJECTS/Mol_Feturizer/New_Systems/rnas/2HOL

>  <Rbt.Executable>
rbdock ($Id: //depot/dev/client3/rdock/2013.1/src/exe/rbdock.cxx#4 $)

>  <Rbt.Library>
libRbt.so (2013.1, Build901 2013/11/27)

>  <Rbt.Parameter_File>
/export/apps/rDock/src/rDock_2013.1_src/data/scripts/dock_solv.prm

>  <Rbt.Receptor>
prm/pocket_docking_2.prm

>  <SCORE>
-8.37416

>  <SCORE.INTER>
-9.58841

>  <SCORE.INTER.CONST>
1

>  <SCORE.INTER.POLAR>
0

>  <SCORE.INTER.ROT>
6

>  <SCORE.INTER.SOLV>
29.7245

>  <SCORE.INTER.VDW>
-23.9004

>  <SCORE.INTER.norm>
-0.368785

>  <SCORE.INTRA>
1.06573

>  <SCORE.INTRA.DIHEDRAL>
1.5347

>  <SCORE.INTRA.DIHEDRAL.0>
9.33621

>  <SCORE.INTRA.POLAR>
0

>  <SCORE.INTRA.POLAR.0>
0

>  <SCORE.INTRA.REPUL>
0

>  <SCORE.INTRA.REPUL.0>
0

>  <SCORE.INTRA.SOLV>
1.56011

>  <SCORE.INTRA.SOLV.lig_0>
-65.9238

>  <SCORE.INTRA.VDW>
-0.481679

>  <SCORE.INTRA.VDW.0>
-0.405582

>  <SCORE.INTRA.norm>
0.0409895

>  <SCORE.RESTR>
0.148519

>  <SCORE.RESTR.CAVITY>
0.148519

>  <SCORE.RESTR.norm>
0.00571227

>  <SCORE.SYSTEM>
0

>  <SCORE.SYSTEM.CONST>
0

>  <SCORE.SYSTEM.DIHEDRAL>
0

>  <SCORE.SYSTEM.SOLV>
0

>  <SCORE.SYSTEM.norm>
0

>  <SCORE.heavy>
26

>  <SCORE.norm>
-0.322083

>  <RMSD>
8.758

$$$$
ligand
 OpenBabel11021811443D
libRbt.so/2013.1/901 2013/11/27
 26 28  0  0  0  0  0  0  0  0999 V2000
   26.8735   38.0082   64.8882 C   0  0  0  0  0  0  0  0  0  0  0  0
   22.1041   42.3372   67.6129 C   0  0  0  0  0  0  0  0  0  0  0  0
   19.1255   40.0326   65.9328 P   0  0  1  0  0  0  0  0  0  0  0  0
   17.0088   39.8610   64.4575 P   0  0  1  0  0  0  0  0  0  0  0  0
   24.8352   42.8067   67.1769 C   0  0  0  0  0  0  0  0  0  0  0  0
   24.9978   41.1387   65.3053 C   0  0  0  0  0  0  0  0  0  0  0  0
   25.3755   41.5363   66.5724 C   0  0  0  0  0  0  0  0  0  0  0  0
   26.2708   40.7317   67.2793 C   0  0  0  0  0  0  0  0  0  0  0  0
   26.6809   41.0867   68.5557 N   0  0  0  0  0  0  0  0  0  0  0  0
   26.7206   39.6160   66.7128 N   0  0  0  0  0  0  0  0  0  0  0  0
   26.3376   39.2767   65.4990 C   0  0  0  0  0  0  0  0  0  0  0  0
   25.4931   40.0145   64.8051 N   0  0  0  0  0  0  0  0  0  0  0  0
   19.3884   39.0124   66.9728 O   0  0  0  0  0  0  0  0  0  0  0  0
   18.0239   38.8729   63.8400 O   0  0  0  0  0  0  0  0  0  0  0  0
   22.7955   44.6103   64.4989 S   0  0  0  0  0  0  0  0  0  0  0  0
   24.2827   44.1434   65.2654 C   0  0  0  0  0  0  0  0  0  0  0  0
   19.5966   39.4732   64.5000 O   0  0  0  0  0  0  0  0  0  0  0  0
   15.5887   39.1272   64.6449 O   0  5  0  0  0  0  0  0  0  0  0  0
   23.8582   43.4051   66.2647 N   0  0  0  0  0  0  0  0  0  0  0  0
   17.5493   40.3604   65.8897 O   0  0  0  0  0  0  0  0  0  0  0  0
   16.8397   41.0766   63.5186 O   0  0  0  0  0  0  0  0  0  0  0  0
   22.5759   43.1887   66.4614 C   0  0  2  0  0  0  0  0  0  0  0  0
   21.6856   43.7559   65.6081 C   0  0  2  0  0  0  0  0  0  0  0  0
   20.1812   43.6824   65.5970 C   0  0  0  0  0  0  0  0  0  0  0  0
   19.7400   42.2754   65.1873 C   0  0  0  0  0  0  0  0  0  0  0  0
   19.9418   41.3767   66.2798 O   0  0  0  0  0  0  0  0  0  0  0  0
  1 11  1  0  0  0  0
  3 13  1  1  0  0  0
  3 17  1  0  0  0  0
  3 20  1  0  0  0  0
  3 26  1  0  0  0  0
  4 14  1  0  0  0  0
  4 18  1  1  0  0  0
  4 21  2  0  0  0  0
  4 20  1  0  0  0  0
  5 19  1  0  0  0  0
  5  7  1  0  0  0  0
  6  7  2  0  0  0  0
  6 12  1  0  0  0  0
  7  8  1  0  0  0  0
  8  9  1  0  0  0  0
  8 10  2  0  0  0  0
 10 11  1  0  0  0  0
 11 12  2  0  0  0  0
 14 17  1  0  0  0  0
 15 23  1  0  0  0  0
 15 16  1  0  0  0  0
 16 19  1  0  0  0  0
 19 22  1  0  0  0  0
 22  2  1  1  0  0  0
 22 23  1  0  0  0  0
 23 24  1  6  0  0  0
 24 25  1  0  0  0  0
 25 26  1  0  0  0  0
M  CHG  1  18  -1
M  END
>  <CHROM.1>
-82.31136397,3.67444514,109.21441573,75.17068125,165.74998239,175.12396333
21.57746083,41.15854867,65.61742083,-0.14983763,0.17557063,-3.13716228

>  <Name>
ligand

>  <RI>
0

>  <Rbt.Current_Directory>
/home/itssahil/PROJECTS/Mol_Feturizer/New_Systems/rnas/2HOL

>  <Rbt.Executable>
rbdock ($Id: //depot/dev/client3/rdock/2013.1/src/exe/rbdock.cxx#4 $)

>  <Rbt.Library>
libRbt.so (2013.1, Build901 2013/11/27)

>  <Rbt.Parameter_File>
/export/apps/rDock/src/rDock_2013.1_src/data/scripts/dock_solv.prm

>  <Rbt.Receptor>
prm/pocket_docking_4.prm

>  <SCORE>
-18.0774

>  <SCORE.INTER>
-16.614

>  <SCORE.INTER.CONST>
1

>  <SCORE.INTER.POLAR>
0

>  <SCORE.INTER.ROT>
6

>  <SCORE.INTER.SOLV>
28.9017

>  <SCORE.INTER.VDW>
-28.3099

>  <SCORE.INTER.norm>
-0.639002

>  <SCORE.INTRA>
-1.47403

>  <SCORE.INTRA.DIHEDRAL>
-2.91956

>  <SCORE.INTRA.DIHEDRAL.0>
9.33621

>  <SCORE.INTRA.POLAR>
0

>  <SCORE.INTRA.POLAR.0>
0

>  <SCORE.INTRA.REPUL>
0

>  <SCORE.INTRA.REPUL.0>
0

>  <SCORE.INTRA.SOLV>
0.782646

>  <SCORE.INTRA.SOLV.lig_0>
-65.9238

>  <SCORE.INTRA.VDW>
-0.405574

>  <SCORE.INTRA.VDW.0>
-0.405582

>  <SCORE.INTRA.norm>
-0.0566936

>  <SCORE.RESTR>
0.0106638

>  <SCORE.RESTR.CAVITY>
0.0106638

>  <SCORE.RESTR.norm>
0.000410145

>  <SCORE.SYSTEM>
0

>  <SCORE.SYSTEM.CONST>
0

>  <SCORE.SYSTEM.DIHEDRAL>
0

>  <SCORE.SYSTEM.SOLV>
0

>  <SCORE.SYSTEM.norm>
0

>  <SCORE.heavy>
26

>  <SCORE.norm>
-0.695285

>  <RMSD>
8.840

$$$$
ligand
 OpenBabel11021811443D
libRbt.so/2013.1/901 2013/11/27
 26 28  0  0  0  0  0  0  0  0999 V2000
   29.1973   43.9305   66.6260 C   0  0  0  0  0  0  0  0  0  0  0  0
   25.8987   37.2246   70.5957 C   0  0  0  0  0  0  0  0  0  0  0  0
   27.7352   36.1327   76.3676 P   0  0  1  0  0  0  0  0  0  0  0  0
   27.6625   38.6374   77.0060 P   0  0  1  0  0  0  0  0  0  0  0  0
   26.6669   39.4698   69.0995 C   0  0  0  0  0  0  0  0  0  0  0  0
   26.8727   41.9331   68.6506 C   0  0  0  0  0  0  0  0  0  0  0  0
   27.3376   40.6495   68.4441 C   0  0  0  0  0  0  0  0  0  0  0  0
   28.4451   40.4723   67.6130 C   0  0  0  0  0  0  0  0  0  0  0  0
   28.9504   39.2032   67.3731 N   0  0  0  0  0  0  0  0  0  0  0  0
   29.0054   41.5385   67.0495 N   0  0  0  0  0  0  0  0  0  0  0  0
   28.5320   42.7463   67.2777 C   0  0  0  0  0  0  0  0  0  0  0  0
   27.4875   42.9475   68.0572 N   0  0  0  0  0  0  0  0  0  0  0  0
   27.9443   35.1071   77.4145 O   0  0  0  0  0  0  0  0  0  0  0  0
   26.2610   38.0832   77.3477 O   0  0  0  0  0  0  0  0  0  0  0  0
   28.2237   39.6731   72.5810 S   0  0  0  0  0  0  0  0  0  0  0  0
   27.9274   40.2675   70.9759 C   0  0  0  0  0  0  0  0  0  0  0  0
   26.1889   36.5762   76.3512 O   0  0  0  0  0  0  0  0  0  0  0  0
   28.2303   39.4748   78.2578 O   0  5  0  0  0  0  0  0  0  0  0  0
   27.1500   39.3352   70.4755 N   0  0  0  0  0  0  0  0  0  0  0  0
   28.6583   37.4146   76.6809 O   0  0  0  0  0  0  0  0  0  0  0  0
   27.5620   39.5618   75.7719 O   0  0  0  0  0  0  0  0  0  0  0  0
   26.7933   38.2862   71.1842 C   0  0  2  0  0  0  0  0  0  0  0  0
   27.2553   38.1769   72.4559 C   0  0  2  0  0  0  0  0  0  0  0  0
   27.0151   37.0971   73.4782 C   0  0  0  0  0  0  0  0  0  0  0  0
   28.3534   36.6348   74.0591 C   0  0  0  0  0  0  0  0  0  0  0  0
   28.1349   35.5241   74.9313 O   0  0  0  0  0  0  0  0  0  0  0  0
  1 11  1  0  0  0  0
  3 13  1  1  0  0  0
  3 17  1  0  0  0  0
  3 20  1  0  0  0  0
  3 26  1  0  0  0  0
  4 14  1  0  0  0  0
  4 18  1  1  0  0  0
  4 21  2  0  0  0  0
  4 20  1  0  0  0  0
  5 19  1  0  0  0  0
  5  7  1  0  0  0  0
  6  7  2  0  0  0  0
  6 12  1  0  0  0  0
  7  8  1  0  0  0  0
  8  9  1  0  0  0  0
  8 10  2  0  0  0  0
 10 11  1  0  0  0  0
 11 12  2  0  0  0  0
 14 17  1  0  0  0  0
 15 23  1  0  0  0  0
 15 16  1  0  0  0  0
 16 19  1  0  0  0  0
 19 22  1  0  0  0  0
 22  2  1  6  0  0  0
 22 23  1  0  0  0  0
 23 24  1  1  0  0  0
 24 25  1  0  0  0  0
 25 26  1  0  0  0  0
M  CHG  1  18  -1
M  END
>  <CHROM.1>
7.04470563,-81.81811501,-50.43422725,-174.44439464,-84.35856906,-160.76634075
27.69704510,38.87673895,72.76593628,-1.27746268,1.39516019,1.73729515

>  <Name>
ligand

>  <RI>
0

>  <Rbt.Current_Directory>
/home/itssahil/PROJECTS/Mol_Feturizer/New_Systems/rnas/2HOL

>  <Rbt.Executable>
rbdock ($Id: //depot/dev/client3/rdock/2013.1/src/exe/rbdock.cxx#4 $)

>  <Rbt.Library>
libRbt.so (2013.1, Build901 2013/11/27)

>  <Rbt.Parameter_File>
/export/apps/rDock/src/rDock_2013.1_src/data/scripts/dock_solv.prm

>  <Rbt.Receptor>
prm/blind_docking_100.prm

>  <SCORE>
-12.5702

>  <SCORE.INTER>
-12.5993

>  <SCORE.INTER.CONST>
1

>  <SCORE.INTER.POLAR>
0

>  <SCORE.INTER.ROT>
6

>  <SCORE.INTER.SOLV>
13.4175

>  <SCORE.INTER.VDW>
-20.4721

>  <SCORE.INTER.norm>
-0.48459

>  <SCORE.INTRA>
0.029102

>  <SCORE.INTRA.DIHEDRAL>
-0.997525

>  <SCORE.INTRA.DIHEDRAL.0>
9.33621

>  <SCORE.INTRA.POLAR>
0

>  <SCORE.INTRA.POLAR.0>
0

>  <SCORE.INTRA.REPUL>
0

>  <SCORE.INTRA.REPUL.0>
0

>  <SCORE.INTRA.SOLV>
2.20649

>  <SCORE.INTRA.SOLV.lig_0>
-65.9238

>  <SCORE.INTRA.VDW>
-0.575378

>  <SCORE.INTRA.VDW.0>
-0.405582

>  <SCORE.INTRA.norm>
0.00111931

>  <SCORE.RESTR>
0

>  <SCORE.RESTR.CAVITY>
0

>  <SCORE.RESTR.norm>
0

>  <SCORE.SYSTEM>
0

>  <SCORE.SYSTEM.CONST>
0

>  <SCORE.SYSTEM.DIHEDRAL>
0

>  <SCORE.SYSTEM.SOLV>
0

>  <SCORE.SYSTEM.norm>
0

>  <SCORE.heavy>
26

>  <SCORE.norm>
-0.483471

>  <RMSD>
8.852

$$$$
ligand
 OpenBabel11021811443D
libRbt.so/2013.1/901 2013/11/27
 26 28  0  0  0  0  0  0  0  0999 V2000
   28.2556   40.3200   71.0975 C   0  0  0  0  0  0  0  0  0  0  0  0
   24.7397   37.7574   65.6045 C   0  0  0  0  0  0  0  0  0  0  0  0
   18.7205   40.7217   65.4624 P   0  0  1  0  0  0  0  0  0  0  0  0
   19.3345   43.2328   65.3963 P   0  0  1  0  0  0  0  0  0  0  0  0
   27.0090   39.4066   65.6175 C   0  0  0  0  0  0  0  0  0  0  0  0
   26.9265   38.7669   68.0456 C   0  0  0  0  0  0  0  0  0  0  0  0
   27.3396   39.6496   67.0676 C   0  0  0  0  0  0  0  0  0  0  0  0
   28.0716   40.7729   67.4561 C   0  0  0  0  0  0  0  0  0  0  0  0
   28.5093   41.6901   66.5123 N   0  0  0  0  0  0  0  0  0  0  0  0
   28.3384   40.9540   68.7462 N   0  0  0  0  0  0  0  0  0  0  0  0
   27.9288   40.0836   69.6460 C   0  0  0  0  0  0  0  0  0  0  0  0
   27.2354   39.0129   69.3118 N   0  0  0  0  0  0  0  0  0  0  0  0
   17.3975   40.2958   65.9721 O   0  0  0  0  0  0  0  0  0  0  0  0
   18.4540   42.9898   64.1497 O   0  0  0  0  0  0  0  0  0  0  0  0
   23.9303   41.4933   64.7500 S   0  0  0  0  0  0  0  0  0  0  0  0
   25.6293   41.2805   65.0421 C   0  0  0  0  0  0  0  0  0  0  0  0
   18.5787   41.1991   63.9327 O   0  0  0  0  0  0  0  0  0  0  0  0
   18.7951   44.5228   66.1934 O   0  5  0  0  0  0  0  0  0  0  0  0
   25.7049   39.9969   65.3079 N   0  0  0  0  0  0  0  0  0  0  0  0
   19.2720   41.9420   66.3569 O   0  0  0  0  0  0  0  0  0  0  0  0
   20.7949   43.4751   64.9537 O   0  0  0  0  0  0  0  0  0  0  0  0
   24.6363   39.2303   65.2985 C   0  0  2  0  0  0  0  0  0  0  0  0
   23.4360   39.7969   65.0141 C   0  0  2  0  0  0  0  0  0  0  0  0
   22.0687   39.1694   64.9384 C   0  0  0  0  0  0  0  0  0  0  0  0
   21.0588   40.0510   65.6765 C   0  0  0  0  0  0  0  0  0  0  0  0
   19.7518   39.4879   65.5468 O   0  0  0  0  0  0  0  0  0  0  0  0
  1 11  1  0  0  0  0
  3 13  1  1  0  0  0
  3 17  1  0  0  0  0
  3 20  1  0  0  0  0
  3 26  1  0  0  0  0
  4 14  1  0  0  0  0
  4 18  1  1  0  0  0
  4 21  2  0  0  0  0
  4 20  1  0  0  0  0
  5 19  1  0  0  0  0
  5  7  1  0  0  0  0
  6  7  2  0  0  0  0
  6 12  1  0  0  0  0
  7  8  1  0  0  0  0
  8  9  1  0  0  0  0
  8 10  2  0  0  0  0
 10 11  1  0  0  0  0
 11 12  2  0  0  0  0
 14 17  1  0  0  0  0
 15 23  1  0  0  0  0
 15 16  1  0  0  0  0
 16 19  1  0  0  0  0
 19 22  1  0  0  0  0
 22  2  1  1  0  0  0
 22 23  1  0  0  0  0
 23 24  1  6  0  0  0
 24 25  1  0  0  0  0
 25 26  1  0  0  0  0
M  CHG  1  18  -1
M  END
>  <CHROM.1>
82.09582096,87.87085006,-45.58224429,177.15890306,-145.34724593,-152.86169728
22.95835519,40.86770588,66.09897294,-0.08735828,-0.35029781,0.37686720

>  <Name>
ligand

>  <RI>
0

>  <Rbt.Current_Directory>
/home/itssahil/PROJECTS/Mol_Feturizer/New_Systems/rnas/2HOL

>  <Rbt.Executable>
rbdock ($Id: //depot/dev/client3/rdock/2013.1/src/exe/rbdock.cxx#4 $)

>  <Rbt.Library>
libRbt.so (2013.1, Build901 2013/11/27)

>  <Rbt.Parameter_File>
/export/apps/rDock/src/rDock_2013.1_src/data/scripts/dock_solv.prm

>  <Rbt.Receptor>
prm/pocket_docking_3.prm

>  <SCORE>
-15.0798

>  <SCORE.INTER>
-14.6692

>  <SCORE.INTER.CONST>
1

>  <SCORE.INTER.POLAR>
0

>  <SCORE.INTER.ROT>
6

>  <SCORE.INTER.SOLV>
27.3788

>  <SCORE.INTER.VDW>
-26.5057

>  <SCORE.INTER.norm>
-0.5642

>  <SCORE.INTRA>
-0.410617

>  <SCORE.INTRA.DIHEDRAL>
1.25683

>  <SCORE.INTRA.DIHEDRAL.0>
9.33621

>  <SCORE.INTRA.POLAR>
0

>  <SCORE.INTRA.POLAR.0>
0

>  <SCORE.INTRA.REPUL>
0

>  <SCORE.INTRA.REPUL.0>
0

>  <SCORE.INTRA.SOLV>
1.48709

>  <SCORE.INTRA.SOLV.lig_0>
-65.9238

>  <SCORE.INTRA.VDW>
-1.78258

>  <SCORE.INTRA.VDW.0>
-0.405582

>  <SCORE.INTRA.norm>
-0.015793

>  <SCORE.RESTR>
0

>  <SCORE.RESTR.CAVITY>
0

>  <SCORE.RESTR.norm>
0

>  <SCORE.SYSTEM>
0

>  <SCORE.SYSTEM.CONST>
0

>  <SCORE.SYSTEM.DIHEDRAL>
0

>  <SCORE.SYSTEM.SOLV>
0

>  <SCORE.SYSTEM.norm>
0

>  <SCORE.heavy>
26

>  <SCORE.norm>
-0.579993

>  <RMSD>
8.884

$$$$
ligand
 OpenBabel11021811443D
libRbt.so/2013.1/901 2013/11/27
 26 28  0  0  0  0  0  0  0  0999 V2000
   31.2701   39.7014   66.4969 C   0  0  0  0  0  0  0  0  0  0  0  0
   25.4795   41.0701   67.5111 C   0  0  0  0  0  0  0  0  0  0  0  0
   20.5905   41.0740   66.1443 P   0  0  1  0  0  0  0  0  0  0  0  0
   18.2816   40.3869   65.2044 P   0  0  1  0  0  0  0  0  0  0  0  0
   26.0033   38.4103   68.2327 C   0  0  0  0  0  0  0  0  0  0  0  0
   28.2589   39.4587   68.5864 C   0  0  0  0  0  0  0  0  0  0  0  0
   27.3971   38.7514   67.7720 C   0  0  0  0  0  0  0  0  0  0  0  0
   27.8497   38.3600   66.5108 C   0  0  0  0  0  0  0  0  0  0  0  0
   27.0226   37.6483   65.6547 N   0  0  0  0  0  0  0  0  0  0  0  0
   29.0846   38.6848   66.1396 N   0  0  0  0  0  0  0  0  0  0  0  0
   29.8755   39.3569   66.9506 C   0  0  0  0  0  0  0  0  0  0  0  0
   29.4783   39.7415   68.1479 N   0  0  0  0  0  0  0  0  0  0  0  0
   21.0843   40.4770   67.4059 O   0  0  0  0  0  0  0  0  0  0  0  0
   19.2492   39.2548   64.7917 O   0  0  0  0  0  0  0  0  0  0  0  0
   23.4640   38.4736   65.3809 S   0  0  0  0  0  0  0  0  0  0  0  0
   24.4665   37.6689   66.5491 C   0  0  0  0  0  0  0  0  0  0  0  0
   20.8631   40.0587   64.9267 O   0  0  0  0  0  0  0  0  0  0  0  0
   16.9624   39.7510   65.8719 O   0  5  0  0  0  0  0  0  0  0  0  0
   25.0520   38.6778   67.1518 N   0  0  0  0  0  0  0  0  0  0  0  0
   19.0093   41.3538   66.2666 O   0  0  0  0  0  0  0  0  0  0  0  0
   17.8832   41.2027   63.9540 O   0  0  0  0  0  0  0  0  0  0  0  0
   24.7999   39.9221   66.8083 C   0  0  2  0  0  0  0  0  0  0  0  0
   23.9191   40.1495   65.8009 C   0  0  2  0  0  0  0  0  0  0  0  0
   23.4522   41.4519   65.2056 C   0  0  0  0  0  0  0  0  0  0  0  0
   22.7170   42.2680   66.2713 C   0  0  0  0  0  0  0  0  0  0  0  0
   21.3594   42.4619   65.8692 O   0  0  0  0  0  0  0  0  0  0  0  0
  1 11  1  0  0  0  0
  3 13  1  1  0  0  0
  3 17  1  0  0  0  0
  3 20  1  0  0  0  0
  3 26  1  0  0  0  0
  4 14  1  0  0  0  0
  4 18  1  1  0  0  0
  4 21  2  0  0  0  0
  4 20  1  0  0  0  0
  5 19  1  0  0  0  0
  5  7  1  0  0  0  0
  6  7  2  0  0  0  0
  6 12  1  0  0  0  0
  7  8  1  0  0  0  0
  8  9  1  0  0  0  0
  8 10  2  0  0  0  0
 10 11  1  0  0  0  0
 11 12  2  0  0  0  0
 14 17  1  0  0  0  0
 15 23  1  0  0  0  0
 15 16  1  0  0  0  0
 16 19  1  0  0  0  0
 19 22  1  0  0  0  0
 22  2  1  6  0  0  0
 22 23  1  0  0  0  0
 23 24  1  1  0  0  0
 24 25  1  0  0  0  0
 25 26  1  0  0  0  0
M  CHG  1  18  -1
M  END
>  <CHROM.1>
110.12604494,135.39334957,116.87064022,-117.59106523,76.72850086,38.36380125
23.41822890,39.90720236,66.22636276,-0.10919827,-0.20753615,0.26224613

>  <Name>
ligand

>  <RI>
0

>  <Rbt.Current_Directory>
/home/itssahil/PROJECTS/Mol_Feturizer/New_Systems/rnas/2HOL

>  <Rbt.Executable>
rbdock ($Id: //depot/dev/client3/rdock/2013.1/src/exe/rbdock.cxx#4 $)

>  <Rbt.Library>
libRbt.so (2013.1, Build901 2013/11/27)

>  <Rbt.Parameter_File>
/export/apps/rDock/src/rDock_2013.1_src/data/scripts/dock_solv.prm

>  <Rbt.Receptor>
prm/pocket_docking_2.prm

>  <SCORE>
-9.37005

>  <SCORE.INTER>
-12.561

>  <SCORE.INTER.CONST>
1

>  <SCORE.INTER.POLAR>
0

>  <SCORE.INTER.ROT>
6

>  <SCORE.INTER.SOLV>
26.1424

>  <SCORE.INTER.VDW>
-24.6881

>  <SCORE.INTER.norm>
-0.483114

>  <SCORE.INTRA>
3.00166

>  <SCORE.INTRA.DIHEDRAL>
2.71514

>  <SCORE.INTRA.DIHEDRAL.0>
9.33621

>  <SCORE.INTRA.POLAR>
0

>  <SCORE.INTRA.POLAR.0>
0

>  <SCORE.INTRA.REPUL>
0

>  <SCORE.INTRA.REPUL.0>
0

>  <SCORE.INTRA.SOLV>
3.59409

>  <SCORE.INTRA.SOLV.lig_0>
-65.9238

>  <SCORE.INTRA.VDW>
-0.152956

>  <SCORE.INTRA.VDW.0>
-0.405582

>  <SCORE.INTRA.norm>
0.115448

>  <SCORE.RESTR>
0.189245

>  <SCORE.RESTR.CAVITY>
0.189245

>  <SCORE.RESTR.norm>
0.00727867

>  <SCORE.SYSTEM>
0

>  <SCORE.SYSTEM.CONST>
0

>  <SCORE.SYSTEM.DIHEDRAL>
0

>  <SCORE.SYSTEM.SOLV>
0

>  <SCORE.SYSTEM.norm>
0

>  <SCORE.heavy>
26

>  <SCORE.norm>
-0.360387

>  <RMSD>
8.892

$$$$
ligand
 OpenBabel11021811443D
libRbt.so/2013.1/901 2013/11/27
 26 28  0  0  0  0  0  0  0  0999 V2000
   27.4874   41.2283   59.2223 C   0  0  0  0  0  0  0  0  0  0  0  0
   23.8603   42.4409   66.1786 C   0  0  0  0  0  0  0  0  0  0  0  0
   19.6327   40.2545   65.6779 P   0  0  1  0  0  0  0  0  0  0  0  0
   17.3546   40.1676   64.4577 P   0  0  1  0  0  0  0  0  0  0  0  0
   26.2166   42.0204   64.7156 C   0  0  0  0  0  0  0  0  0  0  0  0
   25.5740   41.4808   62.3476 C   0  0  0  0  0  0  0  0  0  0  0  0
   26.5544   41.8110   63.2619 C   0  0  0  0  0  0  0  0  0  0  0  0
   27.8667   41.9462   62.8055 C   0  0  0  0  0  0  0  0  0  0  0  0
   28.8880   42.2761   63.6840 N   0  0  0  0  0  0  0  0  0  0  0  0
   28.1244   41.7483   61.5161 N   0  0  0  0  0  0  0  0  0  0  0  0
   27.1573   41.4391   60.6770 C   0  0  0  0  0  0  0  0  0  0  0  0
   25.9078   41.3037   61.0762 N   0  0  0  0  0  0  0  0  0  0  0  0
   20.0121   41.4568   66.4539 O   0  0  0  0  0  0  0  0  0  0  0  0
   17.0445   39.8382   65.9354 O   0  0  0  0  0  0  0  0  0  0  0  0
   24.7471   38.6500   65.7483 S   0  0  0  0  0  0  0  0  0  0  0  0
   25.9341   39.6540   64.9735 C   0  0  0  0  0  0  0  0  0  0  0  0
   18.6611   39.3277   66.5639 O   0  0  0  0  0  0  0  0  0  0  0  0
   16.3385   41.3007   63.9339 O   0  5  0  0  0  0  0  0  0  0  0  0
   25.4768   40.8603   65.2175 N   0  0  0  0  0  0  0  0  0  0  0  0
   18.8679   40.7034   64.3336 O   0  0  0  0  0  0  0  0  0  0  0  0
   17.1881   38.8920   63.6017 O   0  0  0  0  0  0  0  0  0  0  0  0
   24.3719   41.0489   65.9055 C   0  0  2  0  0  0  0  0  0  0  0  0
   23.6977   39.9612   66.3580 C   0  0  2  0  0  0  0  0  0  0  0  0
   22.4223   39.8817   67.1554 C   0  0  0  0  0  0  0  0  0  0  0  0
   21.4717   38.8755   66.5026 C   0  0  0  0  0  0  0  0  0  0  0  0
   20.9574   39.4259   65.2883 O   0  0  0  0  0  0  0  0  0  0  0  0
  1 11  1  0  0  0  0
  3 13  1  1  0  0  0
  3 17  1  0  0  0  0
  3 20  1  0  0  0  0
  3 26  1  0  0  0  0
  4 14  1  0  0  0  0
  4 18  1  6  0  0  0
  4 21  2  0  0  0  0
  4 20  1  0  0  0  0
  5 19  1  0  0  0  0
  5  7  1  0  0  0  0
  6  7  2  0  0  0  0
  6 12  1  0  0  0  0
  7  8  1  0  0  0  0
  8  9  1  0  0  0  0
  8 10  2  0  0  0  0
 10 11  1  0  0  0  0
 11 12  2  0  0  0  0
 14 17  1  0  0  0  0
 15 23  1  0  0  0  0
 15 16  1  0  0  0  0
 16 19  1  0  0  0  0
 19 22  1  0  0  0  0
 22  2  1  6  0  0  0
 22 23  1  0  0  0  0
 23 24  1  1  0  0  0
 24 25  1  0  0  0  0
 25 26  1  0  0  0  0
M  CHG  1  18  -1
M  END
>  <CHROM.1>
48.24128725,52.53083893,-48.80822243,-71.84421628,-88.31300472,69.15226248
22.60243783,40.53994019,64.52384886,0.29579029,-0.07591507,-1.32612941

>  <Name>
ligand

>  <RI>
0

>  <Rbt.Current_Directory>
/home/itssahil/PROJECTS/Mol_Feturizer/New_Systems/rnas/2HOL

>  <Rbt.Executable>
rbdock ($Id: //depot/dev/client3/rdock/2013.1/src/exe/rbdock.cxx#4 $)

>  <Rbt.Library>
libRbt.so (2013.1, Build901 2013/11/27)

>  <Rbt.Parameter_File>
/export/apps/rDock/src/rDock_2013.1_src/data/scripts/dock_solv.prm

>  <Rbt.Receptor>
prm/pocket_docking_7.prm

>  <SCORE>
-17.0363

>  <SCORE.INTER>
-15.8934

>  <SCORE.INTER.CONST>
1

>  <SCORE.INTER.POLAR>
0

>  <SCORE.INTER.ROT>
6

>  <SCORE.INTER.SOLV>
27.6151

>  <SCORE.INTER.VDW>
-27.4006

>  <SCORE.INTER.norm>
-0.611284

>  <SCORE.INTRA>
-1.17356

>  <SCORE.INTRA.DIHEDRAL>
-0.306548

>  <SCORE.INTRA.DIHEDRAL.0>
9.33621

>  <SCORE.INTRA.POLAR>
0

>  <SCORE.INTRA.POLAR.0>
0

>  <SCORE.INTRA.REPUL>
0

>  <SCORE.INTRA.REPUL.0>
0

>  <SCORE.INTRA.SOLV>
0.0385332

>  <SCORE.INTRA.SOLV.lig_0>
-65.9238

>  <SCORE.INTRA.VDW>
-1.03955

>  <SCORE.INTRA.VDW.0>
-0.405582

>  <SCORE.INTRA.norm>
-0.0451368

>  <SCORE.RESTR>
0.0306035

>  <SCORE.RESTR.CAVITY>
0.0306035

>  <SCORE.RESTR.norm>
0.00117706

>  <SCORE.SYSTEM>
0

>  <SCORE.SYSTEM.CONST>
0

>  <SCORE.SYSTEM.DIHEDRAL>
0

>  <SCORE.SYSTEM.SOLV>
0

>  <SCORE.SYSTEM.norm>
0

>  <SCORE.heavy>
26

>  <SCORE.norm>
-0.655244

>  <RMSD>
8.895

$$$$
ligand
 OpenBabel11021811443D
libRbt.so/2013.1/901 2013/11/27
 26 28  0  0  0  0  0  0  0  0999 V2000
   31.0589   38.8724   67.0579 C   0  0  0  0  0  0  0  0  0  0  0  0
   23.1376   40.6338   67.6297 C   0  0  0  0  0  0  0  0  0  0  0  0
   18.4957   40.6027   65.4265 P   0  0  1  0  0  0  0  0  0  0  0  0
   19.5786   42.9425   65.6248 P   0  0  1  0  0  0  0  0  0  0  0  0
   25.5090   39.2759   68.2640 C   0  0  0  0  0  0  0  0  0  0  0  0
   27.6315   37.9560   68.0094 C   0  0  0  0  0  0  0  0  0  0  0  0
   26.9780   39.1706   67.9446 C   0  0  0  0  0  0  0  0  0  0  0  0
   27.7127   40.2986   67.5752 C   0  0  0  0  0  0  0  0  0  0  0  0
   27.1031   41.5418   67.4957 N   0  0  0  0  0  0  0  0  0  0  0  0
   29.0080   40.1647   67.3061 N   0  0  0  0  0  0  0  0  0  0  0  0
   29.5907   38.9854   67.3759 C   0  0  0  0  0  0  0  0  0  0  0  0
   28.9251   37.9008   67.7219 N   0  0  0  0  0  0  0  0  0  0  0  0
   17.0625   40.4199   65.7494 O   0  0  0  0  0  0  0  0  0  0  0  0
   18.8317   42.9462   64.2720 O   0  0  0  0  0  0  0  0  0  0  0  0
   23.9178   37.6767   65.1824 S   0  0  0  0  0  0  0  0  0  0  0  0
   25.1478   37.8105   66.4017 C   0  0  0  0  0  0  0  0  0  0  0  0
   18.6404   41.1807   63.9323 O   0  0  0  0  0  0  0  0  0  0  0  0
   19.1983   44.2687   66.4537 O   0  5  0  0  0  0  0  0  0  0  0  0
   24.7247   38.8322   67.1094 N   0  0  0  0  0  0  0  0  0  0  0  0
   19.1521   41.6396   66.4694 O   0  0  0  0  0  0  0  0  0  0  0  0
   21.1024   42.9147   65.3697 O   0  0  0  0  0  0  0  0  0  0  0  0
   23.6110   39.4627   66.8061 C   0  0  2  0  0  0  0  0  0  0  0  0
   22.9007   39.0398   65.7295 C   0  0  2  0  0  0  0  0  0  0  0  0
   21.6118   39.5695   65.1578 C   0  0  0  0  0  0  0  0  0  0  0  0
   20.4958   39.4319   66.1959 C   0  0  0  0  0  0  0  0  0  0  0  0
   19.2551   39.1865   65.5308 O   0  0  0  0  0  0  0  0  0  0  0  0
  1 11  1  0  0  0  0
  3 13  1  1  0  0  0
  3 17  1  0  0  0  0
  3 20  1  0  0  0  0
  3 26  1  0  0  0  0
  4 14  1  0  0  0  0
  4 18  1  1  0  0  0
  4 21  2  0  0  0  0
  4 20  1  0  0  0  0
  5 19  1  0  0  0  0
  5  7  1  0  0  0  0
  6  7  2  0  0  0  0
  6 12  1  0  0  0  0
  7  8  1  0  0  0  0
  8  9  1  0  0  0  0
  8 10  2  0  0  0  0
 10 11  1  0  0  0  0
 11 12  2  0  0  0  0
 14 17  1  0  0  0  0
 15 23  1  0  0  0  0
 15 16  1  0  0  0  0
 16 19  1  0  0  0  0
 19 22  1  0  0  0  0
 22  2  1  6  0  0  0
 22 23  1  0  0  0  0
 23 24  1  1  0  0  0
 24 25  1  0  0  0  0
 25 26  1  0  0  0  0
M  CHG  1  18  -1
M  END
>  <CHROM.1>
38.30174333,-79.52452962,118.00331913,-147.31306500,-97.94371028,-137.35795648
22.91282729,40.22803337,66.27025276,-0.24023320,-0.24644863,0.14682074

>  <Name>
ligand

>  <RI>
0

>  <Rbt.Current_Directory>
/home/itssahil/PROJECTS/Mol_Feturizer/New_Systems/rnas/2HOL

>  <Rbt.Executable>
rbdock ($Id: //depot/dev/client3/rdock/2013.1/src/exe/rbdock.cxx#4 $)

>  <Rbt.Library>
libRbt.so (2013.1, Build901 2013/11/27)

>  <Rbt.Parameter_File>
/export/apps/rDock/src/rDock_2013.1_src/data/scripts/dock_solv.prm

>  <Rbt.Receptor>
prm/pocket_docking_2.prm

>  <SCORE>
-10.0329

>  <SCORE.INTER>
-14.9879

>  <SCORE.INTER.CONST>
1

>  <SCORE.INTER.POLAR>
0

>  <SCORE.INTER.ROT>
6

>  <SCORE.INTER.SOLV>
24.3239

>  <SCORE.INTER.VDW>
-25.6999

>  <SCORE.INTER.norm>
-0.576457

>  <SCORE.INTRA>
4.18296

>  <SCORE.INTRA.DIHEDRAL>
5.35495

>  <SCORE.INTRA.DIHEDRAL.0>
9.33621

>  <SCORE.INTRA.POLAR>
0

>  <SCORE.INTRA.POLAR.0>
0

>  <SCORE.INTRA.REPUL>
0

>  <SCORE.INTRA.REPUL.0>
0

>  <SCORE.INTRA.SOLV>
2.87956

>  <SCORE.INTRA.SOLV.lig_0>
-65.9238

>  <SCORE.INTRA.VDW>
0.065702

>  <SCORE.INTRA.VDW.0>
-0.405582

>  <SCORE.INTRA.norm>
0.160883

>  <SCORE.RESTR>
0.77198

>  <SCORE.RESTR.CAVITY>
0.77198

>  <SCORE.RESTR.norm>
0.0296915

>  <SCORE.SYSTEM>
0

>  <SCORE.SYSTEM.CONST>
0

>  <SCORE.SYSTEM.DIHEDRAL>
0

>  <SCORE.SYSTEM.SOLV>
0

>  <SCORE.SYSTEM.norm>
0

>  <SCORE.heavy>
26

>  <SCORE.norm>
-0.385882

>  <RMSD>
8.946

$$$$
ligand
 OpenBabel11021811443D
libRbt.so/2013.1/901 2013/11/27
 26 28  0  0  0  0  0  0  0  0999 V2000
   25.5009   36.4320   74.6202 C   0  0  0  0  0  0  0  0  0  0  0  0
   26.8603   41.5863   69.1941 C   0  0  0  0  0  0  0  0  0  0  0  0
   21.9296   42.2669   66.8709 P   0  0  1  0  0  0  0  0  0  0  0  0
   20.0414   43.6197   65.7348 P   0  0  1  0  0  0  0  0  0  0  0  0
   28.0725   39.4323   70.5210 C   0  0  0  0  0  0  0  0  0  0  0  0
   26.3791   37.7509   71.3063 C   0  0  0  0  0  0  0  0  0  0  0  0
   27.3927   38.6389   71.6070 C   0  0  0  0  0  0  0  0  0  0  0  0
   27.7721   38.7829   72.9427 C   0  0  0  0  0  0  0  0  0  0  0  0
   28.7843   39.6622   73.2970 N   0  0  0  0  0  0  0  0  0  0  0  0
   27.1441   38.0683   73.8718 N   0  0  0  0  0  0  0  0  0  0  0  0
   26.1851   37.2286   73.5400 C   0  0  0  0  0  0  0  0  0  0  0  0
   25.8031   37.0696   72.2878 N   0  0  0  0  0  0  0  0  0  0  0  0
   21.8108   41.8811   68.2952 O   0  0  0  0  0  0  0  0  0  0  0  0
   19.5528   42.1536   65.7413 O   0  0  0  0  0  0  0  0  0  0  0  0
   26.4907   38.1927   67.2734 S   0  0  0  0  0  0  0  0  0  0  0  0
   27.3754   37.9726   68.7520 C   0  0  0  0  0  0  0  0  0  0  0  0
   21.0941   41.2346   65.9631 O   0  0  0  0  0  0  0  0  0  0  0  0
   18.8770   44.5778   66.2976 O   0  5  0  0  0  0  0  0  0  0  0  0
   27.3984   39.1898   69.2436 N   0  0  0  0  0  0  0  0  0  0  0  0
   21.3466   43.7543   66.6680 O   0  0  0  0  0  0  0  0  0  0  0  0
   20.3964   44.0360   64.2897 O   0  0  0  0  0  0  0  0  0  0  0  0
   26.8264   40.1941   68.6158 C   0  0  2  0  0  0  0  0  0  0  0  0
   26.2109   39.9503   67.4308 C   0  0  2  0  0  0  0  0  0  0  0  0
   25.4895   40.8969   66.5077 C   0  0  0  0  0  0  0  0  0  0  0  0
   24.0254   41.0151   66.9371 C   0  0  0  0  0  0  0  0  0  0  0  0
   23.4789   42.2355   66.4330 O   0  0  0  0  0  0  0  0  0  0  0  0
  1 11  1  0  0  0  0
  3 13  1  1  0  0  0
  3 17  1  0  0  0  0
  3 20  1  0  0  0  0
  3 26  1  0  0  0  0
  4 14  1  0  0  0  0
  4 18  1  1  0  0  0
  4 21  2  0  0  0  0
  4 20  1  0  0  0  0
  5 19  1  0  0  0  0
  5  7  1  0  0  0  0
  6  7  2  0  0  0  0
  6 12  1  0  0  0  0
  7  8  1  0  0  0  0
  8  9  1  0  0  0  0
  8 10  2  0  0  0  0
 10 11  1  0  0  0  0
 11 12  2  0  0  0  0
 14 17  1  0  0  0  0
 15 23  1  0  0  0  0
 15 16  1  0  0  0  0
 16 19  1  0  0  0  0
 19 22  1  0  0  0  0
 22  2  1  6  0  0  0
 22 23  1  0  0  0  0
 23 24  1  1  0  0  0
 24 25  1  0  0  0  0
 25 26  1  0  0  0  0
M  CHG  1  18  -1
M  END
>  <CHROM.1>
-61.77583234,5.54637216,92.88776249,158.13404682,177.84880797,45.94035054
24.28641427,40.55789596,68.58345860,0.79945532,-0.40590817,1.89331153

>  <Name>
ligand

>  <RI>
0

>  <Rbt.Current_Directory>
/home/itssahil/PROJECTS/Mol_Feturizer/New_Systems/rnas/2HOL

>  <Rbt.Executable>
rbdock ($Id: //depot/dev/client3/rdock/2013.1/src/exe/rbdock.cxx#4 $)

>  <Rbt.Library>
libRbt.so (2013.1, Build901 2013/11/27)

>  <Rbt.Parameter_File>
/export/apps/rDock/src/rDock_2013.1_src/data/scripts/dock_solv.prm

>  <Rbt.Receptor>
prm/pocket_docking_7.prm

>  <SCORE>
-11.3404

>  <SCORE.INTER>
-9.67657

>  <SCORE.INTER.CONST>
1

>  <SCORE.INTER.POLAR>
0

>  <SCORE.INTER.ROT>
6

>  <SCORE.INTER.SOLV>
27.2777

>  <SCORE.INTER.VDW>
-23.1436

>  <SCORE.INTER.norm>
-0.372176

>  <SCORE.INTRA>
-1.66381

>  <SCORE.INTRA.DIHEDRAL>
-2.57874

>  <SCORE.INTRA.DIHEDRAL.0>
9.33621

>  <SCORE.INTRA.POLAR>
0

>  <SCORE.INTRA.POLAR.0>
0

>  <SCORE.INTRA.REPUL>
0

>  <SCORE.INTRA.REPUL.0>
0

>  <SCORE.INTRA.SOLV>
-0.705792

>  <SCORE.INTRA.SOLV.lig_0>
-65.9238

>  <SCORE.INTRA.VDW>
-0.0215438

>  <SCORE.INTRA.VDW.0>
-0.405582

>  <SCORE.INTRA.norm>
-0.0639928

>  <SCORE.RESTR>
0

>  <SCORE.RESTR.CAVITY>
0

>  <SCORE.RESTR.norm>
0

>  <SCORE.SYSTEM>
0

>  <SCORE.SYSTEM.CONST>
0

>  <SCORE.SYSTEM.DIHEDRAL>
0

>  <SCORE.SYSTEM.SOLV>
0

>  <SCORE.SYSTEM.norm>
0

>  <SCORE.heavy>
26

>  <SCORE.norm>
-0.436168

>  <RMSD>
8.953

$$$$
ligand
 OpenBabel11021811443D
libRbt.so/2013.1/901 2013/11/27
 26 28  0  0  0  0  0  0  0  0999 V2000
   27.7668   37.7155   64.6441 C   0  0  0  0  0  0  0  0  0  0  0  0
   23.5292   43.9350   64.9411 C   0  0  0  0  0  0  0  0  0  0  0  0
   18.8274   40.0021   65.9602 P   0  0  1  0  0  0  0  0  0  0  0  0
   16.8878   40.0033   64.2501 P   0  0  1  0  0  0  0  0  0  0  0  0
   25.5174   42.6316   66.4304 C   0  0  0  0  0  0  0  0  0  0  0  0
   25.5577   40.6389   64.9009 C   0  0  0  0  0  0  0  0  0  0  0  0
   26.1138   41.3305   65.9587 C   0  0  0  0  0  0  0  0  0  0  0  0
   27.2429   40.7939   66.5799 C   0  0  0  0  0  0  0  0  0  0  0  0
   27.8387   41.4496   67.6470 N   0  0  0  0  0  0  0  0  0  0  0  0
   27.7357   39.6410   66.1371 N   0  0  0  0  0  0  0  0  0  0  0  0
   27.1761   39.0166   65.1212 C   0  0  0  0  0  0  0  0  0  0  0  0
   26.1090   39.4966   64.5130 N   0  0  0  0  0  0  0  0  0  0  0  0
   18.9653   38.8862   66.9233 O   0  0  0  0  0  0  0  0  0  0  0  0
   17.9588   39.0586   63.6594 O   0  0  0  0  0  0  0  0  0  0  0  0
   22.0824   41.7109   67.8225 S   0  0  0  0  0  0  0  0  0  0  0  0
   23.8177   41.6366   67.7967 C   0  0  0  0  0  0  0  0  0  0  0  0
   19.4519   39.5686   64.5425 O   0  0  0  0  0  0  0  0  0  0  0  0
   15.4506   39.2799   64.2099 O   0  5  0  0  0  0  0  0  0  0  0  0
   24.1125   42.4241   66.7883 N   0  0  0  0  0  0  0  0  0  0  0  0
   17.2682   40.3595   65.7736 O   0  0  0  0  0  0  0  0  0  0  0  0
   16.8331   41.3026   63.4156 O   0  0  0  0  0  0  0  0  0  0  0  0
   23.1744   43.0325   66.0959 C   0  0  2  0  0  0  0  0  0  0  0  0
   21.8780   42.8237   66.4398 C   0  0  2  0  0  0  0  0  0  0  0  0
   20.6181   43.3786   65.8285 C   0  0  0  0  0  0  0  0  0  0  0  0
   19.6871   42.2278   65.4401 C   0  0  0  0  0  0  0  0  0  0  0  0
   19.6090   41.2943   66.5192 O   0  0  0  0  0  0  0  0  0  0  0  0
  1 11  1  0  0  0  0
  3 13  1  1  0  0  0
  3 17  1  0  0  0  0
  3 20  1  0  0  0  0
  3 26  1  0  0  0  0
  4 14  1  0  0  0  0
  4 18  1  6  0  0  0
  4 21  2  0  0  0  0
  4 20  1  0  0  0  0
  5 19  1  0  0  0  0
  5  7  1  0  0  0  0
  6  7  2  0  0  0  0
  6 12  1  0  0  0  0
  7  8  1  0  0  0  0
  8  9  1  0  0  0  0
  8 10  2  0  0  0  0
 10 11  1  0  0  0  0
 11 12  2  0  0  0  0
 14 17  1  0  0  0  0
 15 23  1  0  0  0  0
 15 16  1  0  0  0  0
 16 19  1  0  0  0  0
 19 22  1  0  0  0  0
 22  2  1  6  0  0  0
 22 23  1  0  0  0  0
 23 24  1  1  0  0  0
 24 25  1  0  0  0  0
 25 26  1  0  0  0  0
M  CHG  1  18  -1
M  END
>  <CHROM.1>
64.71414391,56.95589124,-54.93238512,46.39383512,-170.60823993,167.81996503
21.75817294,40.82468921,65.70615250,-0.11645531,0.09449236,-2.65762477

>  <Name>
ligand

>  <RI>
0

>  <Rbt.Current_Directory>
/home/itssahil/PROJECTS/Mol_Feturizer/New_Systems/rnas/2HOL

>  <Rbt.Executable>
rbdock ($Id: //depot/dev/client3/rdock/2013.1/src/exe/rbdock.cxx#4 $)

>  <Rbt.Library>
libRbt.so (2013.1, Build901 2013/11/27)

>  <Rbt.Parameter_File>
/export/apps/rDock/src/rDock_2013.1_src/data/scripts/dock_solv.prm

>  <Rbt.Receptor>
prm/pocket_docking_5.prm

>  <SCORE>
-18.7299

>  <SCORE.INTER>
-15.8073

>  <SCORE.INTER.CONST>
1

>  <SCORE.INTER.POLAR>
0

>  <SCORE.INTER.ROT>
6

>  <SCORE.INTER.SOLV>
28.882

>  <SCORE.INTER.VDW>
-27.7656

>  <SCORE.INTER.norm>
-0.607975

>  <SCORE.INTRA>
-2.92255

>  <SCORE.INTRA.DIHEDRAL>
-2.8531

>  <SCORE.INTRA.DIHEDRAL.0>
9.33621

>  <SCORE.INTRA.POLAR>
0

>  <SCORE.INTRA.POLAR.0>
0

>  <SCORE.INTRA.REPUL>
0

>  <SCORE.INTRA.REPUL.0>
0

>  <SCORE.INTRA.SOLV>
0.205969

>  <SCORE.INTRA.SOLV.lig_0>
-65.9238

>  <SCORE.INTRA.VDW>
-1.59898

>  <SCORE.INTRA.VDW.0>
-0.405582

>  <SCORE.INTRA.norm>
-0.112406

>  <SCORE.RESTR>
0

>  <SCORE.RESTR.CAVITY>
0

>  <SCORE.RESTR.norm>
0

>  <SCORE.SYSTEM>
0

>  <SCORE.SYSTEM.CONST>
0

>  <SCORE.SYSTEM.DIHEDRAL>
0

>  <SCORE.SYSTEM.SOLV>
0

>  <SCORE.SYSTEM.norm>
0

>  <SCORE.heavy>
26

>  <SCORE.norm>
-0.72038

>  <RMSD>
8.962

$$$$
ligand
 OpenBabel11021811443D
libRbt.so/2013.1/901 2013/11/27
 26 28  0  0  0  0  0  0  0  0999 V2000
   29.4127   39.0444   68.4279 C   0  0  0  0  0  0  0  0  0  0  0  0
   23.4162   40.4072   64.9949 C   0  0  0  0  0  0  0  0  0  0  0  0
   18.9910   40.3791   65.9190 P   0  0  1  0  0  0  0  0  0  0  0  0
   17.0275   39.5761   64.4404 P   0  0  1  0  0  0  0  0  0  0  0  0
   24.0355   38.2820   66.7182 C   0  0  0  0  0  0  0  0  0  0  0  0
   25.7945   38.4160   68.5069 C   0  0  0  0  0  0  0  0  0  0  0  0
   25.4592   38.4841   67.1693 C   0  0  0  0  0  0  0  0  0  0  0  0
   26.4725   38.7445   66.2452 C   0  0  0  0  0  0  0  0  0  0  0  0
   26.1875   38.8234   64.8902 N   0  0  0  0  0  0  0  0  0  0  0  0
   27.7152   38.9219   66.6840 N   0  0  0  0  0  0  0  0  0  0  0  0
   27.9918   38.8436   67.9695 C   0  0  0  0  0  0  0  0  0  0  0  0
   27.0576   38.5994   68.8677 N   0  0  0  0  0  0  0  0  0  0  0  0
   19.5686   39.4747   66.9389 O   0  0  0  0  0  0  0  0  0  0  0  0
   18.2986   38.9702   63.8039 O   0  0  0  0  0  0  0  0  0  0  0  0
   21.8595   40.8193   68.5654 S   0  0  0  0  0  0  0  0  0  0  0  0
   22.7718   39.3452   68.4556 C   0  0  0  0  0  0  0  0  0  0  0  0
   19.6058   40.0235   64.4756 O   0  0  0  0  0  0  0  0  0  0  0  0
   15.9124   38.4285   64.6134 O   0  5  0  0  0  0  0  0  0  0  0  0
   23.2044   39.3801   67.2164 N   0  0  0  0  0  0  0  0  0  0  0  0
   17.3917   40.1937   65.8822 O   0  0  0  0  0  0  0  0  0  0  0  0
   16.4780   40.6935   63.5255 O   0  0  0  0  0  0  0  0  0  0  0  0
   22.9106   40.3809   66.4152 C   0  0  2  0  0  0  0  0  0  0  0  0
   22.1350   41.3868   66.8939 C   0  0  2  0  0  0  0  0  0  0  0  0
   21.6460   42.6356   66.2081 C   0  0  0  0  0  0  0  0  0  0  0  0
   20.3840   42.3174   65.4031 C   0  0  0  0  0  0  0  0  0  0  0  0
   19.3440   41.9053   66.2923 O   0  0  0  0  0  0  0  0  0  0  0  0
  1 11  1  0  0  0  0
  3 13  1  1  0  0  0
  3 17  1  0  0  0  0
  3 20  1  0  0  0  0
  3 26  1  0  0  0  0
  4 14  1  0  0  0  0
  4 18  1  1  0  0  0
  4 21  2  0  0  0  0
  4 20  1  0  0  0  0
  5 19  1  0  0  0  0
  5  7  1  0  0  0  0
  6  7  2  0  0  0  0
  6 12  1  0  0  0  0
  7  8  1  0  0  0  0
  8  9  1  0  0  0  0
  8 10  2  0  0  0  0
 10 11  1  0  0  0  0
 11 12  2  0  0  0  0
 14 17  1  0  0  0  0
 15 23  1  0  0  0  0
 15 16  1  0  0  0  0
 16 19  1  0  0  0  0
 19 22  1  0  0  0  0
 22  2  1  6  0  0  0
 22 23  1  0  0  0  0
 23 24  1  1  0  0  0
 24 25  1  0  0  0  0
 25 26  1  0  0  0  0
M  CHG  1  18  -1
M  END
>  <CHROM.1>
-80.86567169,66.24887736,-96.73160068,63.42105558,-116.55802694,104.40804457
21.77186838,39.86689460,66.28968745,-0.15246707,0.26465465,-2.23041772

>  <Name>
ligand

>  <RI>
0

>  <Rbt.Current_Directory>
/home/itssahil/PROJECTS/Mol_Feturizer/New_Systems/rnas/2HOL

>  <Rbt.Executable>
rbdock ($Id: //depot/dev/client3/rdock/2013.1/src/exe/rbdock.cxx#4 $)

>  <Rbt.Library>
libRbt.so (2013.1, Build901 2013/11/27)

>  <Rbt.Parameter_File>
/export/apps/rDock/src/rDock_2013.1_src/data/scripts/dock_solv.prm

>  <Rbt.Receptor>
prm/pocket_docking_2.prm

>  <SCORE>
-8.09388

>  <SCORE.INTER>
-9.96486

>  <SCORE.INTER.CONST>
1

>  <SCORE.INTER.POLAR>
0

>  <SCORE.INTER.ROT>
6

>  <SCORE.INTER.SOLV>
32.5959

>  <SCORE.INTER.VDW>
-25.1085

>  <SCORE.INTER.norm>
-0.383264

>  <SCORE.INTRA>
1.49349

>  <SCORE.INTRA.DIHEDRAL>
4.63201

>  <SCORE.INTRA.DIHEDRAL.0>
9.33621

>  <SCORE.INTRA.POLAR>
0

>  <SCORE.INTRA.POLAR.0>
0

>  <SCORE.INTRA.REPUL>
0

>  <SCORE.INTRA.REPUL.0>
0

>  <SCORE.INTRA.SOLV>
2.56532

>  <SCORE.INTRA.SOLV.lig_0>
-65.9238

>  <SCORE.INTRA.VDW>
-2.10517

>  <SCORE.INTRA.VDW.0>
-0.405582

>  <SCORE.INTRA.norm>
0.057442

>  <SCORE.RESTR>
0.377487

>  <SCORE.RESTR.CAVITY>
0.377487

>  <SCORE.RESTR.norm>
0.0145187

>  <SCORE.SYSTEM>
0

>  <SCORE.SYSTEM.CONST>
0

>  <SCORE.SYSTEM.DIHEDRAL>
0

>  <SCORE.SYSTEM.SOLV>
0

>  <SCORE.SYSTEM.norm>
0

>  <SCORE.heavy>
26

>  <SCORE.norm>
-0.311303

>  <RMSD>
8.992

$$$$
ligand
 OpenBabel11021811443D
libRbt.so/2013.1/901 2013/11/27
 26 28  0  0  0  0  0  0  0  0999 V2000
   26.5819   38.1495   75.7180 C   0  0  0  0  0  0  0  0  0  0  0  0
   23.1989   36.4993   70.3277 C   0  0  0  0  0  0  0  0  0  0  0  0
   22.1927   38.3790   65.0910 P   0  0  1  0  0  0  0  0  0  0  0  0
   21.0154   40.6033   65.6853 P   0  0  1  0  0  0  0  0  0  0  0  0
   25.7489   35.4246   70.7886 C   0  0  0  0  0  0  0  0  0  0  0  0
   26.8403   37.2124   72.1759 C   0  0  0  0  0  0  0  0  0  0  0  0
   25.9685   36.1449   72.0940 C   0  0  0  0  0  0  0  0  0  0  0  0
   25.2951   35.7499   73.2513 C   0  0  0  0  0  0  0  0  0  0  0  0
   24.4092   34.6833   73.2219 N   0  0  0  0  0  0  0  0  0  0  0  0
   25.5202   36.4082   74.3846 N   0  0  0  0  0  0  0  0  0  0  0  0
   26.3574   37.4247   74.4167 C   0  0  0  0  0  0  0  0  0  0  0  0
   27.0091   37.8224   73.3414 N   0  0  0  0  0  0  0  0  0  0  0  0
   22.1386   37.8592   63.7059 O   0  0  0  0  0  0  0  0  0  0  0  0
   22.3526   41.0074   65.0245 O   0  0  0  0  0  0  0  0  0  0  0  0
   25.9218   37.8988   67.8844 S   0  0  0  0  0  0  0  0  0  0  0  0
   26.6148   36.7528   68.9907 C   0  0  0  0  0  0  0  0  0  0  0  0
   23.3392   39.5022   65.1990 O   0  0  0  0  0  0  0  0  0  0  0  0
   19.8100   41.4293   65.0106 O   0  5  0  0  0  0  0  0  0  0  0  0
   25.5756   36.4037   69.7133 N   0  0  0  0  0  0  0  0  0  0  0  0
   20.7691   39.0257   65.4768 O   0  0  0  0  0  0  0  0  0  0  0  0
   21.0733   40.9201   67.1966 O   0  0  0  0  0  0  0  0  0  0  0  0
   24.3830   36.9113   69.4899 C   0  0  2  0  0  0  0  0  0  0  0  0
   24.2435   37.8210   68.4921 C   0  0  2  0  0  0  0  0  0  0  0  0
   23.0152   38.5569   68.0247 C   0  0  0  0  0  0  0  0  0  0  0  0
   22.0360   37.5674   67.3889 C   0  0  0  0  0  0  0  0  0  0  0  0
   22.5247   37.1731   66.1052 O   0  0  0  0  0  0  0  0  0  0  0  0
  1 11  1  0  0  0  0
  3 13  1  6  0  0  0
  3 17  1  0  0  0  0
  3 20  1  0  0  0  0
  3 26  1  0  0  0  0
  4 14  1  0  0  0  0
  4 18  1  6  0  0  0
  4 21  2  0  0  0  0
  4 20  1  0  0  0  0
  5 19  1  0  0  0  0
  5  7  1  0  0  0  0
  6  7  2  0  0  0  0
  6 12  1  0  0  0  0
  7  8  1  0  0  0  0
  8  9  1  0  0  0  0
  8 10  2  0  0  0  0
 10 11  1  0  0  0  0
 11 12  2  0  0  0  0
 14 17  1  0  0  0  0
 15 23  1  0  0  0  0
 15 16  1  0  0  0  0
 16 19  1  0  0  0  0
 19 22  1  0  0  0  0
 22  2  1  1  0  0  0
 22 23  1  0  0  0  0
 23 24  1  6  0  0  0
 24 25  1  0  0  0  0
 25 26  1  0  0  0  0
M  CHG  1  18  -1
M  END
>  <CHROM.1>
94.98409629,-45.24609677,112.20634168,-73.90547585,-78.06424440,-156.63537671
23.75865529,38.04689763,68.62278541,0.77369881,-0.85658630,1.28059278

>  <Name>
ligand

>  <RI>
0

>  <Rbt.Current_Directory>
/home/itssahil/PROJECTS/Mol_Feturizer/New_Systems/rnas/2HOL

>  <Rbt.Executable>
rbdock ($Id: //depot/dev/client3/rdock/2013.1/src/exe/rbdock.cxx#4 $)

>  <Rbt.Library>
libRbt.so (2013.1, Build901 2013/11/27)

>  <Rbt.Parameter_File>
/export/apps/rDock/src/rDock_2013.1_src/data/scripts/dock_solv.prm

>  <Rbt.Receptor>
prm/pocket_docking_8.prm

>  <SCORE>
-16.0675

>  <SCORE.INTER>
-15.401

>  <SCORE.INTER.CONST>
1

>  <SCORE.INTER.POLAR>
0

>  <SCORE.INTER.ROT>
6

>  <SCORE.INTER.SOLV>
19.1599

>  <SCORE.INTER.VDW>
-24.254

>  <SCORE.INTER.norm>
-0.592347

>  <SCORE.INTRA>
-0.666505

>  <SCORE.INTRA.DIHEDRAL>
-1.76793

>  <SCORE.INTRA.DIHEDRAL.0>
9.33621

>  <SCORE.INTRA.POLAR>
0

>  <SCORE.INTRA.POLAR.0>
0

>  <SCORE.INTRA.REPUL>
0

>  <SCORE.INTRA.REPUL.0>
0

>  <SCORE.INTRA.SOLV>
2.96496

>  <SCORE.INTRA.SOLV.lig_0>
-65.9238

>  <SCORE.INTRA.VDW>
-1.26502

>  <SCORE.INTRA.VDW.0>
-0.405582

>  <SCORE.INTRA.norm>
-0.0256348

>  <SCORE.RESTR>
0

>  <SCORE.RESTR.CAVITY>
0

>  <SCORE.RESTR.norm>
0

>  <SCORE.SYSTEM>
0

>  <SCORE.SYSTEM.CONST>
0

>  <SCORE.SYSTEM.DIHEDRAL>
0

>  <SCORE.SYSTEM.SOLV>
0

>  <SCORE.SYSTEM.norm>
0

>  <SCORE.heavy>
26

>  <SCORE.norm>
-0.617982

>  <RMSD>
9.003

$$$$
ligand
 OpenBabel11021811443D
libRbt.so/2013.1/901 2013/11/27
 26 28  0  0  0  0  0  0  0  0999 V2000
   28.5614   36.9353   64.5142 C   0  0  0  0  0  0  0  0  0  0  0  0
   22.2333   40.2618   65.8452 C   0  0  0  0  0  0  0  0  0  0  0  0
   18.7580   41.9728   65.1946 P   0  0  1  0  0  0  0  0  0  0  0  0
   17.3129   39.9812   64.3998 P   0  0  1  0  0  0  0  0  0  0  0  0
   24.2234   39.1381   67.4718 C   0  0  0  0  0  0  0  0  0  0  0  0
   25.3122   38.4496   65.3149 C   0  0  0  0  0  0  0  0  0  0  0  0
   25.3724   38.5548   66.6903 C   0  0  0  0  0  0  0  0  0  0  0  0
   26.5248   38.1073   67.3386 C   0  0  0  0  0  0  0  0  0  0  0  0
   26.6345   38.1905   68.7186 N   0  0  0  0  0  0  0  0  0  0  0  0
   27.5144   37.5943   66.6135 N   0  0  0  0  0  0  0  0  0  0  0  0
   27.4169   37.5172   65.3021 C   0  0  0  0  0  0  0  0  0  0  0  0
   26.3420   37.9307   64.6597 N   0  0  0  0  0  0  0  0  0  0  0  0
   18.1129   43.2460   65.5876 O   0  0  0  0  0  0  0  0  0  0  0  0
   17.2315   39.9608   65.9429 O   0  0  0  0  0  0  0  0  0  0  0  0
   24.6577   42.9312   67.3745 S   0  0  0  0  0  0  0  0  0  0  0  0
   25.1000   41.3307   67.8847 C   0  0  0  0  0  0  0  0  0  0  0  0
   18.6811   40.9314   66.4182 O   0  0  0  0  0  0  0  0  0  0  0  0
   15.8313   39.8695   63.7810 O   0  5  0  0  0  0  0  0  0  0  0  0
   24.1945   40.5907   67.2875 N   0  0  0  0  0  0  0  0  0  0  0  0
   17.9951   41.3574   63.9168 O   0  0  0  0  0  0  0  0  0  0  0  0
   18.1643   38.7864   63.9149 O   0  0  0  0  0  0  0  0  0  0  0  0
   23.2655   41.1253   66.5254 C   0  0  2  0  0  0  0  0  0  0  0  0
   23.2522   42.4738   66.3708 C   0  0  2  0  0  0  0  0  0  0  0  0
   22.3159   43.3424   65.5723 C   0  0  0  0  0  0  0  0  0  0  0  0
   20.8678   42.9762   65.9055 C   0  0  0  0  0  0  0  0  0  0  0  0
   20.2995   42.2454   64.8169 O   0  0  0  0  0  0  0  0  0  0  0  0
  1 11  1  0  0  0  0
  3 13  1  1  0  0  0
  3 17  1  0  0  0  0
  3 20  1  0  0  0  0
  3 26  1  0  0  0  0
  4 14  1  0  0  0  0
  4 18  1  6  0  0  0
  4 21  2  0  0  0  0
  4 20  1  0  0  0  0
  5 19  1  0  0  0  0
  5  7  1  0  0  0  0
  6  7  2  0  0  0  0
  6 12  1  0  0  0  0
  7  8  1  0  0  0  0
  8  9  1  0  0  0  0
  8 10  2  0  0  0  0
 10 11  1  0  0  0  0
 11 12  2  0  0  0  0
 14 17  1  0  0  0  0
 15 23  1  0  0  0  0
 15 16  1  0  0  0  0
 16 19  1  0  0  0  0
 19 22  1  0  0  0  0
 22  2  1  1  0  0  0
 22 23  1  0  0  0  0
 23 24  1  6  0  0  0
 24 25  1  0  0  0  0
 25 26  1  0  0  0  0
M  CHG  1  18  -1
M  END
>  <CHROM.1>
-73.42985656,-74.09234692,-130.36407315,-105.98490055,-176.61860330,51.23282355
22.04648293,40.43554186,65.81675470,0.16498288,0.26723558,-2.77129352

>  <Name>
ligand

>  <RI>
0

>  <Rbt.Current_Directory>
/home/itssahil/PROJECTS/Mol_Feturizer/New_Systems/rnas/2HOL

>  <Rbt.Executable>
rbdock ($Id: //depot/dev/client3/rdock/2013.1/src/exe/rbdock.cxx#4 $)

>  <Rbt.Library>
libRbt.so (2013.1, Build901 2013/11/27)

>  <Rbt.Parameter_File>
/export/apps/rDock/src/rDock_2013.1_src/data/scripts/dock_solv.prm

>  <Rbt.Receptor>
prm/pocket_docking_8.prm

>  <SCORE>
-20.3354

>  <SCORE.INTER>
-20.4185

>  <SCORE.INTER.CONST>
1

>  <SCORE.INTER.POLAR>
0

>  <SCORE.INTER.ROT>
6

>  <SCORE.INTER.SOLV>
29.0878

>  <SCORE.INTER.VDW>
-30.9083

>  <SCORE.INTER.norm>
-0.785327

>  <SCORE.INTRA>
0.0831274

>  <SCORE.INTRA.DIHEDRAL>
0.247863

>  <SCORE.INTRA.DIHEDRAL.0>
9.33621

>  <SCORE.INTRA.POLAR>
0

>  <SCORE.INTRA.POLAR.0>
0

>  <SCORE.INTRA.REPUL>
0

>  <SCORE.INTRA.REPUL.0>
0

>  <SCORE.INTRA.SOLV>
0.544012

>  <SCORE.INTRA.SOLV.lig_0>
-65.9238

>  <SCORE.INTRA.VDW>
-0.31281

>  <SCORE.INTRA.VDW.0>
-0.405582

>  <SCORE.INTRA.norm>
0.00319721

>  <SCORE.RESTR>
0

>  <SCORE.RESTR.CAVITY>
0

>  <SCORE.RESTR.norm>
0

>  <SCORE.SYSTEM>
0

>  <SCORE.SYSTEM.CONST>
0

>  <SCORE.SYSTEM.DIHEDRAL>
0

>  <SCORE.SYSTEM.SOLV>
0

>  <SCORE.SYSTEM.norm>
0

>  <SCORE.heavy>
26

>  <SCORE.norm>
-0.78213

>  <RMSD>
9.017

$$$$
ligand
 OpenBabel11021811443D
libRbt.so/2013.1/901 2013/11/27
 26 28  0  0  0  0  0  0  0  0999 V2000
   29.5019   37.4953   65.5700 C   0  0  0  0  0  0  0  0  0  0  0  0
   22.3069   40.4132   65.4713 C   0  0  0  0  0  0  0  0  0  0  0  0
   18.7456   42.1063   65.2199 P   0  0  1  0  0  0  0  0  0  0  0  0
   17.3580   40.0691   64.4382 P   0  0  1  0  0  0  0  0  0  0  0  0
   24.2603   39.1585   67.0459 C   0  0  0  0  0  0  0  0  0  0  0  0
   26.3648   37.8466   67.4482 C   0  0  0  0  0  0  0  0  0  0  0  0
   25.6476   38.7192   66.6540 C   0  0  0  0  0  0  0  0  0  0  0  0
   26.2401   39.1839   65.4786 C   0  0  0  0  0  0  0  0  0  0  0  0
   25.5617   40.0621   64.6468 N   0  0  0  0  0  0  0  0  0  0  0  0
   27.4679   38.7764   65.1708 N   0  0  0  0  0  0  0  0  0  0  0  0
   28.1147   37.9389   65.9552 C   0  0  0  0  0  0  0  0  0  0  0  0
   27.5833   37.4818   67.0722 N   0  0  0  0  0  0  0  0  0  0  0  0
   18.0624   43.3491   65.6443 O   0  0  0  0  0  0  0  0  0  0  0  0
   17.3173   40.0286   65.9825 O   0  0  0  0  0  0  0  0  0  0  0  0
   24.5678   42.9463   67.4243 S   0  0  0  0  0  0  0  0  0  0  0  0
   25.0417   41.3092   67.7600 C   0  0  0  0  0  0  0  0  0  0  0  0
   18.7404   41.0493   66.4325 O   0  0  0  0  0  0  0  0  0  0  0  0
   15.8664   39.9069   63.8558 O   0  5  0  0  0  0  0  0  0  0  0  0
   24.1897   40.6213   67.0356 N   0  0  0  0  0  0  0  0  0  0  0  0
   17.9742   41.4759   63.9545 O   0  0  0  0  0  0  0  0  0  0  0  0
   18.2419   38.9135   63.9177 O   0  0  0  0  0  0  0  0  0  0  0  0
   23.2776   41.2173   66.2989 C   0  0  2  0  0  0  0  0  0  0  0  0
   23.2249   42.5736   66.3064 C   0  0  2  0  0  0  0  0  0  0  0  0
   22.2956   43.5053   65.5733 C   0  0  0  0  0  0  0  0  0  0  0  0
   20.8450   43.1482   65.9056 C   0  0  0  0  0  0  0  0  0  0  0  0
   20.2653   42.4425   64.8066 O   0  0  0  0  0  0  0  0  0  0  0  0
  1 11  1  0  0  0  0
  3 13  1  1  0  0  0
  3 17  1  0  0  0  0
  3 20  1  0  0  0  0
  3 26  1  0  0  0  0
  4 14  1  0  0  0  0
  4 18  1  6  0  0  0
  4 21  2  0  0  0  0
  4 20  1  0  0  0  0
  5 19  1  0  0  0  0
  5  7  1  0  0  0  0
  6  7  2  0  0  0  0
  6 12  1  0  0  0  0
  7  8  1  0  0  0  0
  8  9  1  0  0  0  0
  8 10  2  0  0  0  0
 10 11  1  0  0  0  0
 11 12  2  0  0  0  0
 14 17  1  0  0  0  0
 15 23  1  0  0  0  0
 15 16  1  0  0  0  0
 16 19  1  0  0  0  0
 19 22  1  0  0  0  0
 22  2  1  1  0  0  0
 22 23  1  0  0  0  0
 23 24  1  6  0  0  0
 24 25  1  0  0  0  0
 25 26  1  0  0  0  0
M  CHG  1  18  -1
M  END
>  <CHROM.1>
-55.66090770,127.18952661,-124.58105498,-103.51682624,-179.73961805,52.91417823
22.13590013,40.64357271,65.74511390,0.16396445,0.22141632,-2.84717485

>  <Name>
ligand

>  <RI>
0

>  <Rbt.Current_Directory>
/home/itssahil/PROJECTS/Mol_Feturizer/New_Systems/rnas/2HOL

>  <Rbt.Executable>
rbdock ($Id: //depot/dev/client3/rdock/2013.1/src/exe/rbdock.cxx#4 $)

>  <Rbt.Library>
libRbt.so (2013.1, Build901 2013/11/27)

>  <Rbt.Parameter_File>
/export/apps/rDock/src/rDock_2013.1_src/data/scripts/dock_solv.prm

>  <Rbt.Receptor>
prm/pocket_docking_3.prm

>  <SCORE>
-15.144

>  <SCORE.INTER>
-16.0578

>  <SCORE.INTER.CONST>
1

>  <SCORE.INTER.POLAR>
0

>  <SCORE.INTER.ROT>
6

>  <SCORE.INTER.SOLV>
30.6382

>  <SCORE.INTER.VDW>
-28.518

>  <SCORE.INTER.norm>
-0.617608

>  <SCORE.INTRA>
0.913844

>  <SCORE.INTRA.DIHEDRAL>
-0.131995

>  <SCORE.INTRA.DIHEDRAL.0>
9.33621

>  <SCORE.INTRA.POLAR>
0

>  <SCORE.INTRA.POLAR.0>
0

>  <SCORE.INTRA.REPUL>
0

>  <SCORE.INTRA.REPUL.0>
0

>  <SCORE.INTRA.SOLV>
3.81155

>  <SCORE.INTRA.SOLV.lig_0>
-65.9238

>  <SCORE.INTRA.VDW>
-0.925934

>  <SCORE.INTRA.VDW.0>
-0.405582

>  <SCORE.INTRA.norm>
0.0351478

>  <SCORE.RESTR>
0

>  <SCORE.RESTR.CAVITY>
0

>  <SCORE.RESTR.norm>
0

>  <SCORE.SYSTEM>
0

>  <SCORE.SYSTEM.CONST>
0

>  <SCORE.SYSTEM.DIHEDRAL>
0

>  <SCORE.SYSTEM.SOLV>
0

>  <SCORE.SYSTEM.norm>
0

>  <SCORE.heavy>
26

>  <SCORE.norm>
-0.582461

>  <RMSD>
9.023

$$$$
ligand
 OpenBabel11021811443D
libRbt.so/2013.1/901 2013/11/27
 26 28  0  0  0  0  0  0  0  0999 V2000
   27.9476   36.8618   64.4861 C   0  0  0  0  0  0  0  0  0  0  0  0
   25.0113   43.1754   66.4136 C   0  0  0  0  0  0  0  0  0  0  0  0
   18.6248   41.8730   65.1927 P   0  0  1  0  0  0  0  0  0  0  0  0
   17.3520   39.7452   64.4585 P   0  0  1  0  0  0  0  0  0  0  0  0
   25.6379   40.8419   67.8390 C   0  0  0  0  0  0  0  0  0  0  0  0
   26.2271   39.9177   65.5784 C   0  0  0  0  0  0  0  0  0  0  0  0
   26.2496   39.7876   66.9527 C   0  0  0  0  0  0  0  0  0  0  0  0
   26.8537   38.6547   67.5006 C   0  0  0  0  0  0  0  0  0  0  0  0
   26.9019   38.4767   68.8752 N   0  0  0  0  0  0  0  0  0  0  0  0
   27.3775   37.7449   66.6844 N   0  0  0  0  0  0  0  0  0  0  0  0
   27.3382   37.9115   65.3783 C   0  0  0  0  0  0  0  0  0  0  0  0
   26.7748   38.9700   64.8294 N   0  0  0  0  0  0  0  0  0  0  0  0
   17.8747   43.0957   65.5586 O   0  0  0  0  0  0  0  0  0  0  0  0
   17.2808   39.7572   66.0021 O   0  0  0  0  0  0  0  0  0  0  0  0
   21.8970   40.8930   67.0721 S   0  0  0  0  0  0  0  0  0  0  0  0
   23.3330   40.1894   67.7505 C   0  0  0  0  0  0  0  0  0  0  0  0
   18.6441   40.8603   66.4424 O   0  0  0  0  0  0  0  0  0  0  0  0
   15.8823   39.4911   63.8536 O   0  5  0  0  0  0  0  0  0  0  0  0
   24.2496   41.0749   67.4348 N   0  0  0  0  0  0  0  0  0  0  0  0
   17.9109   41.1621   63.9363 O   0  0  0  0  0  0  0  0  0  0  0  0
   18.3004   38.6159   63.9972 O   0  0  0  0  0  0  0  0  0  0  0  0
   23.9473   42.1671   66.7674 C   0  0  2  0  0  0  0  0  0  0  0  0
   22.6561   42.3628   66.3974 C   0  0  2  0  0  0  0  0  0  0  0  0
   22.0353   43.5034   65.6341 C   0  0  0  0  0  0  0  0  0  0  0  0
   20.5121   43.3562   65.6419 C   0  0  0  0  0  0  0  0  0  0  0  0
   20.1352   42.2671   64.7970 O   0  0  0  0  0  0  0  0  0  0  0  0
  1 11  1  0  0  0  0
  3 13  1  1  0  0  0
  3 17  1  0  0  0  0
  3 20  1  0  0  0  0
  3 26  1  0  0  0  0
  4 14  1  0  0  0  0
  4 18  1  6  0  0  0
  4 21  2  0  0  0  0
  4 20  1  0  0  0  0
  5 19  1  0  0  0  0
  5  7  1  0  0  0  0
  6  7  2  0  0  0  0
  6 12  1  0  0  0  0
  7  8  1  0  0  0  0
  8  9  1  0  0  0  0
  8 10  2  0  0  0  0
 10 11  1  0  0  0  0
 11 12  2  0  0  0  0
 14 17  1  0  0  0  0
 15 23  1  0  0  0  0
 15 16  1  0  0  0  0
 16 19  1  0  0  0  0
 19 22  1  0  0  0  0
 22  2  1  6  0  0  0
 22 23  1  0  0  0  0
 23 24  1  1  0  0  0
 24 25  1  0  0  0  0
 25 26  1  0  0  0  0
M  CHG  1  18  -1
M  END
>  <CHROM.1>
75.21251924,53.94621571,7.77469339,-71.61908643,162.76107772,35.10500664
21.95187305,40.55213600,65.87477798,0.11426021,0.24086991,-2.80277465

>  <Name>
ligand

>  <RI>
0

>  <Rbt.Current_Directory>
/home/itssahil/PROJECTS/Mol_Feturizer/New_Systems/rnas/2HOL

>  <Rbt.Executable>
rbdock ($Id: //depot/dev/client3/rdock/2013.1/src/exe/rbdock.cxx#4 $)

>  <Rbt.Library>
libRbt.so (2013.1, Build901 2013/11/27)

>  <Rbt.Parameter_File>
/export/apps/rDock/src/rDock_2013.1_src/data/scripts/dock_solv.prm

>  <Rbt.Receptor>
prm/pocket_docking_3.prm

>  <SCORE>
-19.1341

>  <SCORE.INTER>
-17.3762

>  <SCORE.INTER.CONST>
1

>  <SCORE.INTER.POLAR>
0

>  <SCORE.INTER.ROT>
6

>  <SCORE.INTER.SOLV>
29.2583

>  <SCORE.INTER.VDW>
-28.9369

>  <SCORE.INTER.norm>
-0.668315

>  <SCORE.INTRA>
-2.31686

>  <SCORE.INTRA.DIHEDRAL>
-1.99211

>  <SCORE.INTRA.DIHEDRAL.0>
9.33621

>  <SCORE.INTRA.POLAR>
0

>  <SCORE.INTRA.POLAR.0>
0

>  <SCORE.INTRA.REPUL>
0

>  <SCORE.INTRA.REPUL.0>
0

>  <SCORE.INTRA.SOLV>
-0.508127

>  <SCORE.INTRA.SOLV.lig_0>
-65.9238

>  <SCORE.INTRA.VDW>
-1.06674

>  <SCORE.INTRA.VDW.0>
-0.405582

>  <SCORE.INTRA.norm>
-0.0891101

>  <SCORE.RESTR>
0.558954

>  <SCORE.RESTR.CAVITY>
0.558954

>  <SCORE.RESTR.norm>
0.0214982

>  <SCORE.SYSTEM>
0

>  <SCORE.SYSTEM.CONST>
0

>  <SCORE.SYSTEM.DIHEDRAL>
0

>  <SCORE.SYSTEM.SOLV>
0

>  <SCORE.SYSTEM.norm>
0

>  <SCORE.heavy>
26

>  <SCORE.norm>
-0.735927

>  <RMSD>
9.029

$$$$
ligand
 OpenBabel11021811443D
libRbt.so/2013.1/901 2013/11/27
 26 28  0  0  0  0  0  0  0  0999 V2000
   26.7323   37.9125   71.0128 C   0  0  0  0  0  0  0  0  0  0  0  0
   24.2274   41.5618   66.9825 C   0  0  0  0  0  0  0  0  0  0  0  0
   18.6616   42.0167   65.1449 P   0  0  1  0  0  0  0  0  0  0  0  0
   17.2110   40.0073   64.4066 P   0  0  1  0  0  0  0  0  0  0  0  0
   25.1076   39.2193   65.7146 C   0  0  0  0  0  0  0  0  0  0  0  0
   24.6933   38.1942   67.9706 C   0  0  0  0  0  0  0  0  0  0  0  0
   25.5389   38.8741   67.1168 C   0  0  0  0  0  0  0  0  0  0  0  0
   26.8039   39.2334   67.5852 C   0  0  0  0  0  0  0  0  0  0  0  0
   27.6903   39.9178   66.7670 N   0  0  0  0  0  0  0  0  0  0  0  0
   27.1447   38.9148   68.8304 N   0  0  0  0  0  0  0  0  0  0  0  0
   26.3081   38.2610   69.6100 C   0  0  0  0  0  0  0  0  0  0  0  0
   25.1063   37.9075   69.1980 N   0  0  0  0  0  0  0  0  0  0  0  0
   18.0161   43.2708   65.5946 O   0  0  0  0  0  0  0  0  0  0  0  0
   17.2217   39.9637   65.9513 O   0  0  0  0  0  0  0  0  0  0  0  0
   21.3150   39.5014   65.3655 S   0  0  0  0  0  0  0  0  0  0  0  0
   22.8432   38.7159   65.1106 C   0  0  0  0  0  0  0  0  0  0  0  0
   18.6777   40.9568   66.3550 O   0  0  0  0  0  0  0  0  0  0  0  0
   15.6978   39.8741   63.8746 O   0  5  0  0  0  0  0  0  0  0  0  0
   23.6776   39.5355   65.7071 N   0  0  0  0  0  0  0  0  0  0  0  0
   17.8364   41.4038   63.9051 O   0  0  0  0  0  0  0  0  0  0  0  0
   18.0553   38.8370   63.8543 O   0  0  0  0  0  0  0  0  0  0  0  0
   23.2566   40.6312   66.3004 C   0  0  2  0  0  0  0  0  0  0  0  0
   21.9282   40.9094   66.2784 C   0  0  2  0  0  0  0  0  0  0  0  0
   21.1793   42.0778   66.8640 C   0  0  0  0  0  0  0  0  0  0  0  0
   20.7910   43.0492   65.7470 C   0  0  0  0  0  0  0  0  0  0  0  0
   20.1724   42.3258   64.6812 O   0  0  0  0  0  0  0  0  0  0  0  0
  1 11  1  0  0  0  0
  3 13  1  1  0  0  0
  3 17  1  0  0  0  0
  3 20  1  0  0  0  0
  3 26  1  0  0  0  0
  4 14  1  0  0  0  0
  4 18  1  6  0  0  0
  4 21  2  0  0  0  0
  4 20  1  0  0  0  0
  5 19  1  0  0  0  0
  5  7  1  0  0  0  0
  6  7  2  0  0  0  0
  6 12  1  0  0  0  0
  7  8  1  0  0  0  0
  8  9  1  0  0  0  0
  8 10  2  0  0  0  0
 10 11  1  0  0  0  0
 11 12  2  0  0  0  0
 14 17  1  0  0  0  0
 15 23  1  0  0  0  0
 15 16  1  0  0  0  0
 16 19  1  0  0  0  0
 19 22  1  0  0  0  0
 22  2  1  6  0  0  0
 22 23  1  0  0  0  0
 23 24  1  1  0  0  0
 24 25  1  0  0  0  0
 25 26  1  0  0  0  0
M  CHG  1  18  -1
M  END
>  <CHROM.1>
-111.28948342,35.40153561,-76.12760207,49.35826453,77.84534814,51.40577296
21.57043399,40.21873902,66.14539366,0.26663649,0.36835377,3.01713183

>  <Name>
ligand

>  <RI>
0

>  <Rbt.Current_Directory>
/home/itssahil/PROJECTS/Mol_Feturizer/New_Systems/rnas/2HOL

>  <Rbt.Executable>
rbdock ($Id: //depot/dev/client3/rdock/2013.1/src/exe/rbdock.cxx#4 $)

>  <Rbt.Library>
libRbt.so (2013.1, Build901 2013/11/27)

>  <Rbt.Parameter_File>
/export/apps/rDock/src/rDock_2013.1_src/data/scripts/dock_solv.prm

>  <Rbt.Receptor>
prm/pocket_docking_3.prm

>  <SCORE>
-20.373

>  <SCORE.INTER>
-18.9566

>  <SCORE.INTER.CONST>
1

>  <SCORE.INTER.POLAR>
0

>  <SCORE.INTER.ROT>
6

>  <SCORE.INTER.SOLV>
27.8416

>  <SCORE.INTER.VDW>
-29.5183

>  <SCORE.INTER.norm>
-0.729099

>  <SCORE.INTRA>
-1.41647

>  <SCORE.INTRA.DIHEDRAL>
-2.27259

>  <SCORE.INTRA.DIHEDRAL.0>
9.33621

>  <SCORE.INTRA.POLAR>
0

>  <SCORE.INTRA.POLAR.0>
0

>  <SCORE.INTRA.REPUL>
0

>  <SCORE.INTRA.REPUL.0>
0

>  <SCORE.INTRA.SOLV>
1.2439

>  <SCORE.INTRA.SOLV.lig_0>
-65.9238

>  <SCORE.INTRA.VDW>
-0.902122

>  <SCORE.INTRA.VDW.0>
-0.405582

>  <SCORE.INTRA.norm>
-0.0544795

>  <SCORE.RESTR>
0

>  <SCORE.RESTR.CAVITY>
0

>  <SCORE.RESTR.norm>
0

>  <SCORE.SYSTEM>
0

>  <SCORE.SYSTEM.CONST>
0

>  <SCORE.SYSTEM.DIHEDRAL>
0

>  <SCORE.SYSTEM.SOLV>
0

>  <SCORE.SYSTEM.norm>
0

>  <SCORE.heavy>
26

>  <SCORE.norm>
-0.783578

>  <RMSD>
9.031

$$$$
ligand
 OpenBabel11021811443D
libRbt.so/2013.1/901 2013/11/27
 26 28  0  0  0  0  0  0  0  0999 V2000
   30.7509   37.7701   66.3987 C   0  0  0  0  0  0  0  0  0  0  0  0
   23.5892   39.4212   65.4315 C   0  0  0  0  0  0  0  0  0  0  0  0
   20.1742   42.7009   65.3505 P   0  0  1  0  0  0  0  0  0  0  0  0
   18.1063   41.2071   64.9275 P   0  0  1  0  0  0  0  0  0  0  0  0
   26.0633   40.4890   64.6516 C   0  0  0  0  0  0  0  0  0  0  0  0
   27.3382   38.3925   65.1912 C   0  0  0  0  0  0  0  0  0  0  0  0
   27.3047   39.7706   65.1143 C   0  0  0  0  0  0  0  0  0  0  0  0
   28.4503   40.4818   65.4757 C   0  0  0  0  0  0  0  0  0  0  0  0
   28.4676   41.8673   65.4165 N   0  0  0  0  0  0  0  0  0  0  0  0
   29.5236   39.8111   65.8835 N   0  0  0  0  0  0  0  0  0  0  0  0
   29.5137   38.4950   65.9372 C   0  0  0  0  0  0  0  0  0  0  0  0
   28.4479   37.7940   65.6031 N   0  0  0  0  0  0  0  0  0  0  0  0
   20.5491   43.7426   64.3678 O   0  0  0  0  0  0  0  0  0  0  0  0
   17.5484   42.5377   65.4810 O   0  0  0  0  0  0  0  0  0  0  0  0
   24.7653   42.3912   67.6982 S   0  0  0  0  0  0  0  0  0  0  0  0
   25.9276   42.0706   66.4478 C   0  0  0  0  0  0  0  0  0  0  0  0
   18.9954   43.2532   66.2956 O   0  0  0  0  0  0  0  0  0  0  0  0
   17.2955   40.7940   63.6000 O   0  5  0  0  0  0  0  0  0  0  0  0
   25.3739   41.0671   65.8072 N   0  0  0  0  0  0  0  0  0  0  0  0
   19.6662   41.3864   64.5710 O   0  0  0  0  0  0  0  0  0  0  0  0
   17.9457   40.1002   65.9936 O   0  0  0  0  0  0  0  0  0  0  0  0
   24.2129   40.5731   66.1785 C   0  0  2  0  0  0  0  0  0  0  0  0
   23.5917   41.1192   67.2548 C   0  0  2  0  0  0  0  0  0  0  0  0
   22.2773   40.7564   67.8947 C   0  0  0  0  0  0  0  0  0  0  0  0
   21.1296   41.1235   66.9513 C   0  0  0  0  0  0  0  0  0  0  0  0
   21.4549   42.3265   66.2521 O   0  0  0  0  0  0  0  0  0  0  0  0
  1 11  1  0  0  0  0
  3 13  1  6  0  0  0
  3 17  1  0  0  0  0
  3 20  1  0  0  0  0
  3 26  1  0  0  0  0
  4 14  1  0  0  0  0
  4 18  1  6  0  0  0
  4 21  2  0  0  0  0
  4 20  1  0  0  0  0
  5 19  1  0  0  0  0
  5  7  1  0  0  0  0
  6  7  2  0  0  0  0
  6 12  1  0  0  0  0
  7  8  1  0  0  0  0
  8  9  1  0  0  0  0
  8 10  2  0  0  0  0
 10 11  1  0  0  0  0
 11 12  2  0  0  0  0
 14 17  1  0  0  0  0
 15 23  1  0  0  0  0
 15 16  1  0  0  0  0
 16 19  1  0  0  0  0
 19 22  1  0  0  0  0
 22  2  1  1  0  0  0
 22 23  1  0  0  0  0
 23 24  1  6  0  0  0
 24 25  1  0  0  0  0
 25 26  1  0  0  0  0
M  CHG  1  18  -1
M  END
>  <CHROM.1>
68.93107720,103.60405298,111.09780765,-35.79734529,-176.61405743,-166.76206221
23.21668116,41.03609252,65.78402045,0.18588102,0.15606150,-2.71552911

>  <Name>
ligand

>  <RI>
0

>  <Rbt.Current_Directory>
/home/itssahil/PROJECTS/Mol_Feturizer/New_Systems/rnas/2HOL

>  <Rbt.Executable>
rbdock ($Id: //depot/dev/client3/rdock/2013.1/src/exe/rbdock.cxx#4 $)

>  <Rbt.Library>
libRbt.so (2013.1, Build901 2013/11/27)

>  <Rbt.Parameter_File>
/export/apps/rDock/src/rDock_2013.1_src/data/scripts/dock_solv.prm

>  <Rbt.Receptor>
prm/pocket_docking_3.prm

>  <SCORE>
-12.5754

>  <SCORE.INTER>
-10.8548

>  <SCORE.INTER.CONST>
1

>  <SCORE.INTER.POLAR>
0

>  <SCORE.INTER.ROT>
6

>  <SCORE.INTER.SOLV>
27.7535

>  <SCORE.INTER.VDW>
-24.0877

>  <SCORE.INTER.norm>
-0.417491

>  <SCORE.INTRA>
-1.72578

>  <SCORE.INTRA.DIHEDRAL>
-2.47995

>  <SCORE.INTRA.DIHEDRAL.0>
9.33621

>  <SCORE.INTRA.POLAR>
0

>  <SCORE.INTRA.POLAR.0>
0

>  <SCORE.INTRA.REPUL>
0

>  <SCORE.INTRA.REPUL.0>
0

>  <SCORE.INTRA.SOLV>
2.14023

>  <SCORE.INTRA.SOLV.lig_0>
-65.9238

>  <SCORE.INTRA.VDW>
-1.55592

>  <SCORE.INTRA.VDW.0>
-0.405582

>  <SCORE.INTRA.norm>
-0.0663762

>  <SCORE.RESTR>
0.00515986

>  <SCORE.RESTR.CAVITY>
0.00515986

>  <SCORE.RESTR.norm>
0.000198456

>  <SCORE.SYSTEM>
0

>  <SCORE.SYSTEM.CONST>
0

>  <SCORE.SYSTEM.DIHEDRAL>
0

>  <SCORE.SYSTEM.SOLV>
0

>  <SCORE.SYSTEM.norm>
0

>  <SCORE.heavy>
26

>  <SCORE.norm>
-0.483669

>  <RMSD>
9.034

$$$$
ligand
 OpenBabel11021811443D
libRbt.so/2013.1/901 2013/11/27
 26 28  0  0  0  0  0  0  0  0999 V2000
   31.3671   39.6235   67.1215 C   0  0  0  0  0  0  0  0  0  0  0  0
   24.5857   38.2073   65.6818 C   0  0  0  0  0  0  0  0  0  0  0  0
   20.0922   40.7140   65.9136 P   0  0  1  0  0  0  0  0  0  0  0  0
   17.7622   40.1674   64.9344 P   0  0  1  0  0  0  0  0  0  0  0  0
   26.2120   40.3187   64.8064 C   0  0  0  0  0  0  0  0  0  0  0  0
   28.0003   38.8937   65.8471 C   0  0  0  0  0  0  0  0  0  0  0  0
   27.5767   40.1362   65.4191 C   0  0  0  0  0  0  0  0  0  0  0  0
   28.4449   41.2191   65.5680 C   0  0  0  0  0  0  0  0  0  0  0  0
   28.0667   42.4877   65.1544 N   0  0  0  0  0  0  0  0  0  0  0  0
   29.6387   41.0174   66.1179 N   0  0  0  0  0  0  0  0  0  0  0  0
   30.0043   39.8136   66.5082 C   0  0  0  0  0  0  0  0  0  0  0  0
   29.2078   38.7703   66.3819 N   0  0  0  0  0  0  0  0  0  0  0  0
   21.2277   41.0006   65.0080 O   0  0  0  0  0  0  0  0  0  0  0  0
   17.8842   41.7068   64.8756 O   0  0  0  0  0  0  0  0  0  0  0  0
   23.8748   41.5736   67.5538 S   0  0  0  0  0  0  0  0  0  0  0  0
   25.1346   41.7763   66.3751 C   0  0  0  0  0  0  0  0  0  0  0  0
   19.1912   42.0362   66.0807 O   0  0  0  0  0  0  0  0  0  0  0  0
   17.2667   39.6116   63.5075 O   0  5  0  0  0  0  0  0  0  0  0  0
   25.2310   40.5706   65.8643 N   0  0  0  0  0  0  0  0  0  0  0  0
   19.1965   39.5288   65.2917 O   0  0  0  0  0  0  0  0  0  0  0  0
   16.7381   39.7749   66.0229 O   0  0  0  0  0  0  0  0  0  0  0  0
   24.4638   39.5863   66.2794 C   0  0  2  0  0  0  0  0  0  0  0  0
   23.5642   39.8382   67.2642 C   0  0  2  0  0  0  0  0  0  0  0  0
   22.5763   38.9134   67.9257 C   0  0  0  0  0  0  0  0  0  0  0  0
   21.2418   38.9702   67.1789 C   0  0  0  0  0  0  0  0  0  0  0  0
   20.6537   40.2608   67.3532 O   0  0  0  0  0  0  0  0  0  0  0  0
  1 11  1  0  0  0  0
  3 13  1  6  0  0  0
  3 17  1  0  0  0  0
  3 20  1  0  0  0  0
  3 26  1  0  0  0  0
  4 14  1  0  0  0  0
  4 18  1  6  0  0  0
  4 21  2  0  0  0  0
  4 20  1  0  0  0  0
  5 19  1  0  0  0  0
  5  7  1  0  0  0  0
  6  7  2  0  0  0  0
  6 12  1  0  0  0  0
  7  8  1  0  0  0  0
  8  9  1  0  0  0  0
  8 10  2  0  0  0  0
 10 11  1  0  0  0  0
 11 12  2  0  0  0  0
 14 17  1  0  0  0  0
 15 23  1  0  0  0  0
 15 16  1  0  0  0  0
 16 19  1  0  0  0  0
 19 22  1  0  0  0  0
 22  2  1  1  0  0  0
 22 23  1  0  0  0  0
 23 24  1  6  0  0  0
 24 25  1  0  0  0  0
 25 26  1  0  0  0  0
M  CHG  1  18  -1
M  END
>  <CHROM.1>
79.96867872,87.53389885,88.47159054,-67.32365442,136.48564085,-69.79283046
23.17949120,40.32915452,65.99916903,0.03749905,0.06997862,2.83797527

>  <Name>
ligand

>  <RI>
0

>  <Rbt.Current_Directory>
/home/itssahil/PROJECTS/Mol_Feturizer/New_Systems/rnas/2HOL

>  <Rbt.Executable>
rbdock ($Id: //depot/dev/client3/rdock/2013.1/src/exe/rbdock.cxx#4 $)

>  <Rbt.Library>
libRbt.so (2013.1, Build901 2013/11/27)

>  <Rbt.Parameter_File>
/export/apps/rDock/src/rDock_2013.1_src/data/scripts/dock_solv.prm

>  <Rbt.Receptor>
prm/pocket_docking_6.prm

>  <SCORE>
-14.4527

>  <SCORE.INTER>
-12.9598

>  <SCORE.INTER.CONST>
1

>  <SCORE.INTER.POLAR>
0

>  <SCORE.INTER.ROT>
6

>  <SCORE.INTER.SOLV>
26.3413

>  <SCORE.INTER.VDW>
-25.0203

>  <SCORE.INTER.norm>
-0.498455

>  <SCORE.INTRA>
-1.49283

>  <SCORE.INTRA.DIHEDRAL>
1.83795

>  <SCORE.INTRA.DIHEDRAL.0>
9.33621

>  <SCORE.INTRA.POLAR>
0

>  <SCORE.INTRA.POLAR.0>
0

>  <SCORE.INTRA.REPUL>
0

>  <SCORE.INTRA.REPUL.0>
0

>  <SCORE.INTRA.SOLV>
1.10073

>  <SCORE.INTRA.SOLV.lig_0>
-65.9238

>  <SCORE.INTRA.VDW>
-2.96217

>  <SCORE.INTRA.VDW.0>
-0.405582

>  <SCORE.INTRA.norm>
-0.0574165

>  <SCORE.RESTR>
0

>  <SCORE.RESTR.CAVITY>
0

>  <SCORE.RESTR.norm>
0

>  <SCORE.SYSTEM>
0

>  <SCORE.SYSTEM.CONST>
0

>  <SCORE.SYSTEM.DIHEDRAL>
0

>  <SCORE.SYSTEM.SOLV>
0

>  <SCORE.SYSTEM.norm>
0

>  <SCORE.heavy>
26

>  <SCORE.norm>
-0.555872

>  <RMSD>
9.037

$$$$
ligand
 OpenBabel11021811443D
libRbt.so/2013.1/901 2013/11/27
 26 28  0  0  0  0  0  0  0  0999 V2000
   31.0470   37.6395   65.9859 C   0  0  0  0  0  0  0  0  0  0  0  0
   24.0040   37.9456   68.6865 C   0  0  0  0  0  0  0  0  0  0  0  0
   19.1762   40.7849   65.4388 P   0  0  1  0  0  0  0  0  0  0  0  0
   19.5184   43.3479   65.4561 P   0  0  1  0  0  0  0  0  0  0  0  0
   26.2726   39.5727   68.4122 C   0  0  0  0  0  0  0  0  0  0  0  0
   27.6332   37.7550   67.3369 C   0  0  0  0  0  0  0  0  0  0  0  0
   27.5370   39.0624   67.7702 C   0  0  0  0  0  0  0  0  0  0  0  0
   28.6406   39.8997   67.5982 C   0  0  0  0  0  0  0  0  0  0  0  0
   28.5948   41.2211   68.0169 N   0  0  0  0  0  0  0  0  0  0  0  0
   29.7395   39.4098   67.0319 N   0  0  0  0  0  0  0  0  0  0  0  0
   29.7865   38.1567   66.6286 C   0  0  0  0  0  0  0  0  0  0  0  0
   28.7616   37.3401   66.7767 N   0  0  0  0  0  0  0  0  0  0  0  0
   18.0105   40.1885   66.1295 O   0  0  0  0  0  0  0  0  0  0  0  0
   18.4632   43.0794   64.3596 O   0  0  0  0  0  0  0  0  0  0  0  0
   23.8808   40.2323   65.5088 S   0  0  0  0  0  0  0  0  0  0  0  0
   25.3504   40.4895   66.3984 C   0  0  0  0  0  0  0  0  0  0  0  0
   18.7244   41.3281   63.9937 O   0  0  0  0  0  0  0  0  0  0  0  0
   19.0011   44.5245   66.4248 O   0  5  0  0  0  0  0  0  0  0  0  0
   25.2129   39.6576   67.4049 N   0  0  0  0  0  0  0  0  0  0  0  0
   19.7516   42.0067   66.3161 O   0  0  0  0  0  0  0  0  0  0  0  0
   20.8487   43.7735   64.7951 O   0  0  0  0  0  0  0  0  0  0  0  0
   24.1466   38.8971   67.5255 C   0  0  2  0  0  0  0  0  0  0  0  0
   23.1731   38.9937   66.5845 C   0  0  2  0  0  0  0  0  0  0  0  0
   21.8630   38.2586   66.4753 C   0  0  0  0  0  0  0  0  0  0  0  0
   20.7062   39.2559   66.5722 C   0  0  0  0  0  0  0  0  0  0  0  0
   20.3232   39.6690   65.2590 O   0  0  0  0  0  0  0  0  0  0  0  0
  1 11  1  0  0  0  0
  3 13  1  1  0  0  0
  3 17  1  0  0  0  0
  3 20  1  0  0  0  0
  3 26  1  0  0  0  0
  4 14  1  0  0  0  0
  4 18  1  1  0  0  0
  4 21  2  0  0  0  0
  4 20  1  0  0  0  0
  5 19  1  0  0  0  0
  5  7  1  0  0  0  0
  6  7  2  0  0  0  0
  6 12  1  0  0  0  0
  7  8  1  0  0  0  0
  8  9  1  0  0  0  0
  8 10  2  0  0  0  0
 10 11  1  0  0  0  0
 11 12  2  0  0  0  0
 14 17  1  0  0  0  0
 15 23  1  0  0  0  0
 15 16  1  0  0  0  0
 16 19  1  0  0  0  0
 19 22  1  0  0  0  0
 22  2  1  1  0  0  0
 22 23  1  0  0  0  0
 23 24  1  6  0  0  0
 24 25  1  0  0  0  0
 25 26  1  0  0  0  0
M  CHG  1  18  -1
M  END
>  <CHROM.1>
-63.84024043,-69.63176162,-63.06192504,93.04529006,-176.29343702,-61.50914635
23.26236411,40.35168092,66.31232075,-0.36455794,-0.12567858,-0.17139831

>  <Name>
ligand

>  <RI>
0

>  <Rbt.Current_Directory>
/home/itssahil/PROJECTS/Mol_Feturizer/New_Systems/rnas/2HOL

>  <Rbt.Executable>
rbdock ($Id: //depot/dev/client3/rdock/2013.1/src/exe/rbdock.cxx#4 $)

>  <Rbt.Library>
libRbt.so (2013.1, Build901 2013/11/27)

>  <Rbt.Parameter_File>
/export/apps/rDock/src/rDock_2013.1_src/data/scripts/dock_solv.prm

>  <Rbt.Receptor>
prm/pocket_docking_3.prm

>  <SCORE>
-12.7194

>  <SCORE.INTER>
-10.2746

>  <SCORE.INTER.CONST>
1

>  <SCORE.INTER.POLAR>
0

>  <SCORE.INTER.ROT>
6

>  <SCORE.INTER.SOLV>
27.0188

>  <SCORE.INTER.VDW>
-23.456

>  <SCORE.INTER.norm>
-0.395177

>  <SCORE.INTRA>
-2.48675

>  <SCORE.INTRA.DIHEDRAL>
-0.909983

>  <SCORE.INTRA.DIHEDRAL.0>
9.33621

>  <SCORE.INTRA.POLAR>
0

>  <SCORE.INTRA.POLAR.0>
0

>  <SCORE.INTRA.REPUL>
0

>  <SCORE.INTRA.REPUL.0>
0

>  <SCORE.INTRA.SOLV>
-0.016857

>  <SCORE.INTRA.SOLV.lig_0>
-65.9238

>  <SCORE.INTRA.VDW>
-2.02333

>  <SCORE.INTRA.VDW.0>
-0.405582

>  <SCORE.INTRA.norm>
-0.0956441

>  <SCORE.RESTR>
0.0419863

>  <SCORE.RESTR.CAVITY>
0.0419863

>  <SCORE.RESTR.norm>
0.00161486

>  <SCORE.SYSTEM>
0

>  <SCORE.SYSTEM.CONST>
0

>  <SCORE.SYSTEM.DIHEDRAL>
0

>  <SCORE.SYSTEM.SOLV>
0

>  <SCORE.SYSTEM.norm>
0

>  <SCORE.heavy>
26

>  <SCORE.norm>
-0.489207

>  <RMSD>
9.049

$$$$
ligand
 OpenBabel11021811443D
libRbt.so/2013.1/901 2013/11/27
 26 28  0  0  0  0  0  0  0  0999 V2000
   27.1585   38.0912   64.9307 C   0  0  0  0  0  0  0  0  0  0  0  0
   24.0306   43.3160   67.0566 C   0  0  0  0  0  0  0  0  0  0  0  0
   19.3356   41.4238   65.6945 P   0  0  1  0  0  0  0  0  0  0  0  0
   17.2493   40.2377   64.7317 P   0  0  1  0  0  0  0  0  0  0  0  0
   26.5729   43.6670   65.9238 C   0  0  0  0  0  0  0  0  0  0  0  0
   26.2308   41.6200   64.5079 C   0  0  0  0  0  0  0  0  0  0  0  0
   26.7285   42.1910   65.6623 C   0  0  0  0  0  0  0  0  0  0  0  0
   27.3801   41.3663   66.5810 C   0  0  0  0  0  0  0  0  0  0  0  0
   27.8974   41.8909   67.7560 N   0  0  0  0  0  0  0  0  0  0  0  0
   27.4924   40.0681   66.3156 N   0  0  0  0  0  0  0  0  0  0  0  0
   27.0066   39.5658   65.1990 C   0  0  0  0  0  0  0  0  0  0  0  0
   26.3857   40.3175   64.3111 N   0  0  0  0  0  0  0  0  0  0  0  0
   19.9494   40.9389   66.9514 O   0  0  0  0  0  0  0  0  0  0  0  0
   18.4523   39.3639   64.3107 O   0  0  0  0  0  0  0  0  0  0  0  0
   23.9345   45.1710   63.6082 S   0  0  0  0  0  0  0  0  0  0  0  0
   25.5661   44.7693   64.0483 C   0  0  0  0  0  0  0  0  0  0  0  0
   19.8379   40.5151   64.4658 O   0  0  0  0  0  0  0  0  0  0  0  0
   16.1093   39.3067   65.3830 O   0  5  0  0  0  0  0  0  0  0  0  0
   25.4003   44.1698   65.2046 N   0  0  0  0  0  0  0  0  0  0  0  0
   17.7320   41.3312   65.8105 O   0  0  0  0  0  0  0  0  0  0  0  0
   16.6779   40.9573   63.4894 O   0  0  0  0  0  0  0  0  0  0  0  0
   24.2048   44.0080   65.7282 C   0  0  2  0  0  0  0  0  0  0  0  0
   23.1308   44.4852   65.0490 C   0  0  2  0  0  0  0  0  0  0  0  0
   21.6685   44.4444   65.4079 C   0  0  0  0  0  0  0  0  0  0  0  0
   21.1944   42.9903   65.4610 C   0  0  0  0  0  0  0  0  0  0  0  0
   19.7659   42.9548   65.4417 O   0  0  0  0  0  0  0  0  0  0  0  0
  1 11  1  0  0  0  0
  3 13  1  1  0  0  0
  3 17  1  0  0  0  0
  3 20  1  0  0  0  0
  3 26  1  0  0  0  0
  4 14  1  0  0  0  0
  4 18  1  1  0  0  0
  4 21  2  0  0  0  0
  4 20  1  0  0  0  0
  5 19  1  0  0  0  0
  5  7  1  0  0  0  0
  6  7  2  0  0  0  0
  6 12  1  0  0  0  0
  7  8  1  0  0  0  0
  8  9  1  0  0  0  0
  8 10  2  0  0  0  0
 10 11  1  0  0  0  0
 11 12  2  0  0  0  0
 14 17  1  0  0  0  0
 15 23  1  0  0  0  0
 15 16  1  0  0  0  0
 16 19  1  0  0  0  0
 19 22  1  0  0  0  0
 22  2  1  1  0  0  0
 22 23  1  0  0  0  0
 23 24  1  6  0  0  0
 24 25  1  0  0  0  0
 25 26  1  0  0  0  0
M  CHG  1  18  -1
M  END
>  <CHROM.1>
-98.28149883,25.83260348,116.03694462,-164.55097683,-172.70991479,55.27207314
22.39420791,41.88056803,65.26016825,-0.15551975,0.08076916,3.02933244

>  <Name>
ligand

>  <RI>
0

>  <Rbt.Current_Directory>
/home/itssahil/PROJECTS/Mol_Feturizer/New_Systems/rnas/2HOL

>  <Rbt.Executable>
rbdock ($Id: //depot/dev/client3/rdock/2013.1/src/exe/rbdock.cxx#4 $)

>  <Rbt.Library>
libRbt.so (2013.1, Build901 2013/11/27)

>  <Rbt.Parameter_File>
/export/apps/rDock/src/rDock_2013.1_src/data/scripts/dock_solv.prm

>  <Rbt.Receptor>
prm/pocket_docking_7.prm

>  <SCORE>
-15.5974

>  <SCORE.INTER>
-12.8441

>  <SCORE.INTER.CONST>
1

>  <SCORE.INTER.POLAR>
0

>  <SCORE.INTER.ROT>
6

>  <SCORE.INTER.SOLV>
27.6381

>  <SCORE.INTER.VDW>
-25.3754

>  <SCORE.INTER.norm>
-0.494005

>  <SCORE.INTRA>
-2.75323

>  <SCORE.INTRA.DIHEDRAL>
-3.62704

>  <SCORE.INTRA.DIHEDRAL.0>
9.33621

>  <SCORE.INTRA.POLAR>
0

>  <SCORE.INTRA.POLAR.0>
0

>  <SCORE.INTRA.REPUL>
0

>  <SCORE.INTRA.REPUL.0>
0

>  <SCORE.INTRA.SOLV>
-0.0667659

>  <SCORE.INTRA.SOLV.lig_0>
-65.9238

>  <SCORE.INTRA.VDW>
-0.906327

>  <SCORE.INTRA.VDW.0>
-0.405582

>  <SCORE.INTRA.norm>
-0.105893

>  <SCORE.RESTR>
0

>  <SCORE.RESTR.CAVITY>
0

>  <SCORE.RESTR.norm>
0

>  <SCORE.SYSTEM>
0

>  <SCORE.SYSTEM.CONST>
0

>  <SCORE.SYSTEM.DIHEDRAL>
0

>  <SCORE.SYSTEM.SOLV>
0

>  <SCORE.SYSTEM.norm>
0

>  <SCORE.heavy>
26

>  <SCORE.norm>
-0.599899

>  <RMSD>
9.052

$$$$
ligand
 OpenBabel11021811443D
libRbt.so/2013.1/901 2013/11/27
 26 28  0  0  0  0  0  0  0  0999 V2000
   30.1520   44.3422   65.5774 C   0  0  0  0  0  0  0  0  0  0  0  0
   22.8874   41.6261   65.4055 C   0  0  0  0  0  0  0  0  0  0  0  0
   19.5852   40.3345   66.1478 P   0  0  1  0  0  0  0  0  0  0  0  0
   17.4981   39.8861   64.6885 P   0  0  1  0  0  0  0  0  0  0  0  0
   25.1408   42.0563   67.0200 C   0  0  0  0  0  0  0  0  0  0  0  0
   27.5832   42.4800   67.4283 C   0  0  0  0  0  0  0  0  0  0  0  0
   26.4666   42.6620   66.6370 C   0  0  0  0  0  0  0  0  0  0  0  0
   26.5968   43.4211   65.4727 C   0  0  0  0  0  0  0  0  0  0  0  0
   25.5052   43.6338   64.6442 N   0  0  0  0  0  0  0  0  0  0  0  0
   27.7826   43.9427   65.1725 N   0  0  0  0  0  0  0  0  0  0  0  0
   28.8235   43.7399   65.9539 C   0  0  0  0  0  0  0  0  0  0  0  0
   28.7336   43.0281   67.0603 N   0  0  0  0  0  0  0  0  0  0  0  0
   19.9486   39.3923   67.2303 O   0  0  0  0  0  0  0  0  0  0  0  0
   18.6083   38.9793   64.1113 O   0  0  0  0  0  0  0  0  0  0  0  0
   22.7976   45.0602   67.2873 S   0  0  0  0  0  0  0  0  0  0  0  0
   24.2466   44.1827   67.6719 C   0  0  0  0  0  0  0  0  0  0  0  0
   20.1117   39.7633   64.7391 O   0  0  0  0  0  0  0  0  0  0  0  0
   16.1590   39.0218   64.9126 O   0  5  0  0  0  0  0  0  0  0  0  0
   24.0998   43.0850   66.9665 N   0  0  0  0  0  0  0  0  0  0  0  0
   17.9840   40.4995   66.0958 O   0  0  0  0  0  0  0  0  0  0  0  0
   17.2082   41.0363   63.6982 O   0  0  0  0  0  0  0  0  0  0  0  0
   23.0408   42.8916   66.2110 C   0  0  2  0  0  0  0  0  0  0  0  0
   22.0845   43.8545   66.1784 C   0  0  2  0  0  0  0  0  0  0  0  0
   20.7858   43.8965   65.4165 C   0  0  0  0  0  0  0  0  0  0  0  0
   20.2789   42.4706   65.1890 C   0  0  0  0  0  0  0  0  0  0  0  0
   20.2615   41.7678   66.4331 O   0  0  0  0  0  0  0  0  0  0  0  0
  1 11  1  0  0  0  0
  3 13  1  1  0  0  0
  3 17  1  0  0  0  0
  3 20  1  0  0  0  0
  3 26  1  0  0  0  0
  4 14  1  0  0  0  0
  4 18  1  1  0  0  0
  4 21  2  0  0  0  0
  4 20  1  0  0  0  0
  5 19  1  0  0  0  0
  5  7  1  0  0  0  0
  6  7  2  0  0  0  0
  6 12  1  0  0  0  0
  7  8  1  0  0  0  0
  8  9  1  0  0  0  0
  8 10  2  0  0  0  0
 10 11  1  0  0  0  0
 11 12  2  0  0  0  0
 14 17  1  0  0  0  0
 15 23  1  0  0  0  0
 15 16  1  0  0  0  0
 16 19  1  0  0  0  0
 19 22  1  0  0  0  0
 22  2  1  1  0  0  0
 22 23  1  0  0  0  0
 23 24  1  6  0  0  0
 24 25  1  0  0  0  0
 25 26  1  0  0  0  0
M  CHG  1  18  -1
M  END
>  <CHROM.1>
-55.94840153,129.73184029,-151.91478700,51.34620059,174.51860603,160.41167759
22.29364948,42.04441138,65.87733870,-0.38961684,-0.00207305,-2.81843549

>  <Name>
ligand

>  <RI>
0

>  <Rbt.Current_Directory>
/home/itssahil/PROJECTS/Mol_Feturizer/New_Systems/rnas/2HOL

>  <Rbt.Executable>
rbdock ($Id: //depot/dev/client3/rdock/2013.1/src/exe/rbdock.cxx#4 $)

>  <Rbt.Library>
libRbt.so (2013.1, Build901 2013/11/27)

>  <Rbt.Parameter_File>
/export/apps/rDock/src/rDock_2013.1_src/data/scripts/dock_solv.prm

>  <Rbt.Receptor>
prm/pocket_docking_8.prm

>  <SCORE>
-9.66986

>  <SCORE.INTER>
-14.71

>  <SCORE.INTER.CONST>
1

>  <SCORE.INTER.POLAR>
0

>  <SCORE.INTER.ROT>
6

>  <SCORE.INTER.SOLV>
23.9592

>  <SCORE.INTER.VDW>
-25.3931

>  <SCORE.INTER.norm>
-0.565769

>  <SCORE.INTRA>
5.04013

>  <SCORE.INTRA.DIHEDRAL>
-3.45122

>  <SCORE.INTRA.DIHEDRAL.0>
9.33621

>  <SCORE.INTRA.POLAR>
0

>  <SCORE.INTRA.POLAR.0>
0

>  <SCORE.INTRA.REPUL>
0

>  <SCORE.INTRA.REPUL.0>
0

>  <SCORE.INTRA.SOLV>
4.78198

>  <SCORE.INTRA.SOLV.lig_0>
-65.9238

>  <SCORE.INTRA.VDW>
4.37475

>  <SCORE.INTRA.VDW.0>
-0.405582

>  <SCORE.INTRA.norm>
0.193851

>  <SCORE.RESTR>
0

>  <SCORE.RESTR.CAVITY>
0

>  <SCORE.RESTR.norm>
0

>  <SCORE.SYSTEM>
0

>  <SCORE.SYSTEM.CONST>
0

>  <SCORE.SYSTEM.DIHEDRAL>
0

>  <SCORE.SYSTEM.SOLV>
0

>  <SCORE.SYSTEM.norm>
0

>  <SCORE.heavy>
26

>  <SCORE.norm>
-0.371918

>  <RMSD>
9.052

$$$$
ligand
 OpenBabel11021811443D
libRbt.so/2013.1/901 2013/11/27
 26 28  0  0  0  0  0  0  0  0999 V2000
   28.0452   42.8805   61.2374 C   0  0  0  0  0  0  0  0  0  0  0  0
   24.3434   42.5201   67.2473 C   0  0  0  0  0  0  0  0  0  0  0  0
   18.6953   42.0047   65.1755 P   0  0  1  0  0  0  0  0  0  0  0  0
   17.2775   39.9840   64.4056 P   0  0  1  0  0  0  0  0  0  0  0  0
   25.9416   40.5799   66.0019 C   0  0  0  0  0  0  0  0  0  0  0  0
   25.9738   40.8671   63.5062 C   0  0  0  0  0  0  0  0  0  0  0  0
   26.4994   41.1895   64.7416 C   0  0  0  0  0  0  0  0  0  0  0  0
   27.5606   42.0950   64.7936 C   0  0  0  0  0  0  0  0  0  0  0  0
   28.1241   42.4513   66.0097 N   0  0  0  0  0  0  0  0  0  0  0  0
   28.0275   42.6069   63.6586 N   0  0  0  0  0  0  0  0  0  0  0  0
   27.4929   42.2751   62.5014 C   0  0  0  0  0  0  0  0  0  0  0  0
   26.4901   41.4227   62.4181 N   0  0  0  0  0  0  0  0  0  0  0  0
   18.0303   43.2553   65.6061 O   0  0  0  0  0  0  0  0  0  0  0  0
   17.2497   39.9436   65.9501 O   0  0  0  0  0  0  0  0  0  0  0  0
   22.2598   39.7862   65.3694 S   0  0  0  0  0  0  0  0  0  0  0  0
   23.9626   39.4790   65.2158 C   0  0  0  0  0  0  0  0  0  0  0  0
   18.6883   40.9475   66.3880 O   0  0  0  0  0  0  0  0  0  0  0  0
   15.7791   39.8393   63.8360 O   0  5  0  0  0  0  0  0  0  0  0  0
   24.4849   40.4764   65.8914 N   0  0  0  0  0  0  0  0  0  0  0  0
   17.9058   41.3836   63.9168 O   0  0  0  0  0  0  0  0  0  0  0  0
   18.1434   38.8184   63.8772 O   0  0  0  0  0  0  0  0  0  0  0  0
   23.7285   41.3812   66.4736 C   0  0  2  0  0  0  0  0  0  0  0  0
   22.3807   41.2709   66.3558 C   0  0  2  0  0  0  0  0  0  0  0  0
   21.2906   42.1524   66.9065 C   0  0  0  0  0  0  0  0  0  0  0  0
   20.7881   43.0925   65.8085 C   0  0  0  0  0  0  0  0  0  0  0  0
   20.2152   42.3233   64.7492 O   0  0  0  0  0  0  0  0  0  0  0  0
  1 11  1  0  0  0  0
  3 13  1  1  0  0  0
  3 17  1  0  0  0  0
  3 20  1  0  0  0  0
  3 26  1  0  0  0  0
  4 14  1  0  0  0  0
  4 18  1  6  0  0  0
  4 21  2  0  0  0  0
  4 20  1  0  0  0  0
  5 19  1  0  0  0  0
  5  7  1  0  0  0  0
  6  7  2  0  0  0  0
  6 12  1  0  0  0  0
  7  8  1  0  0  0  0
  8  9  1  0  0  0  0
  8 10  2  0  0  0  0
 10 11  1  0  0  0  0
 11 12  2  0  0  0  0
 14 17  1  0  0  0  0
 15 23  1  0  0  0  0
 15 16  1  0  0  0  0
 16 19  1  0  0  0  0
 19 22  1  0  0  0  0
 22  2  1  6  0  0  0
 22 23  1  0  0  0  0
 23 24  1  1  0  0  0
 24 25  1  0  0  0  0
 25 26  1  0  0  0  0
M  CHG  1  18  -1
M  END
>  <CHROM.1>
80.29462673,-38.45383536,-80.31950250,62.71365319,83.79076370,49.46420953
22.04230242,41.24816898,64.93332364,0.04878804,-0.13345172,-1.81107864

>  <Name>
ligand

>  <RI>
0

>  <Rbt.Current_Directory>
/home/itssahil/PROJECTS/Mol_Feturizer/New_Systems/rnas/2HOL

>  <Rbt.Executable>
rbdock ($Id: //depot/dev/client3/rdock/2013.1/src/exe/rbdock.cxx#4 $)

>  <Rbt.Library>
libRbt.so (2013.1, Build901 2013/11/27)

>  <Rbt.Parameter_File>
/export/apps/rDock/src/rDock_2013.1_src/data/scripts/dock_solv.prm

>  <Rbt.Receptor>
prm/pocket_docking_7.prm

>  <SCORE>
-18.0766

>  <SCORE.INTER>
-16.2638

>  <SCORE.INTER.CONST>
1

>  <SCORE.INTER.POLAR>
0

>  <SCORE.INTER.ROT>
6

>  <SCORE.INTER.SOLV>
27.4571

>  <SCORE.INTER.VDW>
-27.5949

>  <SCORE.INTER.norm>
-0.625532

>  <SCORE.INTRA>
-1.81273

>  <SCORE.INTRA.DIHEDRAL>
-1.65674

>  <SCORE.INTRA.DIHEDRAL.0>
9.33621

>  <SCORE.INTRA.POLAR>
0

>  <SCORE.INTRA.POLAR.0>
0

>  <SCORE.INTRA.REPUL>
0

>  <SCORE.INTRA.REPUL.0>
0

>  <SCORE.INTRA.SOLV>
0.645105

>  <SCORE.INTRA.SOLV.lig_0>
-65.9238

>  <SCORE.INTRA.VDW>
-1.30691

>  <SCORE.INTRA.VDW.0>
-0.405582

>  <SCORE.INTRA.norm>
-0.0697203

>  <SCORE.RESTR>
0

>  <SCORE.RESTR.CAVITY>
0

>  <SCORE.RESTR.norm>
0

>  <SCORE.SYSTEM>
0

>  <SCORE.SYSTEM.CONST>
0

>  <SCORE.SYSTEM.DIHEDRAL>
0

>  <SCORE.SYSTEM.SOLV>
0

>  <SCORE.SYSTEM.norm>
0

>  <SCORE.heavy>
26

>  <SCORE.norm>
-0.695252

>  <RMSD>
9.076

$$$$
ligand
 OpenBabel11021811443D
libRbt.so/2013.1/901 2013/11/27
 26 28  0  0  0  0  0  0  0  0999 V2000
   29.2825   39.4310   69.8490 C   0  0  0  0  0  0  0  0  0  0  0  0
   23.8376   41.5580   64.9313 C   0  0  0  0  0  0  0  0  0  0  0  0
   19.3348   40.4634   65.4510 P   0  0  1  0  0  0  0  0  0  0  0  0
   17.0288   39.6015   64.6599 P   0  0  1  0  0  0  0  0  0  0  0  0
   24.7989   39.3312   66.3410 C   0  0  0  0  0  0  0  0  0  0  0  0
   25.8243   39.2079   68.6312 C   0  0  0  0  0  0  0  0  0  0  0  0
   25.9866   39.3579   67.2683 C   0  0  0  0  0  0  0  0  0  0  0  0
   27.2789   39.5345   66.7710 C   0  0  0  0  0  0  0  0  0  0  0  0
   27.4953   39.6902   65.4100 N   0  0  0  0  0  0  0  0  0  0  0  0
   28.2999   39.5572   67.6227 N   0  0  0  0  0  0  0  0  0  0  0  0
   28.1001   39.4054   68.9158 C   0  0  0  0  0  0  0  0  0  0  0  0
   26.8922   39.2370   69.4173 N   0  0  0  0  0  0  0  0  0  0  0  0
   19.8063   40.1657   66.8224 O   0  0  0  0  0  0  0  0  0  0  0  0
   17.9870   38.3961   64.5303 O   0  0  0  0  0  0  0  0  0  0  0  0
   21.9847   40.9742   68.3325 S   0  0  0  0  0  0  0  0  0  0  0  0
   23.2110   39.7696   68.0823 C   0  0  0  0  0  0  0  0  0  0  0  0
   19.6091   39.1944   64.5012 O   0  0  0  0  0  0  0  0  0  0  0  0
   15.6940   39.1474   65.4361 O   0  5  0  0  0  0  0  0  0  0  0  0
   23.7093   40.1206   66.9194 N   0  0  0  0  0  0  0  0  0  0  0  0
   17.7558   40.7786   65.4837 O   0  0  0  0  0  0  0  0  0  0  0  0
   16.6552   40.1140   63.2508 O   0  0  0  0  0  0  0  0  0  0  0  0
   23.2538   41.1669   66.2655 C   0  0  2  0  0  0  0  0  0  0  0  0
   22.2403   41.8829   66.8156 C   0  0  2  0  0  0  0  0  0  0  0  0
   21.5313   43.1053   66.2944 C   0  0  0  0  0  0  0  0  0  0  0  0
   20.0978   42.7386   65.9037 C   0  0  0  0  0  0  0  0  0  0  0  0
   20.1241   41.7445   64.8774 O   0  0  0  0  0  0  0  0  0  0  0  0
  1 11  1  0  0  0  0
  3 13  1  1  0  0  0
  3 17  1  0  0  0  0
  3 20  1  0  0  0  0
  3 26  1  0  0  0  0
  4 14  1  0  0  0  0
  4 18  1  1  0  0  0
  4 21  2  0  0  0  0
  4 20  1  0  0  0  0
  5 19  1  0  0  0  0
  5  7  1  0  0  0  0
  6  7  2  0  0  0  0
  6 12  1  0  0  0  0
  7  8  1  0  0  0  0
  8  9  1  0  0  0  0
  8 10  2  0  0  0  0
 10 11  1  0  0  0  0
 11 12  2  0  0  0  0
 14 17  1  0  0  0  0
 15 23  1  0  0  0  0
 15 16  1  0  0  0  0
 16 19  1  0  0  0  0
 19 22  1  0  0  0  0
 22  2  1  6  0  0  0
 22 23  1  0  0  0  0
 23 24  1  1  0  0  0
 24 25  1  0  0  0  0
 25 26  1  0  0  0  0
M  CHG  1  18  -1
M  END
>  <CHROM.1>
-60.58287861,43.19773867,-69.55529896,-60.60374565,120.83111839,-46.97091430
22.01165315,40.23364364,66.37389707,-0.10615028,0.30695810,-2.67761602

>  <Name>
ligand

>  <RI>
0

>  <Rbt.Current_Directory>
/home/itssahil/PROJECTS/Mol_Feturizer/New_Systems/rnas/2HOL

>  <Rbt.Executable>
rbdock ($Id: //depot/dev/client3/rdock/2013.1/src/exe/rbdock.cxx#4 $)

>  <Rbt.Library>
libRbt.so (2013.1, Build901 2013/11/27)

>  <Rbt.Parameter_File>
/export/apps/rDock/src/rDock_2013.1_src/data/scripts/dock_solv.prm

>  <Rbt.Receptor>
prm/pocket_docking_2.prm

>  <SCORE>
-9.0406

>  <SCORE.INTER>
-11.0801

>  <SCORE.INTER.CONST>
1

>  <SCORE.INTER.POLAR>
0

>  <SCORE.INTER.ROT>
6

>  <SCORE.INTER.SOLV>
28.6986

>  <SCORE.INTER.VDW>
-24.5529

>  <SCORE.INTER.norm>
-0.426156

>  <SCORE.INTRA>
1.24587

>  <SCORE.INTRA.DIHEDRAL>
3.25655

>  <SCORE.INTRA.DIHEDRAL.0>
9.33621

>  <SCORE.INTRA.POLAR>
0

>  <SCORE.INTRA.POLAR.0>
0

>  <SCORE.INTRA.REPUL>
0

>  <SCORE.INTRA.REPUL.0>
0

>  <SCORE.INTRA.SOLV>
1.40956

>  <SCORE.INTRA.SOLV.lig_0>
-65.9238

>  <SCORE.INTRA.VDW>
-1.08719

>  <SCORE.INTRA.VDW.0>
-0.405582

>  <SCORE.INTRA.norm>
0.047918

>  <SCORE.RESTR>
0.793582

>  <SCORE.RESTR.CAVITY>
0.793582

>  <SCORE.RESTR.norm>
0.0305224

>  <SCORE.SYSTEM>
0

>  <SCORE.SYSTEM.CONST>
0

>  <SCORE.SYSTEM.DIHEDRAL>
0

>  <SCORE.SYSTEM.SOLV>
0

>  <SCORE.SYSTEM.norm>
0

>  <SCORE.heavy>
26

>  <SCORE.norm>
-0.347715

>  <RMSD>
9.079

$$$$
ligand
 OpenBabel11021811443D
libRbt.so/2013.1/901 2013/11/27
 26 28  0  0  0  0  0  0  0  0999 V2000
   28.4729   41.0193   71.8599 C   0  0  0  0  0  0  0  0  0  0  0  0
   24.4464   41.0544   64.5448 C   0  0  0  0  0  0  0  0  0  0  0  0
   19.6666   41.0803   65.5456 P   0  0  1  0  0  0  0  0  0  0  0  0
   17.4661   40.2828   64.4463 P   0  0  1  0  0  0  0  0  0  0  0  0
   26.3900   40.9054   66.5621 C   0  0  0  0  0  0  0  0  0  0  0  0
   26.3492   41.7068   68.9428 C   0  0  0  0  0  0  0  0  0  0  0  0
   26.9425   40.9346   67.9639 C   0  0  0  0  0  0  0  0  0  0  0  0
   28.0669   40.1813   68.3058 C   0  0  0  0  0  0  0  0  0  0  0  0
   28.6996   39.3898   67.3589 N   0  0  0  0  0  0  0  0  0  0  0  0
   28.5264   40.2383   69.5524 N   0  0  0  0  0  0  0  0  0  0  0  0
   27.9264   40.9851   70.4565 C   0  0  0  0  0  0  0  0  0  0  0  0
   26.8628   41.7084   70.1657 N   0  0  0  0  0  0  0  0  0  0  0  0
   19.7218   42.3951   66.2238 O   0  0  0  0  0  0  0  0  0  0  0  0
   17.3028   39.9927   65.9554 O   0  0  0  0  0  0  0  0  0  0  0  0
   24.1144   37.8451   66.7655 S   0  0  0  0  0  0  0  0  0  0  0  0
   25.4472   38.8262   67.2931 C   0  0  0  0  0  0  0  0  0  0  0  0
   19.0154   39.9922   66.5354 O   0  0  0  0  0  0  0  0  0  0  0  0
   16.1616   41.0524   63.9017 O   0  5  0  0  0  0  0  0  0  0  0  0
   25.4017   39.8305   66.4486 N   0  0  0  0  0  0  0  0  0  0  0  0
   18.7682   41.2012   64.2144 O   0  0  0  0  0  0  0  0  0  0  0  0
   17.6333   38.9500   63.6826 O   0  0  0  0  0  0  0  0  0  0  0  0
   24.4863   39.8936   65.5063 C   0  0  2  0  0  0  0  0  0  0  0  0
   23.5821   38.8854   65.4141 C   0  0  2  0  0  0  0  0  0  0  0  0
   22.4444   38.6979   64.4449 C   0  0  0  0  0  0  0  0  0  0  0  0
   21.1429   39.1915   65.0809 C   0  0  0  0  0  0  0  0  0  0  0  0
   21.1565   40.6189   65.1452 O   0  0  0  0  0  0  0  0  0  0  0  0
  1 11  1  0  0  0  0
  3 13  1  1  0  0  0
  3 17  1  0  0  0  0
  3 20  1  0  0  0  0
  3 26  1  0  0  0  0
  4 14  1  0  0  0  0
  4 18  1  6  0  0  0
  4 21  2  0  0  0  0
  4 20  1  0  0  0  0
  5 19  1  0  0  0  0
  5  7  1  0  0  0  0
  6  7  2  0  0  0  0
  6 12  1  0  0  0  0
  7  8  1  0  0  0  0
  8  9  1  0  0  0  0
  8 10  2  0  0  0  0
 10 11  1  0  0  0  0
 11 12  2  0  0  0  0
 14 17  1  0  0  0  0
 15 23  1  0  0  0  0
 15 16  1  0  0  0  0
 16 19  1  0  0  0  0
 19 22  1  0  0  0  0
 22  2  1  6  0  0  0
 22 23  1  0  0  0  0
 23 24  1  1  0  0  0
 24 25  1  0  0  0  0
 25 26  1  0  0  0  0
M  CHG  1  18  -1
M  END
>  <CHROM.1>
-22.69295169,-90.30558702,83.08874282,72.18011139,169.09762702,154.08779796
22.72696885,40.21030714,66.42181871,0.31744874,-0.27399124,0.88229282

>  <Name>
ligand

>  <RI>
0

>  <Rbt.Current_Directory>
/home/itssahil/PROJECTS/Mol_Feturizer/New_Systems/rnas/2HOL

>  <Rbt.Executable>
rbdock ($Id: //depot/dev/client3/rdock/2013.1/src/exe/rbdock.cxx#4 $)

>  <Rbt.Library>
libRbt.so (2013.1, Build901 2013/11/27)

>  <Rbt.Parameter_File>
/export/apps/rDock/src/rDock_2013.1_src/data/scripts/dock_solv.prm

>  <Rbt.Receptor>
prm/pocket_docking_5.prm

>  <SCORE>
-17.6892

>  <SCORE.INTER>
-16.3632

>  <SCORE.INTER.CONST>
1

>  <SCORE.INTER.POLAR>
0

>  <SCORE.INTER.ROT>
6

>  <SCORE.INTER.SOLV>
27.689

>  <SCORE.INTER.VDW>
-27.7385

>  <SCORE.INTER.norm>
-0.629355

>  <SCORE.INTRA>
-1.32599

>  <SCORE.INTRA.DIHEDRAL>
-2.31519

>  <SCORE.INTRA.DIHEDRAL.0>
9.33621

>  <SCORE.INTRA.POLAR>
0

>  <SCORE.INTRA.POLAR.0>
0

>  <SCORE.INTRA.REPUL>
0

>  <SCORE.INTRA.REPUL.0>
0

>  <SCORE.INTRA.SOLV>
1.17286

>  <SCORE.INTRA.SOLV.lig_0>
-65.9238

>  <SCORE.INTRA.VDW>
-0.754825

>  <SCORE.INTRA.VDW.0>
-0.405582

>  <SCORE.INTRA.norm>
-0.0509996

>  <SCORE.RESTR>
0

>  <SCORE.RESTR.CAVITY>
0

>  <SCORE.RESTR.norm>
0

>  <SCORE.SYSTEM>
0

>  <SCORE.SYSTEM.CONST>
0

>  <SCORE.SYSTEM.DIHEDRAL>
0

>  <SCORE.SYSTEM.SOLV>
0

>  <SCORE.SYSTEM.norm>
0

>  <SCORE.heavy>
26

>  <SCORE.norm>
-0.680355

>  <RMSD>
9.093

$$$$
ligand
 OpenBabel11021811443D
libRbt.so/2013.1/901 2013/11/27
 26 28  0  0  0  0  0  0  0  0999 V2000
   28.1310   36.7110   64.5172 C   0  0  0  0  0  0  0  0  0  0  0  0
   24.9803   43.0925   66.7475 C   0  0  0  0  0  0  0  0  0  0  0  0
   18.6319   42.0852   65.1727 P   0  0  1  0  0  0  0  0  0  0  0  0
   17.2638   40.0293   64.4055 P   0  0  1  0  0  0  0  0  0  0  0  0
   25.5040   40.5470   67.8038 C   0  0  0  0  0  0  0  0  0  0  0  0
   26.1263   39.6073   65.5585 C   0  0  0  0  0  0  0  0  0  0  0  0
   26.1998   39.5309   66.9351 C   0  0  0  0  0  0  0  0  0  0  0  0
   26.9354   38.4887   67.5019 C   0  0  0  0  0  0  0  0  0  0  0  0
   27.0396   38.3674   68.8796 N   0  0  0  0  0  0  0  0  0  0  0  0
   27.5304   37.6096   66.7010 N   0  0  0  0  0  0  0  0  0  0  0  0
   27.4381   37.7229   65.3919 C   0  0  0  0  0  0  0  0  0  0  0  0
   26.7510   38.6954   64.8253 N   0  0  0  0  0  0  0  0  0  0  0  0
   17.9368   43.3239   65.5897 O   0  0  0  0  0  0  0  0  0  0  0  0
   17.2248   39.9985   65.9500 O   0  0  0  0  0  0  0  0  0  0  0  0
   21.9018   40.6796   66.5422 S   0  0  0  0  0  0  0  0  0  0  0  0
   23.2608   39.8859   67.2774 C   0  0  0  0  0  0  0  0  0  0  0  0
   18.6381   41.0360   66.3921 O   0  0  0  0  0  0  0  0  0  0  0  0
   15.7734   39.8487   63.8255 O   0  5  0  0  0  0  0  0  0  0  0  0
   24.1746   40.8285   67.2576 N   0  0  0  0  0  0  0  0  0  0  0  0
   17.8657   41.4390   63.9121 O   0  0  0  0  0  0  0  0  0  0  0  0
   18.1586   38.8792   63.8916 O   0  0  0  0  0  0  0  0  0  0  0  0
   23.9206   42.0199   66.7617 C   0  0  2  0  0  0  0  0  0  0  0  0
   22.6841   42.2600   66.2557 C   0  0  2  0  0  0  0  0  0  0  0  0
   22.1258   43.5115   65.6305 C   0  0  0  0  0  0  0  0  0  0  0  0
   20.5966   43.4551   65.6487 C   0  0  0  0  0  0  0  0  0  0  0  0
   20.1478   42.4336   64.7558 O   0  0  0  0  0  0  0  0  0  0  0  0
  1 11  1  0  0  0  0
  3 13  1  1  0  0  0
  3 17  1  0  0  0  0
  3 20  1  0  0  0  0
  3 26  1  0  0  0  0
  4 14  1  0  0  0  0
  4 18  1  6  0  0  0
  4 21  2  0  0  0  0
  4 20  1  0  0  0  0
  5 19  1  0  0  0  0
  5  7  1  0  0  0  0
  6  7  2  0  0  0  0
  6 12  1  0  0  0  0
  7  8  1  0  0  0  0
  8  9  1  0  0  0  0
  8 10  2  0  0  0  0
 10 11  1  0  0  0  0
 11 12  2  0  0  0  0
 14 17  1  0  0  0  0
 15 23  1  0  0  0  0
 15 16  1  0  0  0  0
 16 19  1  0  0  0  0
 19 22  1  0  0  0  0
 22  2  1  6  0  0  0
 22 23  1  0  0  0  0
 23 24  1  1  0  0  0
 24 25  1  0  0  0  0
 25 26  1  0  0  0  0
M  CHG  1  18  -1
M  END
>  <CHROM.1>
67.34027104,41.94466742,18.76429246,-68.22942443,161.38990551,36.76445133
21.94754837,40.55521763,65.80662399,0.16606363,0.25615106,-2.81102607

>  <Name>
ligand

>  <RI>
0

>  <Rbt.Current_Directory>
/home/itssahil/PROJECTS/Mol_Feturizer/New_Systems/rnas/2HOL

>  <Rbt.Executable>
rbdock ($Id: //depot/dev/client3/rdock/2013.1/src/exe/rbdock.cxx#4 $)

>  <Rbt.Library>
libRbt.so (2013.1, Build901 2013/11/27)

>  <Rbt.Parameter_File>
/export/apps/rDock/src/rDock_2013.1_src/data/scripts/dock_solv.prm

>  <Rbt.Receptor>
prm/pocket_docking_3.prm

>  <SCORE>
-19.0801

>  <SCORE.INTER>
-17.2618

>  <SCORE.INTER.CONST>
1

>  <SCORE.INTER.POLAR>
0

>  <SCORE.INTER.ROT>
6

>  <SCORE.INTER.SOLV>
29.3972

>  <SCORE.INTER.VDW>
-28.9069

>  <SCORE.INTER.norm>
-0.663917

>  <SCORE.INTRA>
-2.37499

>  <SCORE.INTRA.DIHEDRAL>
-2.01408

>  <SCORE.INTRA.DIHEDRAL.0>
9.33621

>  <SCORE.INTRA.POLAR>
0

>  <SCORE.INTRA.POLAR.0>
0

>  <SCORE.INTRA.REPUL>
0

>  <SCORE.INTRA.REPUL.0>
0

>  <SCORE.INTRA.SOLV>
-0.483036

>  <SCORE.INTRA.SOLV.lig_0>
-65.9238

>  <SCORE.INTRA.VDW>
-1.12644

>  <SCORE.INTRA.VDW.0>
-0.405582

>  <SCORE.INTRA.norm>
-0.0913459

>  <SCORE.RESTR>
0.556702

>  <SCORE.RESTR.CAVITY>
0.556702

>  <SCORE.RESTR.norm>
0.0214116

>  <SCORE.SYSTEM>
0

>  <SCORE.SYSTEM.CONST>
0

>  <SCORE.SYSTEM.DIHEDRAL>
0

>  <SCORE.SYSTEM.SOLV>
0

>  <SCORE.SYSTEM.norm>
0

>  <SCORE.heavy>
26

>  <SCORE.norm>
-0.733851

>  <RMSD>
9.100

$$$$
ligand
 OpenBabel11021811443D
libRbt.so/2013.1/901 2013/11/27
 26 28  0  0  0  0  0  0  0  0999 V2000
   30.3716   44.0188   65.5748 C   0  0  0  0  0  0  0  0  0  0  0  0
   25.8436   38.0380   68.2758 C   0  0  0  0  0  0  0  0  0  0  0  0
   20.2989   40.5869   65.8024 P   0  0  1  0  0  0  0  0  0  0  0  0
   17.8660   40.2649   64.9877 P   0  0  1  0  0  0  0  0  0  0  0  0
   27.1780   40.4723   68.6799 C   0  0  0  0  0  0  0  0  0  0  0  0
   27.8922   42.7783   67.9843 C   0  0  0  0  0  0  0  0  0  0  0  0
   28.0239   41.4098   67.8573 C   0  0  0  0  0  0  0  0  0  0  0  0
   28.9610   40.9166   66.9477 C   0  0  0  0  0  0  0  0  0  0  0  0
   29.1313   39.5501   66.7825 N   0  0  0  0  0  0  0  0  0  0  0  0
   29.6844   41.7768   66.2371 N   0  0  0  0  0  0  0  0  0  0  0  0
   29.5295   43.0755   66.3936 C   0  0  0  0  0  0  0  0  0  0  0  0
   28.6531   43.5733   67.2439 N   0  0  0  0  0  0  0  0  0  0  0  0
   21.3071   41.1929   64.9035 O   0  0  0  0  0  0  0  0  0  0  0  0
   17.9699   41.7502   65.4015 O   0  0  0  0  0  0  0  0  0  0  0  0
   23.6517   41.1594   67.3845 S   0  0  0  0  0  0  0  0  0  0  0  0
   25.2255   41.6465   67.9351 C   0  0  0  0  0  0  0  0  0  0  0  0
   19.4187   41.7485   66.4832 O   0  0  0  0  0  0  0  0  0  0  0  0
   17.1951   40.1580   63.5286 O   0  5  0  0  0  0  0  0  0  0  0  0
   25.8008   40.4925   68.1821 N   0  0  0  0  0  0  0  0  0  0  0  0
   19.3382   39.6138   64.9516 O   0  0  0  0  0  0  0  0  0  0  0  0
   16.9925   39.5066   66.0122 O   0  0  0  0  0  0  0  0  0  0  0  0
   25.1687   39.3555   67.9887 C   0  0  2  0  0  0  0  0  0  0  0  0
   23.8912   39.3950   67.5316 C   0  0  2  0  0  0  0  0  0  0  0  0
   22.9414   38.2658   67.2288 C   0  0  0  0  0  0  0  0  0  0  0  0
   21.8452   38.7585   66.2812 C   0  0  0  0  0  0  0  0  0  0  0  0
   21.0433   39.7350   66.9484 O   0  0  0  0  0  0  0  0  0  0  0  0
  1 11  1  0  0  0  0
  3 13  1  6  0  0  0
  3 17  1  0  0  0  0
  3 20  1  0  0  0  0
  3 26  1  0  0  0  0
  4 14  1  0  0  0  0
  4 18  1  6  0  0  0
  4 21  2  0  0  0  0
  4 20  1  0  0  0  0
  5 19  1  0  0  0  0
  5  7  1  0  0  0  0
  6  7  2  0  0  0  0
  6 12  1  0  0  0  0
  7  8  1  0  0  0  0
  8  9  1  0  0  0  0
  8 10  2  0  0  0  0
 10 11  1  0  0  0  0
 11 12  2  0  0  0  0
 14 17  1  0  0  0  0
 15 23  1  0  0  0  0
 15 16  1  0  0  0  0
 16 19  1  0  0  0  0
 19 22  1  0  0  0  0
 22  2  1  1  0  0  0
 22 23  1  0  0  0  0
 23 24  1  6  0  0  0
 24 25  1  0  0  0  0
 25 26  1  0  0  0  0
M  CHG  1  18  -1
M  END
>  <CHROM.1>
-46.49017307,72.50557260,20.46782496,-65.83807822,159.55136388,-57.69799416
23.38288884,40.71053918,66.53367121,0.03629591,-0.22525087,-0.49887212

>  <Name>
ligand

>  <RI>
0

>  <Rbt.Current_Directory>
/home/itssahil/PROJECTS/Mol_Feturizer/New_Systems/rnas/2HOL

>  <Rbt.Executable>
rbdock ($Id: //depot/dev/client3/rdock/2013.1/src/exe/rbdock.cxx#4 $)

>  <Rbt.Library>
libRbt.so (2013.1, Build901 2013/11/27)

>  <Rbt.Parameter_File>
/export/apps/rDock/src/rDock_2013.1_src/data/scripts/dock_solv.prm

>  <Rbt.Receptor>
prm/pocket_docking_5.prm

>  <SCORE>
-12.6757

>  <SCORE.INTER>
-10.6647

>  <SCORE.INTER.CONST>
1

>  <SCORE.INTER.POLAR>
0

>  <SCORE.INTER.ROT>
6

>  <SCORE.INTER.SOLV>
23.601

>  <SCORE.INTER.VDW>
-22.5768

>  <SCORE.INTER.norm>
-0.410181

>  <SCORE.INTRA>
-2.01103

>  <SCORE.INTRA.DIHEDRAL>
-2.59492

>  <SCORE.INTRA.DIHEDRAL.0>
9.33621

>  <SCORE.INTRA.POLAR>
0

>  <SCORE.INTRA.POLAR.0>
0

>  <SCORE.INTRA.REPUL>
0

>  <SCORE.INTRA.REPUL.0>
0

>  <SCORE.INTRA.SOLV>
1.0597

>  <SCORE.INTRA.SOLV.lig_0>
-65.9238

>  <SCORE.INTRA.VDW>
-1.24342

>  <SCORE.INTRA.VDW.0>
-0.405582

>  <SCORE.INTRA.norm>
-0.0773473

>  <SCORE.RESTR>
0

>  <SCORE.RESTR.CAVITY>
0

>  <SCORE.RESTR.norm>
0

>  <SCORE.SYSTEM>
0

>  <SCORE.SYSTEM.CONST>
0

>  <SCORE.SYSTEM.DIHEDRAL>
0

>  <SCORE.SYSTEM.SOLV>
0

>  <SCORE.SYSTEM.norm>
0

>  <SCORE.heavy>
26

>  <SCORE.norm>
-0.487528

>  <RMSD>
9.117

$$$$
ligand
 OpenBabel11021811443D
libRbt.so/2013.1/901 2013/11/27
 26 28  0  0  0  0  0  0  0  0999 V2000
   31.1801   38.7984   67.0923 C   0  0  0  0  0  0  0  0  0  0  0  0
   24.6757   41.1306   66.9934 C   0  0  0  0  0  0  0  0  0  0  0  0
   19.9032   40.1969   65.7889 P   0  0  1  0  0  0  0  0  0  0  0  0
   17.4996   40.1596   64.8360 P   0  0  1  0  0  0  0  0  0  0  0  0
   26.0966   40.0269   64.8411 C   0  0  0  0  0  0  0  0  0  0  0  0
   27.9670   38.4290   65.3511 C   0  0  0  0  0  0  0  0  0  0  0  0
   27.4423   39.7031   65.4375 C   0  0  0  0  0  0  0  0  0  0  0  0
   28.1900   40.6841   66.0911 C   0  0  0  0  0  0  0  0  0  0  0  0
   27.7071   41.9792   66.2053 N   0  0  0  0  0  0  0  0  0  0  0  0
   29.3706   40.3569   66.6083 N   0  0  0  0  0  0  0  0  0  0  0  0
   29.8357   39.1294   66.4987 C   0  0  0  0  0  0  0  0  0  0  0  0
   29.1541   38.1801   65.8878 N   0  0  0  0  0  0  0  0  0  0  0  0
   21.0306   40.6402   64.9380 O   0  0  0  0  0  0  0  0  0  0  0  0
   17.7699   41.6325   65.2176 O   0  0  0  0  0  0  0  0  0  0  0  0
   23.5632   37.4759   66.1290 S   0  0  0  0  0  0  0  0  0  0  0  0
   24.8309   38.0036   65.0653 C   0  0  0  0  0  0  0  0  0  0  0  0
   19.1423   41.4826   66.3853 O   0  0  0  0  0  0  0  0  0  0  0  0
   16.9050   40.0909   63.3420 O   0  5  0  0  0  0  0  0  0  0  0  0
   25.0646   39.2213   65.4973 N   0  0  0  0  0  0  0  0  0  0  0  0
   18.8755   39.3262   64.9061 O   0  0  0  0  0  0  0  0  0  0  0  0
   16.4788   39.5524   65.8243 O   0  0  0  0  0  0  0  0  0  0  0  0
   24.3948   39.7309   66.5080 C   0  0  2  0  0  0  0  0  0  0  0  0
   23.4388   38.9705   67.0999 C   0  0  2  0  0  0  0  0  0  0  0  0
   22.5293   39.2948   68.2559 C   0  0  0  0  0  0  0  0  0  0  0  0
   21.3452   40.1270   67.7584 C   0  0  0  0  0  0  0  0  0  0  0  0
   20.4652   39.2956   66.9993 O   0  0  0  0  0  0  0  0  0  0  0  0
  1 11  1  0  0  0  0
  3 13  1  6  0  0  0
  3 17  1  0  0  0  0
  3 20  1  0  0  0  0
  3 26  1  0  0  0  0
  4 14  1  0  0  0  0
  4 18  1  6  0  0  0
  4 21  2  0  0  0  0
  4 20  1  0  0  0  0
  5 19  1  0  0  0  0
  5  7  1  0  0  0  0
  6  7  2  0  0  0  0
  6 12  1  0  0  0  0
  7  8  1  0  0  0  0
  8  9  1  0  0  0  0
  8 10  2  0  0  0  0
 10 11  1  0  0  0  0
 11 12  2  0  0  0  0
 14 17  1  0  0  0  0
 15 23  1  0  0  0  0
 15 16  1  0  0  0  0
 16 19  1  0  0  0  0
 19 22  1  0  0  0  0
 22  2  1  6  0  0  0
 22 23  1  0  0  0  0
 23 24  1  1  0  0  0
 24 25  1  0  0  0  0
 25 26  1  0  0  0  0
M  CHG  1  18  -1
M  END
>  <CHROM.1>
-84.90496600,61.75913798,-99.37843352,72.13802248,-143.16737639,61.23936477
22.99999975,39.72676858,65.91909261,0.06751405,0.09625861,-3.05769190

>  <Name>
ligand

>  <RI>
0

>  <Rbt.Current_Directory>
/home/itssahil/PROJECTS/Mol_Feturizer/New_Systems/rnas/2HOL

>  <Rbt.Executable>
rbdock ($Id: //depot/dev/client3/rdock/2013.1/src/exe/rbdock.cxx#4 $)

>  <Rbt.Library>
libRbt.so (2013.1, Build901 2013/11/27)

>  <Rbt.Parameter_File>
/export/apps/rDock/src/rDock_2013.1_src/data/scripts/dock_solv.prm

>  <Rbt.Receptor>
prm/pocket_docking_6.prm

>  <SCORE>
-17.6696

>  <SCORE.INTER>
-16.3564

>  <SCORE.INTER.CONST>
1

>  <SCORE.INTER.POLAR>
0

>  <SCORE.INTER.ROT>
6

>  <SCORE.INTER.SOLV>
27.2176

>  <SCORE.INTER.VDW>
-27.5768

>  <SCORE.INTER.norm>
-0.629092

>  <SCORE.INTRA>
-1.31325

>  <SCORE.INTRA.DIHEDRAL>
0.789213

>  <SCORE.INTRA.DIHEDRAL.0>
9.33621

>  <SCORE.INTRA.POLAR>
0

>  <SCORE.INTRA.POLAR.0>
0

>  <SCORE.INTRA.REPUL>
0

>  <SCORE.INTRA.REPUL.0>
0

>  <SCORE.INTRA.SOLV>
1.43823

>  <SCORE.INTRA.SOLV.lig_0>
-65.9238

>  <SCORE.INTRA.VDW>
-2.42697

>  <SCORE.INTRA.VDW.0>
-0.405582

>  <SCORE.INTRA.norm>
-0.0505095

>  <SCORE.RESTR>
0

>  <SCORE.RESTR.CAVITY>
0

>  <SCORE.RESTR.norm>
0

>  <SCORE.SYSTEM>
0

>  <SCORE.SYSTEM.CONST>
0

>  <SCORE.SYSTEM.DIHEDRAL>
0

>  <SCORE.SYSTEM.SOLV>
0

>  <SCORE.SYSTEM.norm>
0

>  <SCORE.heavy>
26

>  <SCORE.norm>
-0.679601

>  <RMSD>
9.121

$$$$
ligand
 OpenBabel11021811443D
libRbt.so/2013.1/901 2013/11/27
 26 28  0  0  0  0  0  0  0  0999 V2000
   26.8329   38.5780   76.0526 C   0  0  0  0  0  0  0  0  0  0  0  0
   22.3592   35.0773   71.3582 C   0  0  0  0  0  0  0  0  0  0  0  0
   21.0601   39.7520   66.6709 P   0  0  1  0  0  0  0  0  0  0  0  0
   22.3831   41.9657   66.8608 P   0  0  1  0  0  0  0  0  0  0  0  0
   25.1318   35.3792   71.6603 C   0  0  0  0  0  0  0  0  0  0  0  0
   26.5367   37.2078   72.6574 C   0  0  0  0  0  0  0  0  0  0  0  0
   25.5812   36.2251   72.8238 C   0  0  0  0  0  0  0  0  0  0  0  0
   25.0416   36.0352   74.0971 C   0  0  0  0  0  0  0  0  0  0  0  0
   24.0793   35.0609   74.3167 N   0  0  0  0  0  0  0  0  0  0  0  0
   25.4683   36.7989   75.0986 N   0  0  0  0  0  0  0  0  0  0  0  0
   26.3788   37.7286   74.8943 C   0  0  0  0  0  0  0  0  0  0  0  0
   26.9083   37.9330   73.7040 N   0  0  0  0  0  0  0  0  0  0  0  0
   19.6070   39.7792   66.3892 O   0  0  0  0  0  0  0  0  0  0  0  0
   22.2364   41.7008   65.3454 O   0  0  0  0  0  0  0  0  0  0  0  0
   23.8727   37.8185   69.0051 S   0  0  0  0  0  0  0  0  0  0  0  0
   25.1112   37.0898   69.9811 C   0  0  0  0  0  0  0  0  0  0  0  0
   21.8773   39.9294   65.2967 O   0  0  0  0  0  0  0  0  0  0  0  0
   21.9559   43.4830   67.1861 O   0  5  0  0  0  0  0  0  0  0  0  0
   24.4286   36.2191   70.6882 N   0  0  0  0  0  0  0  0  0  0  0  0
   21.4337   40.9530   67.6768 O   0  0  0  0  0  0  0  0  0  0  0  0
   23.8536   41.7441   67.2805 O   0  0  0  0  0  0  0  0  0  0  0  0
   23.1289   36.0828   70.5395 C   0  0  2  0  0  0  0  0  0  0  0  0
   22.4944   36.8737   69.6372 C   0  0  2  0  0  0  0  0  0  0  0  0
   21.0352   36.9350   69.2685 C   0  0  0  0  0  0  0  0  0  0  0  0
   20.7351   38.2712   68.5853 C   0  0  0  0  0  0  0  0  0  0  0  0
   21.4498   38.3449   67.3501 O   0  0  0  0  0  0  0  0  0  0  0  0
  1 11  1  0  0  0  0
  3 13  1  6  0  0  0
  3 17  1  0  0  0  0
  3 20  1  0  0  0  0
  3 26  1  0  0  0  0
  4 14  1  0  0  0  0
  4 18  1  1  0  0  0
  4 21  2  0  0  0  0
  4 20  1  0  0  0  0
  5 19  1  0  0  0  0
  5  7  1  0  0  0  0
  6  7  2  0  0  0  0
  6 12  1  0  0  0  0
  7  8  1  0  0  0  0
  8  9  1  0  0  0  0
  8 10  2  0  0  0  0
 10 11  1  0  0  0  0
 11 12  2  0  0  0  0
 14 17  1  0  0  0  0
 15 23  1  0  0  0  0
 15 16  1  0  0  0  0
 16 19  1  0  0  0  0
 19 22  1  0  0  0  0
 22  2  1  1  0  0  0
 22 23  1  0  0  0  0
 23 24  1  6  0  0  0
 24 25  1  0  0  0  0
 25 26  1  0  0  0  0
M  CHG  1  18  -1
M  END
>  <CHROM.1>
70.52002723,-66.16655135,-19.67500715,64.52018243,178.58769802,-62.13499228
23.27216045,38.52125610,69.67934849,-0.89780121,-0.82500762,-0.50656007

>  <Name>
ligand

>  <RI>
0

>  <Rbt.Current_Directory>
/home/itssahil/PROJECTS/Mol_Feturizer/New_Systems/rnas/2HOL

>  <Rbt.Executable>
rbdock ($Id: //depot/dev/client3/rdock/2013.1/src/exe/rbdock.cxx#4 $)

>  <Rbt.Library>
libRbt.so (2013.1, Build901 2013/11/27)

>  <Rbt.Parameter_File>
/export/apps/rDock/src/rDock_2013.1_src/data/scripts/dock_solv.prm

>  <Rbt.Receptor>
prm/blind_docking_100.prm

>  <SCORE>
-21.7055

>  <SCORE.INTER>
-18.3626

>  <SCORE.INTER.CONST>
1

>  <SCORE.INTER.POLAR>
0

>  <SCORE.INTER.ROT>
6

>  <SCORE.INTER.SOLV>
13.6388

>  <SCORE.INTER.VDW>
-24.388

>  <SCORE.INTER.norm>
-0.706253

>  <SCORE.INTRA>
-3.34295

>  <SCORE.INTRA.DIHEDRAL>
-4.54348

>  <SCORE.INTRA.DIHEDRAL.0>
9.33621

>  <SCORE.INTRA.POLAR>
0

>  <SCORE.INTRA.POLAR.0>
0

>  <SCORE.INTRA.REPUL>
0

>  <SCORE.INTRA.REPUL.0>
0

>  <SCORE.INTRA.SOLV>
1.26568

>  <SCORE.INTRA.SOLV.lig_0>
-65.9238

>  <SCORE.INTRA.VDW>
-1.70405

>  <SCORE.INTRA.VDW.0>
-0.405582

>  <SCORE.INTRA.norm>
-0.128575

>  <SCORE.RESTR>
0

>  <SCORE.RESTR.CAVITY>
0

>  <SCORE.RESTR.norm>
0

>  <SCORE.SYSTEM>
0

>  <SCORE.SYSTEM.CONST>
0

>  <SCORE.SYSTEM.DIHEDRAL>
0

>  <SCORE.SYSTEM.SOLV>
0

>  <SCORE.SYSTEM.norm>
0

>  <SCORE.heavy>
26

>  <SCORE.norm>
-0.834828

>  <RMSD>
9.144

$$$$
ligand
 OpenBabel11021811443D
libRbt.so/2013.1/901 2013/11/27
 26 28  0  0  0  0  0  0  0  0999 V2000
   29.6272   39.1974   68.4339 C   0  0  0  0  0  0  0  0  0  0  0  0
   24.1890   40.3770   65.1048 C   0  0  0  0  0  0  0  0  0  0  0  0
   18.6908   41.8312   65.2106 P   0  0  1  0  0  0  0  0  0  0  0  0
   17.3001   39.7966   64.4277 P   0  0  1  0  0  0  0  0  0  0  0  0
   24.3071   38.0944   66.7312 C   0  0  0  0  0  0  0  0  0  0  0  0
   25.9871   38.7095   68.4951 C   0  0  0  0  0  0  0  0  0  0  0  0
   25.7158   38.3862   67.1805 C   0  0  0  0  0  0  0  0  0  0  0  0
   26.7796   38.3361   66.2780 C   0  0  0  0  0  0  0  0  0  0  0  0
   26.5597   38.0168   64.9464 N   0  0  0  0  0  0  0  0  0  0  0  0
   28.0071   38.6051   66.7128 N   0  0  0  0  0  0  0  0  0  0  0  0
   28.2217   38.9046   67.9775 C   0  0  0  0  0  0  0  0  0  0  0  0
   27.2388   38.9605   68.8548 N   0  0  0  0  0  0  0  0  0  0  0  0
   18.0163   43.1077   65.5382 O   0  0  0  0  0  0  0  0  0  0  0  0
   17.1614   39.8243   65.9665 O   0  0  0  0  0  0  0  0  0  0  0  0
   21.8726   40.6119   68.2546 S   0  0  0  0  0  0  0  0  0  0  0  0
   22.7236   39.0979   68.2251 C   0  0  0  0  0  0  0  0  0  0  0  0
   18.5806   40.8283   66.4636 O   0  0  0  0  0  0  0  0  0  0  0  0
   15.8441   39.6459   63.7584 O   0  5  0  0  0  0  0  0  0  0  0  0
   23.4302   39.2000   67.1232 N   0  0  0  0  0  0  0  0  0  0  0  0
   17.9835   41.1655   63.9260 O   0  0  0  0  0  0  0  0  0  0  0  0
   18.1831   38.5982   64.0134 O   0  0  0  0  0  0  0  0  0  0  0  0
   23.3701   40.2743   66.3668 C   0  0  2  0  0  0  0  0  0  0  0  0
   22.5479   41.2862   66.7442 C   0  0  2  0  0  0  0  0  0  0  0  0
   22.2818   42.6104   66.0775 C   0  0  0  0  0  0  0  0  0  0  0  0
   20.7721   42.8447   65.9878 C   0  0  0  0  0  0  0  0  0  0  0  0
   20.2420   42.1117   64.8817 O   0  0  0  0  0  0  0  0  0  0  0  0
  1 11  1  0  0  0  0
  3 13  1  1  0  0  0
  3 17  1  0  0  0  0
  3 20  1  0  0  0  0
  3 26  1  0  0  0  0
  4 14  1  0  0  0  0
  4 18  1  6  0  0  0
  4 21  2  0  0  0  0
  4 20  1  0  0  0  0
  5 19  1  0  0  0  0
  5  7  1  0  0  0  0
  6  7  2  0  0  0  0
  6 12  1  0  0  0  0
  7  8  1  0  0  0  0
  8  9  1  0  0  0  0
  8 10  2  0  0  0  0
 10 11  1  0  0  0  0
 11 12  2  0  0  0  0
 14 17  1  0  0  0  0
 15 23  1  0  0  0  0
 15 16  1  0  0  0  0
 16 19  1  0  0  0  0
 19 22  1  0  0  0  0
 22  2  1  6  0  0  0
 22 23  1  0  0  0  0
 23 24  1  1  0  0  0
 24 25  1  0  0  0  0
 25 26  1  0  0  0  0
M  CHG  1  18  -1
M  END
>  <CHROM.1>
-97.33175807,53.17430573,-48.56835173,-80.00486576,154.59418277,53.17628527
21.91512559,40.15476186,66.18279935,-0.06125267,-0.33188360,0.44883993

>  <Name>
ligand

>  <RI>
0

>  <Rbt.Current_Directory>
/home/itssahil/PROJECTS/Mol_Feturizer/New_Systems/rnas/2HOL

>  <Rbt.Executable>
rbdock ($Id: //depot/dev/client3/rdock/2013.1/src/exe/rbdock.cxx#4 $)

>  <Rbt.Library>
libRbt.so (2013.1, Build901 2013/11/27)

>  <Rbt.Parameter_File>
/export/apps/rDock/src/rDock_2013.1_src/data/scripts/dock_solv.prm

>  <Rbt.Receptor>
prm/pocket_docking_2.prm

>  <SCORE>
-16.3986

>  <SCORE.INTER>
-15.1691

>  <SCORE.INTER.CONST>
1

>  <SCORE.INTER.POLAR>
0

>  <SCORE.INTER.ROT>
6

>  <SCORE.INTER.SOLV>
34.245

>  <SCORE.INTER.VDW>
-29.1278

>  <SCORE.INTER.norm>
-0.583428

>  <SCORE.INTRA>
-1.58009

>  <SCORE.INTRA.DIHEDRAL>
-0.0411028

>  <SCORE.INTRA.DIHEDRAL.0>
9.33621

>  <SCORE.INTRA.POLAR>
0

>  <SCORE.INTRA.POLAR.0>
0

>  <SCORE.INTRA.REPUL>
0

>  <SCORE.INTRA.REPUL.0>
0

>  <SCORE.INTRA.SOLV>
0.909938

>  <SCORE.INTRA.SOLV.lig_0>
-65.9238

>  <SCORE.INTRA.VDW>
-2.01451

>  <SCORE.INTRA.VDW.0>
-0.405582

>  <SCORE.INTRA.norm>
-0.0607726

>  <SCORE.RESTR>
0.350628

>  <SCORE.RESTR.CAVITY>
0.350628

>  <SCORE.RESTR.norm>
0.0134857

>  <SCORE.SYSTEM>
0

>  <SCORE.SYSTEM.CONST>
0

>  <SCORE.SYSTEM.DIHEDRAL>
0

>  <SCORE.SYSTEM.SOLV>
0

>  <SCORE.SYSTEM.norm>
0

>  <SCORE.heavy>
26

>  <SCORE.norm>
-0.630715

>  <RMSD>
9.150

$$$$
ligand
 OpenBabel11021811443D
libRbt.so/2013.1/901 2013/11/27
 26 28  0  0  0  0  0  0  0  0999 V2000
   30.9287   38.2303   66.7281 C   0  0  0  0  0  0  0  0  0  0  0  0
   24.1117   41.4296   66.2432 C   0  0  0  0  0  0  0  0  0  0  0  0
   19.7836   42.0149   65.2355 P   0  0  1  0  0  0  0  0  0  0  0  0
   17.6896   40.6298   64.6163 P   0  0  1  0  0  0  0  0  0  0  0  0
   25.9565   40.0546   64.6383 C   0  0  0  0  0  0  0  0  0  0  0  0
   27.7749   38.3338   64.8480 C   0  0  0  0  0  0  0  0  0  0  0  0
   27.2727   39.5730   65.1923 C   0  0  0  0  0  0  0  0  0  0  0  0
   28.0153   40.3687   66.0663 C   0  0  0  0  0  0  0  0  0  0  0  0
   27.5542   41.6211   66.4435 N   0  0  0  0  0  0  0  0  0  0  0  0
   29.1694   39.9054   66.5371 N   0  0  0  0  0  0  0  0  0  0  0  0
   29.6138   38.7184   66.1784 C   0  0  0  0  0  0  0  0  0  0  0  0
   28.9363   37.9425   65.3550 N   0  0  0  0  0  0  0  0  0  0  0  0
   20.1740   43.1780   64.4070 O   0  0  0  0  0  0  0  0  0  0  0  0
   17.1557   41.8785   65.3537 O   0  0  0  0  0  0  0  0  0  0  0  0
   23.3558   37.5960   65.9714 S   0  0  0  0  0  0  0  0  0  0  0  0
   24.7707   38.0133   65.0541 C   0  0  0  0  0  0  0  0  0  0  0  0
   18.6164   42.4484   66.2541 O   0  0  0  0  0  0  0  0  0  0  0  0
   16.8689   40.4207   63.2476 O   0  5  0  0  0  0  0  0  0  0  0  0
   24.8615   39.3068   65.2601 N   0  0  0  0  0  0  0  0  0  0  0  0
   19.2516   40.8316   64.2814 O   0  0  0  0  0  0  0  0  0  0  0  0
   17.5125   39.3869   65.5172 O   0  0  0  0  0  0  0  0  0  0  0  0
   23.9931   39.9438   66.0151 C   0  0  2  0  0  0  0  0  0  0  0  0
   22.9825   39.2342   66.5787 C   0  0  2  0  0  0  0  0  0  0  0  0
   21.8610   39.6980   67.4709 C   0  0  0  0  0  0  0  0  0  0  0  0
   20.7073   40.2226   66.6130 C   0  0  0  0  0  0  0  0  0  0  0  0
   21.0597   41.4964   66.0696 O   0  0  0  0  0  0  0  0  0  0  0  0
  1 11  1  0  0  0  0
  3 13  1  6  0  0  0
  3 17  1  0  0  0  0
  3 20  1  0  0  0  0
  3 26  1  0  0  0  0
  4 14  1  0  0  0  0
  4 18  1  6  0  0  0
  4 21  2  0  0  0  0
  4 20  1  0  0  0  0
  5 19  1  0  0  0  0
  5  7  1  0  0  0  0
  6  7  2  0  0  0  0
  6 12  1  0  0  0  0
  7  8  1  0  0  0  0
  8  9  1  0  0  0  0
  8 10  2  0  0  0  0
 10 11  1  0  0  0  0
 11 12  2  0  0  0  0
 14 17  1  0  0  0  0
 15 23  1  0  0  0  0
 15 16  1  0  0  0  0
 16 19  1  0  0  0  0
 19 22  1  0  0  0  0
 22  2  1  6  0  0  0
 22 23  1  0  0  0  0
 23 24  1  1  0  0  0
 24 25  1  0  0  0  0
 25 26  1  0  0  0  0
M  CHG  1  18  -1
M  END
>  <CHROM.1>
-64.07499223,71.88702332,-95.32387301,-73.94421378,-177.61240426,-167.70556358
22.83631844,40.15933963,65.56217686,0.19911897,0.10641789,-3.08359271

>  <Name>
ligand

>  <RI>
0

>  <Rbt.Current_Directory>
/home/itssahil/PROJECTS/Mol_Feturizer/New_Systems/rnas/2HOL

>  <Rbt.Executable>
rbdock ($Id: //depot/dev/client3/rdock/2013.1/src/exe/rbdock.cxx#4 $)

>  <Rbt.Library>
libRbt.so (2013.1, Build901 2013/11/27)

>  <Rbt.Parameter_File>
/export/apps/rDock/src/rDock_2013.1_src/data/scripts/dock_solv.prm

>  <Rbt.Receptor>
prm/pocket_docking_3.prm

>  <SCORE>
-14.8758

>  <SCORE.INTER>
-12.1859

>  <SCORE.INTER.CONST>
1

>  <SCORE.INTER.POLAR>
0

>  <SCORE.INTER.ROT>
6

>  <SCORE.INTER.SOLV>
27.1575

>  <SCORE.INTER.VDW>
-24.7764

>  <SCORE.INTER.norm>
-0.468689

>  <SCORE.INTRA>
-2.68987

>  <SCORE.INTRA.DIHEDRAL>
-3.57802

>  <SCORE.INTRA.DIHEDRAL.0>
9.33621

>  <SCORE.INTRA.POLAR>
0

>  <SCORE.INTRA.POLAR.0>
0

>  <SCORE.INTRA.REPUL>
0

>  <SCORE.INTRA.REPUL.0>
0

>  <SCORE.INTRA.SOLV>
2.30592

>  <SCORE.INTRA.SOLV.lig_0>
-65.9238

>  <SCORE.INTRA.VDW>
-2.05382

>  <SCORE.INTRA.VDW.0>
-0.405582

>  <SCORE.INTRA.norm>
-0.103457

>  <SCORE.RESTR>
0

>  <SCORE.RESTR.CAVITY>
0

>  <SCORE.RESTR.norm>
0

>  <SCORE.SYSTEM>
0

>  <SCORE.SYSTEM.CONST>
0

>  <SCORE.SYSTEM.DIHEDRAL>
0

>  <SCORE.SYSTEM.SOLV>
0

>  <SCORE.SYSTEM.norm>
0

>  <SCORE.heavy>
26

>  <SCORE.norm>
-0.572146

>  <RMSD>
9.163

$$$$
ligand
 OpenBabel11021811443D
libRbt.so/2013.1/901 2013/11/27
 26 28  0  0  0  0  0  0  0  0999 V2000
   28.8276   39.9402   69.9652 C   0  0  0  0  0  0  0  0  0  0  0  0
   25.3607   41.6049   65.5461 C   0  0  0  0  0  0  0  0  0  0  0  0
   18.7152   41.8377   65.2152 P   0  0  1  0  0  0  0  0  0  0  0  0
   17.2431   39.8759   64.3962 P   0  0  1  0  0  0  0  0  0  0  0  0
   25.7658   38.8406   65.2924 C   0  0  0  0  0  0  0  0  0  0  0  0
   27.8700   39.6008   66.4353 C   0  0  0  0  0  0  0  0  0  0  0  0
   26.5751   39.1312   66.5301 C   0  0  0  0  0  0  0  0  0  0  0  0
   26.0343   38.9327   67.8016 C   0  0  0  0  0  0  0  0  0  0  0  0
   24.7383   38.4620   67.9507 N   0  0  0  0  0  0  0  0  0  0  0  0
   26.7827   39.1961   68.8688 N   0  0  0  0  0  0  0  0  0  0  0  0
   28.0126   39.6475   68.7325 C   0  0  0  0  0  0  0  0  0  0  0  0
   28.5528   39.8454   67.5459 N   0  0  0  0  0  0  0  0  0  0  0  0
   18.0920   43.1312   65.5761 O   0  0  0  0  0  0  0  0  0  0  0  0
   17.1148   39.8738   65.9363 O   0  0  0  0  0  0  0  0  0  0  0  0
   22.0369   39.5407   65.7285 S   0  0  0  0  0  0  0  0  0  0  0  0
   23.4042   38.4919   65.5099 C   0  0  0  0  0  0  0  0  0  0  0  0
   18.5743   40.8115   66.4460 O   0  0  0  0  0  0  0  0  0  0  0  0
   15.7784   39.7961   63.7338 O   0  5  0  0  0  0  0  0  0  0  0  0
   24.4022   39.3442   65.4707 N   0  0  0  0  0  0  0  0  0  0  0  0
   17.9753   41.2289   63.9208 O   0  0  0  0  0  0  0  0  0  0  0  0
   18.0772   38.6545   63.9490 O   0  0  0  0  0  0  0  0  0  0  0  0
   24.2039   40.6387   65.5918 C   0  0  2  0  0  0  0  0  0  0  0  0
   22.9325   41.0865   65.7514 C   0  0  2  0  0  0  0  0  0  0  0  0
   22.4197   42.4941   65.9080 C   0  0  0  0  0  0  0  0  0  0  0  0
   20.9018   42.4679   66.1013 C   0  0  0  0  0  0  0  0  0  0  0  0
   20.2740   42.0664   64.8820 O   0  0  0  0  0  0  0  0  0  0  0  0
  1 11  1  0  0  0  0
  3 13  1  1  0  0  0
  3 17  1  0  0  0  0
  3 20  1  0  0  0  0
  3 26  1  0  0  0  0
  4 14  1  0  0  0  0
  4 18  1  6  0  0  0
  4 21  2  0  0  0  0
  4 20  1  0  0  0  0
  5 19  1  0  0  0  0
  5  7  1  0  0  0  0
  6  7  2  0  0  0  0
  6 12  1  0  0  0  0
  7  8  1  0  0  0  0
  8  9  1  0  0  0  0
  8 10  2  0  0  0  0
 10 11  1  0  0  0  0
 11 12  2  0  0  0  0
 14 17  1  0  0  0  0
 15 23  1  0  0  0  0
 15 16  1  0  0  0  0
 16 19  1  0  0  0  0
 19 22  1  0  0  0  0
 22  2  1  6  0  0  0
 22 23  1  0  0  0  0
 23 24  1  1  0  0  0
 24 25  1  0  0  0  0
 25 26  1  0  0  0  0
M  CHG  1  18  -1
M  END
>  <CHROM.1>
-114.86343228,-137.17203736,1.57147029,-69.36035134,171.35459619,66.15044731
22.07223199,40.31102069,65.93650769,-0.06834861,-0.30932114,0.16240407

>  <Name>
ligand

>  <RI>
0

>  <Rbt.Current_Directory>
/home/itssahil/PROJECTS/Mol_Feturizer/New_Systems/rnas/2HOL

>  <Rbt.Executable>
rbdock ($Id: //depot/dev/client3/rdock/2013.1/src/exe/rbdock.cxx#4 $)

>  <Rbt.Library>
libRbt.so (2013.1, Build901 2013/11/27)

>  <Rbt.Parameter_File>
/export/apps/rDock/src/rDock_2013.1_src/data/scripts/dock_solv.prm

>  <Rbt.Receptor>
prm/pocket_docking_2.prm

>  <SCORE>
-15.2861

>  <SCORE.INTER>
-14.5932

>  <SCORE.INTER.CONST>
1

>  <SCORE.INTER.POLAR>
0

>  <SCORE.INTER.ROT>
6

>  <SCORE.INTER.SOLV>
29.9605

>  <SCORE.INTER.VDW>
-27.3157

>  <SCORE.INTER.norm>
-0.561278

>  <SCORE.INTRA>
-1.40012

>  <SCORE.INTRA.DIHEDRAL>
-4.02685

>  <SCORE.INTRA.DIHEDRAL.0>
9.33621

>  <SCORE.INTRA.POLAR>
0

>  <SCORE.INTRA.POLAR.0>
0

>  <SCORE.INTRA.REPUL>
0

>  <SCORE.INTRA.REPUL.0>
0

>  <SCORE.INTRA.SOLV>
3.15074

>  <SCORE.INTRA.SOLV.lig_0>
-65.9238

>  <SCORE.INTRA.VDW>
-0.962066

>  <SCORE.INTRA.VDW.0>
-0.405582

>  <SCORE.INTRA.norm>
-0.0538509

>  <SCORE.RESTR>
0.7073

>  <SCORE.RESTR.CAVITY>
0.7073

>  <SCORE.RESTR.norm>
0.0272038

>  <SCORE.SYSTEM>
0

>  <SCORE.SYSTEM.CONST>
0

>  <SCORE.SYSTEM.DIHEDRAL>
0

>  <SCORE.SYSTEM.SOLV>
0

>  <SCORE.SYSTEM.norm>
0

>  <SCORE.heavy>
26

>  <SCORE.norm>
-0.587925

>  <RMSD>
9.176

$$$$
ligand
 OpenBabel11021811443D
libRbt.so/2013.1/901 2013/11/27
 26 28  0  0  0  0  0  0  0  0999 V2000
   26.0390   36.9606   76.3840 C   0  0  0  0  0  0  0  0  0  0  0  0
   21.8933   35.2566   70.8026 C   0  0  0  0  0  0  0  0  0  0  0  0
   20.5336   40.4774   66.4621 P   0  0  1  0  0  0  0  0  0  0  0  0
   22.5639   42.0726   66.6032 P   0  0  1  0  0  0  0  0  0  0  0  0
   24.5988   34.7461   71.3401 C   0  0  0  0  0  0  0  0  0  0  0  0
   24.0150   35.7051   73.5876 C   0  0  0  0  0  0  0  0  0  0  0  0
   24.9814   35.3322   72.6748 C   0  0  0  0  0  0  0  0  0  0  0  0
   26.3222   35.5115   73.0197 C   0  0  0  0  0  0  0  0  0  0  0  0
   27.3308   35.1534   72.1376 N   0  0  0  0  0  0  0  0  0  0  0  0
   26.6183   36.0365   74.2049 N   0  0  0  0  0  0  0  0  0  0  0  0
   25.6641   36.3741   75.0479 C   0  0  0  0  0  0  0  0  0  0  0  0
   24.3884   36.2179   74.7524 N   0  0  0  0  0  0  0  0  0  0  0  0
   19.2523   40.9573   65.8969 O   0  0  0  0  0  0  0  0  0  0  0  0
   22.5294   41.5762   65.1401 O   0  0  0  0  0  0  0  0  0  0  0  0
   24.3221   37.6493   68.8744 S   0  0  0  0  0  0  0  0  0  0  0  0
   25.2118   36.5261   69.8563 C   0  0  0  0  0  0  0  0  0  0  0  0
   21.5310   40.0741   65.2661 O   0  0  0  0  0  0  0  0  0  0  0  0
   22.7096   43.6753   66.6248 O   0  5  0  0  0  0  0  0  0  0  0  0
   24.2512   35.8258   70.4137 N   0  0  0  0  0  0  0  0  0  0  0  0
   21.2007   41.6464   67.3465 O   0  0  0  0  0  0  0  0  0  0  0  0
   23.7686   41.4367   67.3326 O   0  0  0  0  0  0  0  0  0  0  0  0
   22.9851   36.0707   70.1553 C   0  0  2  0  0  0  0  0  0  0  0  0
   22.6829   37.0787   69.2979 C   0  0  2  0  0  0  0  0  0  0  0  0
   21.3398   37.5753   68.8306 C   0  0  0  0  0  0  0  0  0  0  0  0
   21.5330   38.7684   67.8917 C   0  0  0  0  0  0  0  0  0  0  0  0
   20.2626   39.1913   67.3926 O   0  0  0  0  0  0  0  0  0  0  0  0
  1 11  1  0  0  0  0
  3 13  1  6  0  0  0
  3 17  1  0  0  0  0
  3 20  1  0  0  0  0
  3 26  1  0  0  0  0
  4 14  1  0  0  0  0
  4 18  1  1  0  0  0
  4 21  2  0  0  0  0
  4 20  1  0  0  0  0
  5 19  1  0  0  0  0
  5  7  1  0  0  0  0
  6  7  2  0  0  0  0
  6 12  1  0  0  0  0
  7  8  1  0  0  0  0
  8  9  1  0  0  0  0
  8 10  2  0  0  0  0
 10 11  1  0  0  0  0
 11 12  2  0  0  0  0
 14 17  1  0  0  0  0
 15 23  1  0  0  0  0
 15 16  1  0  0  0  0
 16 19  1  0  0  0  0
 19 22  1  0  0  0  0
 22  2  1  1  0  0  0
 22 23  1  0  0  0  0
 23 24  1  6  0  0  0
 24 25  1  0  0  0  0
 25 26  1  0  0  0  0
M  CHG  1  18  -1
M  END
>  <CHROM.1>
77.35743244,81.60284325,-1.88202663,176.86206070,177.87579628,179.29639180
23.19833229,38.40906745,69.41425901,-1.00990991,-0.71577114,-0.52233223

>  <Name>
ligand

>  <RI>
0

>  <Rbt.Current_Directory>
/home/itssahil/PROJECTS/Mol_Feturizer/New_Systems/rnas/2HOL

>  <Rbt.Executable>
rbdock ($Id: //depot/dev/client3/rdock/2013.1/src/exe/rbdock.cxx#4 $)

>  <Rbt.Library>
libRbt.so (2013.1, Build901 2013/11/27)

>  <Rbt.Parameter_File>
/export/apps/rDock/src/rDock_2013.1_src/data/scripts/dock_solv.prm

>  <Rbt.Receptor>
prm/blind_docking_100.prm

>  <SCORE>
-19.4402

>  <SCORE.INTER>
-15.6961

>  <SCORE.INTER.CONST>
1

>  <SCORE.INTER.POLAR>
0

>  <SCORE.INTER.ROT>
6

>  <SCORE.INTER.SOLV>
13.2683

>  <SCORE.INTER.VDW>
-22.4868

>  <SCORE.INTER.norm>
-0.603696

>  <SCORE.INTRA>
-3.7441

>  <SCORE.INTRA.DIHEDRAL>
-4.71021

>  <SCORE.INTRA.DIHEDRAL.0>
9.33621

>  <SCORE.INTRA.POLAR>
0

>  <SCORE.INTRA.POLAR.0>
0

>  <SCORE.INTRA.REPUL>
0

>  <SCORE.INTRA.REPUL.0>
0

>  <SCORE.INTRA.SOLV>
0.939798

>  <SCORE.INTRA.SOLV.lig_0>
-65.9238

>  <SCORE.INTRA.VDW>
-1.85889

>  <SCORE.INTRA.VDW.0>
-0.405582

>  <SCORE.INTRA.norm>
-0.144004

>  <SCORE.RESTR>
0

>  <SCORE.RESTR.CAVITY>
0

>  <SCORE.RESTR.norm>
0

>  <SCORE.SYSTEM>
0

>  <SCORE.SYSTEM.CONST>
0

>  <SCORE.SYSTEM.DIHEDRAL>
0

>  <SCORE.SYSTEM.SOLV>
0

>  <SCORE.SYSTEM.norm>
0

>  <SCORE.heavy>
26

>  <SCORE.norm>
-0.7477

>  <RMSD>
9.183

$$$$
ligand
 OpenBabel11021811443D
libRbt.so/2013.1/901 2013/11/27
 26 28  0  0  0  0  0  0  0  0999 V2000
   20.8399   38.2307   68.6807 C   0  0  0  0  0  0  0  0  0  0  0  0
   24.5660   35.7383   73.9691 C   0  0  0  0  0  0  0  0  0  0  0  0
   28.4546   40.3889   77.3136 P   0  0  1  0  0  0  0  0  0  0  0  0
   29.2297   41.3069   79.6033 P   0  0  1  0  0  0  0  0  0  0  0  0
   25.0951   35.4363   71.2308 C   0  0  0  0  0  0  0  0  0  0  0  0
   24.1977   37.3625   69.8906 C   0  0  0  0  0  0  0  0  0  0  0  0
   23.9679   36.1749   70.5563 C   0  0  0  0  0  0  0  0  0  0  0  0
   22.6647   35.6755   70.5885 C   0  0  0  0  0  0  0  0  0  0  0  0
   22.3815   34.4869   71.2446 N   0  0  0  0  0  0  0  0  0  0  0  0
   21.6970   36.3597   69.9854 N   0  0  0  0  0  0  0  0  0  0  0  0
   21.9617   37.4869   69.3573 C   0  0  0  0  0  0  0  0  0  0  0  0
   23.1815   37.9855   69.3087 N   0  0  0  0  0  0  0  0  0  0  0  0
   28.6949   41.1732   76.0812 O   0  0  0  0  0  0  0  0  0  0  0  0
   30.4936   40.7022   78.9514 O   0  0  0  0  0  0  0  0  0  0  0  0
   27.4974   38.0107   72.7099 S   0  0  0  0  0  0  0  0  0  0  0  0
   26.8481   37.0618   71.4078 C   0  0  0  0  0  0  0  0  0  0  0  0
   29.7926   39.5891   77.7109 O   0  0  0  0  0  0  0  0  0  0  0  0
   29.5588   42.7859   80.1460 O   0  5  0  0  0  0  0  0  0  0  0  0
   25.9010   36.3797   72.0091 N   0  0  0  0  0  0  0  0  0  0  0  0
   28.0483   41.3849   78.5121 O   0  0  0  0  0  0  0  0  0  0  0  0
   28.7833   40.4138   80.7827 O   0  0  0  0  0  0  0  0  0  0  0  0
   25.6584   36.5281   73.2932 C   0  0  2  0  0  0  0  0  0  0  0  0
   26.4191   37.4034   73.9985 C   0  0  2  0  0  0  0  0  0  0  0  0
   26.3664   37.7651   75.4598 C   0  0  0  0  0  0  0  0  0  0  0  0
   27.5026   38.7361   75.7886 C   0  0  0  0  0  0  0  0  0  0  0  0
   27.2579   39.3417   77.0596 O   0  0  0  0  0  0  0  0  0  0  0  0
  1 11  1  0  0  0  0
  3 13  1  6  0  0  0
  3 17  1  0  0  0  0
  3 20  1  0  0  0  0
  3 26  1  0  0  0  0
  4 14  1  0  0  0  0
  4 18  1  1  0  0  0
  4 21  2  0  0  0  0
  4 20  1  0  0  0  0
  5 19  1  0  0  0  0
  5  7  1  0  0  0  0
  6  7  2  0  0  0  0
  6 12  1  0  0  0  0
  7  8  1  0  0  0  0
  8  9  1  0  0  0  0
  8 10  2  0  0  0  0
 10 11  1  0  0  0  0
 11 12  2  0  0  0  0
 14 17  1  0  0  0  0
 15 23  1  0  0  0  0
 15 16  1  0  0  0  0
 16 19  1  0  0  0  0
 19 22  1  0  0  0  0
 22  2  1  1  0  0  0
 22 23  1  0  0  0  0
 23 24  1  6  0  0  0
 24 25  1  0  0  0  0
 25 26  1  0  0  0  0
M  CHG  1  18  -1
M  END
>  <CHROM.1>
-84.21592911,46.16546721,-4.08748908,165.22253768,-177.78427953,44.82986420
26.46189953,38.55633087,74.58692133,2.38401525,0.76743314,-2.67969360

>  <Name>
ligand

>  <RI>
0

>  <Rbt.Current_Directory>
/home/itssahil/PROJECTS/Mol_Feturizer/New_Systems/rnas/2HOL

>  <Rbt.Executable>
rbdock ($Id: //depot/dev/client3/rdock/2013.1/src/exe/rbdock.cxx#4 $)

>  <Rbt.Library>
libRbt.so (2013.1, Build901 2013/11/27)

>  <Rbt.Parameter_File>
/export/apps/rDock/src/rDock_2013.1_src/data/scripts/dock_solv.prm

>  <Rbt.Receptor>
prm/blind_docking_100.prm

>  <SCORE>
-20.4843

>  <SCORE.INTER>
-18.2155

>  <SCORE.INTER.CONST>
1

>  <SCORE.INTER.POLAR>
0

>  <SCORE.INTER.ROT>
6

>  <SCORE.INTER.SOLV>
10.2983

>  <SCORE.INTER.VDW>
-23.1764

>  <SCORE.INTER.norm>
-0.700596

>  <SCORE.INTRA>
-2.26879

>  <SCORE.INTRA.DIHEDRAL>
-3.60677

>  <SCORE.INTRA.DIHEDRAL.0>
9.33621

>  <SCORE.INTRA.POLAR>
0

>  <SCORE.INTRA.POLAR.0>
0

>  <SCORE.INTRA.REPUL>
0

>  <SCORE.INTRA.REPUL.0>
0

>  <SCORE.INTRA.SOLV>
0.462434

>  <SCORE.INTRA.SOLV.lig_0>
-65.9238

>  <SCORE.INTRA.VDW>
-0.696623

>  <SCORE.INTRA.VDW.0>
-0.405582

>  <SCORE.INTRA.norm>
-0.0872612

>  <SCORE.RESTR>
0

>  <SCORE.RESTR.CAVITY>
0

>  <SCORE.RESTR.norm>
0

>  <SCORE.SYSTEM>
0

>  <SCORE.SYSTEM.CONST>
0

>  <SCORE.SYSTEM.DIHEDRAL>
0

>  <SCORE.SYSTEM.SOLV>
0

>  <SCORE.SYSTEM.norm>
0

>  <SCORE.heavy>
26

>  <SCORE.norm>
-0.787857

>  <RMSD>
9.190

$$$$
ligand
 OpenBabel11021811443D
libRbt.so/2013.1/901 2013/11/27
 26 28  0  0  0  0  0  0  0  0999 V2000
   28.5146   40.0155   71.0851 C   0  0  0  0  0  0  0  0  0  0  0  0
   24.9347   41.9899   65.1926 C   0  0  0  0  0  0  0  0  0  0  0  0
   18.6331   42.0158   65.1648 P   0  0  1  0  0  0  0  0  0  0  0  0
   17.2459   39.9774   64.3856 P   0  0  1  0  0  0  0  0  0  0  0  0
   25.3396   39.4849   66.3886 C   0  0  0  0  0  0  0  0  0  0  0  0
   25.8767   38.9180   68.7765 C   0  0  0  0  0  0  0  0  0  0  0  0
   26.1808   39.6264   67.6310 C   0  0  0  0  0  0  0  0  0  0  0  0
   27.2876   40.4768   67.6528 C   0  0  0  0  0  0  0  0  0  0  0  0
   27.6348   41.2107   66.5284 N   0  0  0  0  0  0  0  0  0  0  0  0
   28.0013   40.5775   68.7703 N   0  0  0  0  0  0  0  0  0  0  0  0
   27.6783   39.8793   69.8395 C   0  0  0  0  0  0  0  0  0  0  0  0
   26.6390   39.0676   69.8516 N   0  0  0  0  0  0  0  0  0  0  0  0
   17.9498   43.2610   65.5823 O   0  0  0  0  0  0  0  0  0  0  0  0
   17.1997   39.9426   65.9299 O   0  0  0  0  0  0  0  0  0  0  0  0
   21.8421   40.7519   67.2530 S   0  0  0  0  0  0  0  0  0  0  0  0
   23.1325   39.5909   67.3178 C   0  0  0  0  0  0  0  0  0  0  0  0
   18.6223   40.9632   66.3812 O   0  0  0  0  0  0  0  0  0  0  0  0
   15.7561   39.8149   63.7985 O   0  5  0  0  0  0  0  0  0  0  0  0
   24.0582   40.1662   66.5858 N   0  0  0  0  0  0  0  0  0  0  0  0
   17.8654   41.3817   63.8990 O   0  0  0  0  0  0  0  0  0  0  0  0
   18.1302   38.8190   63.8723 O   0  0  0  0  0  0  0  0  0  0  0  0
   23.8609   41.3415   66.0295 C   0  0  2  0  0  0  0  0  0  0  0  0
   22.6651   41.9549   66.2197 C   0  0  2  0  0  0  0  0  0  0  0  0
   22.1709   43.2818   65.7061 C   0  0  0  0  0  0  0  0  0  0  0  0
   20.6406   43.2950   65.7098 C   0  0  0  0  0  0  0  0  0  0  0  0
   20.1545   42.3488   64.7557 O   0  0  0  0  0  0  0  0  0  0  0  0
  1 11  1  0  0  0  0
  3 13  1  1  0  0  0
  3 17  1  0  0  0  0
  3 20  1  0  0  0  0
  3 26  1  0  0  0  0
  4 14  1  0  0  0  0
  4 18  1  6  0  0  0
  4 21  2  0  0  0  0
  4 20  1  0  0  0  0
  5 19  1  0  0  0  0
  5  7  1  0  0  0  0
  6  7  2  0  0  0  0
  6 12  1  0  0  0  0
  7  8  1  0  0  0  0
  8  9  1  0  0  0  0
  8 10  2  0  0  0  0
 10 11  1  0  0  0  0
 11 12  2  0  0  0  0
 14 17  1  0  0  0  0
 15 23  1  0  0  0  0
 15 16  1  0  0  0  0
 16 19  1  0  0  0  0
 19 22  1  0  0  0  0
 22  2  1  6  0  0  0
 22 23  1  0  0  0  0
 23 24  1  1  0  0  0
 24 25  1  0  0  0  0
 25 26  1  0  0  0  0
M  CHG  1  18  -1
M  END
>  <CHROM.1>
-76.80402328,72.98261893,-22.33899258,-66.41556494,159.84558427,40.66042788
21.98018723,40.81601426,66.35254619,0.23152450,0.32520257,2.70520028

>  <Name>
ligand

>  <RI>
0

>  <Rbt.Current_Directory>
/home/itssahil/PROJECTS/Mol_Feturizer/New_Systems/rnas/2HOL

>  <Rbt.Executable>
rbdock ($Id: //depot/dev/client3/rdock/2013.1/src/exe/rbdock.cxx#4 $)

>  <Rbt.Library>
libRbt.so (2013.1, Build901 2013/11/27)

>  <Rbt.Parameter_File>
/export/apps/rDock/src/rDock_2013.1_src/data/scripts/dock_solv.prm

>  <Rbt.Receptor>
prm/pocket_docking_3.prm

>  <SCORE>
-17.1429

>  <SCORE.INTER>
-15.5376

>  <SCORE.INTER.CONST>
1

>  <SCORE.INTER.POLAR>
0

>  <SCORE.INTER.ROT>
6

>  <SCORE.INTER.SOLV>
27.7955

>  <SCORE.INTER.VDW>
-27.2235

>  <SCORE.INTER.norm>
-0.597598

>  <SCORE.INTRA>
-1.60534

>  <SCORE.INTRA.DIHEDRAL>
-2.06191

>  <SCORE.INTRA.DIHEDRAL.0>
9.33621

>  <SCORE.INTRA.POLAR>
0

>  <SCORE.INTRA.POLAR.0>
0

>  <SCORE.INTRA.REPUL>
0

>  <SCORE.INTRA.REPUL.0>
0

>  <SCORE.INTRA.SOLV>
1.65598

>  <SCORE.INTRA.SOLV.lig_0>
-65.9238

>  <SCORE.INTRA.VDW>
-1.40237

>  <SCORE.INTRA.VDW.0>
-0.405582

>  <SCORE.INTRA.norm>
-0.0617437

>  <SCORE.RESTR>
0

>  <SCORE.RESTR.CAVITY>
0

>  <SCORE.RESTR.norm>
0

>  <SCORE.SYSTEM>
0

>  <SCORE.SYSTEM.CONST>
0

>  <SCORE.SYSTEM.DIHEDRAL>
0

>  <SCORE.SYSTEM.SOLV>
0

>  <SCORE.SYSTEM.norm>
0

>  <SCORE.heavy>
26

>  <SCORE.norm>
-0.659342

>  <RMSD>
9.194

$$$$
ligand
 OpenBabel11021811443D
libRbt.so/2013.1/901 2013/11/27
 26 28  0  0  0  0  0  0  0  0999 V2000
   28.7201   36.3626   64.8481 C   0  0  0  0  0  0  0  0  0  0  0  0
   24.2667   43.0907   67.2588 C   0  0  0  0  0  0  0  0  0  0  0  0
   18.6676   42.1337   65.1487 P   0  0  1  0  0  0  0  0  0  0  0  0
   17.2855   40.0707   64.4273 P   0  0  1  0  0  0  0  0  0  0  0  0
   26.0172   41.2035   66.1435 C   0  0  0  0  0  0  0  0  0  0  0  0
   27.0482   39.6140   64.4937 C   0  0  0  0  0  0  0  0  0  0  0  0
   26.7326   39.9218   65.8021 C   0  0  0  0  0  0  0  0  0  0  0  0
   27.0932   39.0157   66.8008 C   0  0  0  0  0  0  0  0  0  0  0  0
   26.7984   39.2780   68.1304 N   0  0  0  0  0  0  0  0  0  0  0  0
   27.7189   37.8935   66.4579 N   0  0  0  0  0  0  0  0  0  0  0  0
   28.0051   37.6418   65.1970 C   0  0  0  0  0  0  0  0  0  0  0  0
   27.6780   38.4768   64.2301 N   0  0  0  0  0  0  0  0  0  0  0  0
   17.9807   43.3585   65.6174 O   0  0  0  0  0  0  0  0  0  0  0  0
   17.3278   40.0203   65.9713 O   0  0  0  0  0  0  0  0  0  0  0  0
   22.4128   40.1890   65.3920 S   0  0  0  0  0  0  0  0  0  0  0  0
   24.1346   39.9714   65.3166 C   0  0  0  0  0  0  0  0  0  0  0  0
   18.7500   41.0698   66.3524 O   0  0  0  0  0  0  0  0  0  0  0  0
   15.7690   39.8787   63.9236 O   0  5  0  0  0  0  0  0  0  0  0  0
   24.5740   41.0166   65.9788 N   0  0  0  0  0  0  0  0  0  0  0  0
   17.8441   41.4937   63.9215 O   0  0  0  0  0  0  0  0  0  0  0  0
   18.1657   38.9382   63.8525 O   0  0  0  0  0  0  0  0  0  0  0  0
   23.7465   41.8961   66.4998 C   0  0  2  0  0  0  0  0  0  0  0  0
   22.4127   41.7082   66.3322 C   0  0  2  0  0  0  0  0  0  0  0  0
   21.2548   42.5451   66.8095 C   0  0  0  0  0  0  0  0  0  0  0  0
   20.7099   43.3767   65.6461 C   0  0  0  0  0  0  0  0  0  0  0  0
   20.1554   42.5061   64.6578 O   0  0  0  0  0  0  0  0  0  0  0  0
  1 11  1  0  0  0  0
  3 13  1  1  0  0  0
  3 17  1  0  0  0  0
  3 20  1  0  0  0  0
  3 26  1  0  0  0  0
  4 14  1  0  0  0  0
  4 18  1  6  0  0  0
  4 21  2  0  0  0  0
  4 20  1  0  0  0  0
  5 19  1  0  0  0  0
  5  7  1  0  0  0  0
  6  7  2  0  0  0  0
  6 12  1  0  0  0  0
  7  8  1  0  0  0  0
  8  9  1  0  0  0  0
  8 10  2  0  0  0  0
 10 11  1  0  0  0  0
 11 12  2  0  0  0  0
 14 17  1  0  0  0  0
 15 23  1  0  0  0  0
 15 16  1  0  0  0  0
 16 19  1  0  0  0  0
 19 22  1  0  0  0  0
 22  2  1  6  0  0  0
 22 23  1  0  0  0  0
 23 24  1  1  0  0  0
 24 25  1  0  0  0  0
 25 26  1  0  0  0  0
M  CHG  1  18  -1
M  END
>  <CHROM.1>
-14.83609960,84.26395304,-77.89359420,65.34104026,82.07610746,44.89608364
22.10529242,40.55663086,65.48510543,0.17106656,0.18633183,-2.72266916

>  <Name>
ligand

>  <RI>
0

>  <Rbt.Current_Directory>
/home/itssahil/PROJECTS/Mol_Feturizer/New_Systems/rnas/2HOL

>  <Rbt.Executable>
rbdock ($Id: //depot/dev/client3/rdock/2013.1/src/exe/rbdock.cxx#4 $)

>  <Rbt.Library>
libRbt.so (2013.1, Build901 2013/11/27)

>  <Rbt.Parameter_File>
/export/apps/rDock/src/rDock_2013.1_src/data/scripts/dock_solv.prm

>  <Rbt.Receptor>
prm/pocket_docking_4.prm

>  <SCORE>
-19.2507

>  <SCORE.INTER>
-18.6041

>  <SCORE.INTER.CONST>
1

>  <SCORE.INTER.POLAR>
0

>  <SCORE.INTER.ROT>
6

>  <SCORE.INTER.SOLV>
28.7803

>  <SCORE.INTER.VDW>
-29.5962

>  <SCORE.INTER.norm>
-0.715543

>  <SCORE.INTRA>
-0.683975

>  <SCORE.INTRA.DIHEDRAL>
-1.66961

>  <SCORE.INTRA.DIHEDRAL.0>
9.33621

>  <SCORE.INTRA.POLAR>
0

>  <SCORE.INTRA.POLAR.0>
0

>  <SCORE.INTRA.REPUL>
0

>  <SCORE.INTRA.REPUL.0>
0

>  <SCORE.INTRA.SOLV>
0.393249

>  <SCORE.INTRA.SOLV.lig_0>
-65.9238

>  <SCORE.INTRA.VDW>
-0.0457923

>  <SCORE.INTRA.VDW.0>
-0.405582

>  <SCORE.INTRA.norm>
-0.0263067

>  <SCORE.RESTR>
0.0374049

>  <SCORE.RESTR.CAVITY>
0.0374049

>  <SCORE.RESTR.norm>
0.00143865

>  <SCORE.SYSTEM>
0

>  <SCORE.SYSTEM.CONST>
0

>  <SCORE.SYSTEM.DIHEDRAL>
0

>  <SCORE.SYSTEM.SOLV>
0

>  <SCORE.SYSTEM.norm>
0

>  <SCORE.heavy>
26

>  <SCORE.norm>
-0.740412

>  <RMSD>
9.202

$$$$
ligand
 OpenBabel11021811443D
libRbt.so/2013.1/901 2013/11/27
 26 28  0  0  0  0  0  0  0  0999 V2000
   29.6375   37.4119   65.7102 C   0  0  0  0  0  0  0  0  0  0  0  0
   21.9057   39.5703   67.7212 C   0  0  0  0  0  0  0  0  0  0  0  0
   18.7458   42.1104   65.1878 P   0  0  1  0  0  0  0  0  0  0  0  0
   17.3247   40.0740   64.4669 P   0  0  1  0  0  0  0  0  0  0  0  0
   24.0634   38.3088   66.4476 C   0  0  0  0  0  0  0  0  0  0  0  0
   26.0665   37.8850   64.9916 C   0  0  0  0  0  0  0  0  0  0  0  0
   25.5390   38.0714   66.2539 C   0  0  0  0  0  0  0  0  0  0  0  0
   26.4073   38.0347   67.3463 C   0  0  0  0  0  0  0  0  0  0  0  0
   25.9271   38.2157   68.6348 N   0  0  0  0  0  0  0  0  0  0  0  0
   27.7019   37.8177   67.1338 N   0  0  0  0  0  0  0  0  0  0  0  0
   28.1636   37.6496   65.9116 C   0  0  0  0  0  0  0  0  0  0  0  0
   27.3699   37.6783   64.8589 N   0  0  0  0  0  0  0  0  0  0  0  0
   18.0822   43.3559   65.6351 O   0  0  0  0  0  0  0  0  0  0  0  0
   17.3444   40.0379   66.0117 O   0  0  0  0  0  0  0  0  0  0  0  0
   23.7128   41.8714   65.1171 S   0  0  0  0  0  0  0  0  0  0  0  0
   24.4645   40.3069   65.1856 C   0  0  0  0  0  0  0  0  0  0  0  0
   18.7859   41.0568   66.4028 O   0  0  0  0  0  0  0  0  0  0  0  0
   15.8111   39.9133   63.9437 O   0  5  0  0  0  0  0  0  0  0  0  0
   23.7401   39.6922   66.0918 N   0  0  0  0  0  0  0  0  0  0  0  0
   17.9243   41.4781   63.9554 O   0  0  0  0  0  0  0  0  0  0  0  0
   18.1852   38.9151   63.9155 O   0  0  0  0  0  0  0  0  0  0  0  0
   22.7291   40.2904   66.6833 C   0  0  2  0  0  0  0  0  0  0  0  0
   22.4482   41.5742   66.3437 C   0  0  2  0  0  0  0  0  0  0  0  0
   21.3686   42.4915   66.8554 C   0  0  0  0  0  0  0  0  0  0  0  0
   20.8066   43.3179   65.6964 C   0  0  0  0  0  0  0  0  0  0  0  0
   20.2488   42.4423   64.7145 O   0  0  0  0  0  0  0  0  0  0  0  0
  1 11  1  0  0  0  0
  3 13  1  1  0  0  0
  3 17  1  0  0  0  0
  3 20  1  0  0  0  0
  3 26  1  0  0  0  0
  4 14  1  0  0  0  0
  4 18  1  6  0  0  0
  4 21  2  0  0  0  0
  4 20  1  0  0  0  0
  5 19  1  0  0  0  0
  5  7  1  0  0  0  0
  6  7  2  0  0  0  0
  6 12  1  0  0  0  0
  7  8  1  0  0  0  0
  8  9  1  0  0  0  0
  8 10  2  0  0  0  0
 10 11  1  0  0  0  0
 11 12  2  0  0  0  0
 14 17  1  0  0  0  0
 15 23  1  0  0  0  0
 15 16  1  0  0  0  0
 16 19  1  0  0  0  0
 19 22  1  0  0  0  0
 22  2  1  1  0  0  0
 22 23  1  0  0  0  0
 23 24  1  6  0  0  0
 24 25  1  0  0  0  0
 25 26  1  0  0  0  0
M  CHG  1  18  -1
M  END
>  <CHROM.1>
29.21296841,-77.04601351,38.90900389,60.44987171,84.45659050,44.43096949
21.95385258,40.21165582,65.67134871,0.29194477,0.19088494,-3.00552296

>  <Name>
ligand

>  <RI>
0

>  <Rbt.Current_Directory>
/home/itssahil/PROJECTS/Mol_Feturizer/New_Systems/rnas/2HOL

>  <Rbt.Executable>
rbdock ($Id: //depot/dev/client3/rdock/2013.1/src/exe/rbdock.cxx#4 $)

>  <Rbt.Library>
libRbt.so (2013.1, Build901 2013/11/27)

>  <Rbt.Parameter_File>
/export/apps/rDock/src/rDock_2013.1_src/data/scripts/dock_solv.prm

>  <Rbt.Receptor>
prm/pocket_docking_3.prm

>  <SCORE>
-20.0758

>  <SCORE.INTER>
-19.5363

>  <SCORE.INTER.CONST>
1

>  <SCORE.INTER.POLAR>
0

>  <SCORE.INTER.ROT>
6

>  <SCORE.INTER.SOLV>
30.3212

>  <SCORE.INTER.VDW>
-30.7313

>  <SCORE.INTER.norm>
-0.751397

>  <SCORE.INTRA>
-0.543379

>  <SCORE.INTRA.DIHEDRAL>
-1.38722

>  <SCORE.INTRA.DIHEDRAL.0>
9.33621

>  <SCORE.INTRA.POLAR>
0

>  <SCORE.INTRA.POLAR.0>
0

>  <SCORE.INTRA.REPUL>
0

>  <SCORE.INTRA.REPUL.0>
0

>  <SCORE.INTRA.SOLV>
0.614392

>  <SCORE.INTRA.SOLV.lig_0>
-65.9238

>  <SCORE.INTRA.VDW>
-0.156963

>  <SCORE.INTRA.VDW.0>
-0.405582

>  <SCORE.INTRA.norm>
-0.0208992

>  <SCORE.RESTR>
0.00389683

>  <SCORE.RESTR.CAVITY>
0.00389683

>  <SCORE.RESTR.norm>
0.000149878

>  <SCORE.SYSTEM>
0

>  <SCORE.SYSTEM.CONST>
0

>  <SCORE.SYSTEM.DIHEDRAL>
0

>  <SCORE.SYSTEM.SOLV>
0

>  <SCORE.SYSTEM.norm>
0

>  <SCORE.heavy>
26

>  <SCORE.norm>
-0.772146

>  <RMSD>
9.203

$$$$
ligand
 OpenBabel11021811443D
libRbt.so/2013.1/901 2013/11/27
 26 28  0  0  0  0  0  0  0  0999 V2000
   25.4167   36.0161   76.5560 C   0  0  0  0  0  0  0  0  0  0  0  0
   24.8033   37.7677   69.2770 C   0  0  0  0  0  0  0  0  0  0  0  0
   22.2121   40.0606   66.1713 P   0  0  1  0  0  0  0  0  0  0  0  0
   20.7739   42.1963   65.9322 P   0  0  1  0  0  0  0  0  0  0  0  0
   25.5100   35.5768   70.8800 C   0  0  0  0  0  0  0  0  0  0  0  0
   24.3965   36.2339   73.0341 C   0  0  0  0  0  0  0  0  0  0  0  0
   25.4867   35.6925   72.3825 C   0  0  0  0  0  0  0  0  0  0  0  0
   26.5668   35.2546   73.1507 C   0  0  0  0  0  0  0  0  0  0  0  0
   27.6858   34.7038   72.5442 N   0  0  0  0  0  0  0  0  0  0  0  0
   26.5095   35.3788   74.4734 N   0  0  0  0  0  0  0  0  0  0  0  0
   25.4472   35.8972   75.0546 C   0  0  0  0  0  0  0  0  0  0  0  0
   24.4108   36.3204   74.3576 N   0  0  0  0  0  0  0  0  0  0  0  0
   23.6768   40.1271   65.9672 O   0  0  0  0  0  0  0  0  0  0  0  0
   21.3992   42.2751   67.3432 O   0  0  0  0  0  0  0  0  0  0  0  0
   21.8496   35.2574   69.8385 S   0  0  0  0  0  0  0  0  0  0  0  0
   23.2820   34.7198   70.6610 C   0  0  0  0  0  0  0  0  0  0  0  0
   21.8541   40.5541   67.6600 O   0  0  0  0  0  0  0  0  0  0  0  0
   20.9931   43.5952   65.1671 O   0  5  0  0  0  0  0  0  0  0  0  0
   24.1430   35.6649   70.3618 N   0  0  0  0  0  0  0  0  0  0  0  0
   21.4777   41.0116   65.0991 O   0  0  0  0  0  0  0  0  0  0  0  0
   19.2607   41.9097   66.0566 O   0  0  0  0  0  0  0  0  0  0  0  0
   23.8033   36.6896   69.6106 C   0  0  2  0  0  0  0  0  0  0  0  0
   22.5332   36.7509   69.1357 C   0  0  2  0  0  0  0  0  0  0  0  0
   21.8807   37.7906   68.2627 C   0  0  0  0  0  0  0  0  0  0  0  0
   22.4855   37.7332   66.8581 C   0  0  0  0  0  0  0  0  0  0  0  0
   21.7099   38.5435   65.9728 O   0  0  0  0  0  0  0  0  0  0  0  0
  1 11  1  0  0  0  0
  3 13  1  6  0  0  0
  3 17  1  0  0  0  0
  3 20  1  0  0  0  0
  3 26  1  0  0  0  0
  4 14  1  0  0  0  0
  4 18  1  6  0  0  0
  4 21  2  0  0  0  0
  4 20  1  0  0  0  0
  5 19  1  0  0  0  0
  5  7  1  0  0  0  0
  6  7  2  0  0  0  0
  6 12  1  0  0  0  0
  7  8  1  0  0  0  0
  8  9  1  0  0  0  0
  8 10  2  0  0  0  0
 10 11  1  0  0  0  0
 11 12  2  0  0  0  0
 14 17  1  0  0  0  0
 15 23  1  0  0  0  0
 15 16  1  0  0  0  0
 16 19  1  0  0  0  0
 19 22  1  0  0  0  0
 22  2  1  6  0  0  0
 22 23  1  0  0  0  0
 23 24  1  1  0  0  0
 24 25  1  0  0  0  0
 25 26  1  0  0  0  0
M  CHG  1  18  -1
M  END
>  <CHROM.1>
-65.21386647,-19.10261233,-111.61107510,169.67733439,82.27778275,54.62731826
23.12506340,38.16192385,69.22295370,-0.38042331,-1.12233108,0.25496424

>  <Name>
ligand

>  <RI>
0

>  <Rbt.Current_Directory>
/home/itssahil/PROJECTS/Mol_Feturizer/New_Systems/rnas/2HOL

>  <Rbt.Executable>
rbdock ($Id: //depot/dev/client3/rdock/2013.1/src/exe/rbdock.cxx#4 $)

>  <Rbt.Library>
libRbt.so (2013.1, Build901 2013/11/27)

>  <Rbt.Parameter_File>
/export/apps/rDock/src/rDock_2013.1_src/data/scripts/dock_solv.prm

>  <Rbt.Receptor>
prm/blind_docking_100.prm

>  <SCORE>
-15.8272

>  <SCORE.INTER>
-14.5692

>  <SCORE.INTER.CONST>
1

>  <SCORE.INTER.POLAR>
0

>  <SCORE.INTER.ROT>
6

>  <SCORE.INTER.SOLV>
18.6379

>  <SCORE.INTER.VDW>
-23.5255

>  <SCORE.INTER.norm>
-0.560356

>  <SCORE.INTRA>
-1.25799

>  <SCORE.INTRA.DIHEDRAL>
-2.11833

>  <SCORE.INTRA.DIHEDRAL.0>
9.33621

>  <SCORE.INTRA.POLAR>
0

>  <SCORE.INTRA.POLAR.0>
0

>  <SCORE.INTRA.REPUL>
0

>  <SCORE.INTRA.REPUL.0>
0

>  <SCORE.INTRA.SOLV>
-0.216008

>  <SCORE.INTRA.SOLV.lig_0>
-65.9238

>  <SCORE.INTRA.VDW>
-0.0908176

>  <SCORE.INTRA.VDW.0>
-0.405582

>  <SCORE.INTRA.norm>
-0.0483841

>  <SCORE.RESTR>
0

>  <SCORE.RESTR.CAVITY>
0

>  <SCORE.RESTR.norm>
0

>  <SCORE.SYSTEM>
0

>  <SCORE.SYSTEM.CONST>
0

>  <SCORE.SYSTEM.DIHEDRAL>
0

>  <SCORE.SYSTEM.SOLV>
0

>  <SCORE.SYSTEM.norm>
0

>  <SCORE.heavy>
26

>  <SCORE.norm>
-0.60874

>  <RMSD>
9.247

$$$$
ligand
 OpenBabel11021811443D
libRbt.so/2013.1/901 2013/11/27
 26 28  0  0  0  0  0  0  0  0999 V2000
   31.0955   39.0319   67.5547 C   0  0  0  0  0  0  0  0  0  0  0  0
   24.2246   41.2776   65.3635 C   0  0  0  0  0  0  0  0  0  0  0  0
   19.3573   41.2476   65.2871 P   0  0  1  0  0  0  0  0  0  0  0  0
   17.2761   39.9766   64.4269 P   0  0  1  0  0  0  0  0  0  0  0  0
   25.7478   40.9810   67.7005 C   0  0  0  0  0  0  0  0  0  0  0  0
   28.0227   40.6719   68.7208 C   0  0  0  0  0  0  0  0  0  0  0  0
   27.1631   40.4646   67.6605 C   0  0  0  0  0  0  0  0  0  0  0  0
   27.6381   39.7640   66.5504 C   0  0  0  0  0  0  0  0  0  0  0  0
   26.8145   39.5299   65.4594 N   0  0  0  0  0  0  0  0  0  0  0  0
   28.8947   39.3292   66.5519 N   0  0  0  0  0  0  0  0  0  0  0  0
   29.6796   39.5451   67.5875 C   0  0  0  0  0  0  0  0  0  0  0  0
   29.2616   40.2034   68.6509 N   0  0  0  0  0  0  0  0  0  0  0  0
   19.2791   42.7015   65.5551 O   0  0  0  0  0  0  0  0  0  0  0  0
   17.0715   40.1199   65.9519 O   0  0  0  0  0  0  0  0  0  0  0  0
   23.5499   37.8950   67.2196 S   0  0  0  0  0  0  0  0  0  0  0  0
   24.7326   38.8411   68.0701 C   0  0  0  0  0  0  0  0  0  0  0  0
   18.7522   40.4374   66.5382 O   0  0  0  0  0  0  0  0  0  0  0  0
   15.9395   40.4387   63.6585 O   0  5  0  0  0  0  0  0  0  0  0  0
   24.8259   39.9106   67.3141 N   0  0  0  0  0  0  0  0  0  0  0  0
   18.5103   40.9005   63.9621 O   0  0  0  0  0  0  0  0  0  0  0  0
   17.5809   38.5006   64.0864 O   0  0  0  0  0  0  0  0  0  0  0  0
   24.1071   40.0425   66.2206 C   0  0  2  0  0  0  0  0  0  0  0  0
   23.2620   39.0376   65.8765 C   0  0  2  0  0  0  0  0  0  0  0  0
   22.3364   38.9201   64.6941 C   0  0  0  0  0  0  0  0  0  0  0  0
   20.9367   39.3956   65.0898 C   0  0  0  0  0  0  0  0  0  0  0  0
   20.8949   40.8237   65.0653 O   0  0  0  0  0  0  0  0  0  0  0  0
  1 11  1  0  0  0  0
  3 13  1  1  0  0  0
  3 17  1  0  0  0  0
  3 20  1  0  0  0  0
  3 26  1  0  0  0  0
  4 14  1  0  0  0  0
  4 18  1  6  0  0  0
  4 21  2  0  0  0  0
  4 20  1  0  0  0  0
  5 19  1  0  0  0  0
  5  7  1  0  0  0  0
  6  7  2  0  0  0  0
  6 12  1  0  0  0  0
  7  8  1  0  0  0  0
  8  9  1  0  0  0  0
  8 10  2  0  0  0  0
 10 11  1  0  0  0  0
 11 12  2  0  0  0  0
 14 17  1  0  0  0  0
 15 23  1  0  0  0  0
 15 16  1  0  0  0  0
 16 19  1  0  0  0  0
 19 22  1  0  0  0  0
 22  2  1  6  0  0  0
 22 23  1  0  0  0  0
 23 24  1  1  0  0  0
 24 25  1  0  0  0  0
 25 26  1  0  0  0  0
M  CHG  1  18  -1
M  END
>  <CHROM.1>
64.05059234,-131.20750863,85.06267380,79.76150365,172.29277833,168.24222288
22.69680799,39.98559496,66.04775312,0.05096766,0.25906894,-3.09199527

>  <Name>
ligand

>  <RI>
0

>  <Rbt.Current_Directory>
/home/itssahil/PROJECTS/Mol_Feturizer/New_Systems/rnas/2HOL

>  <Rbt.Executable>
rbdock ($Id: //depot/dev/client3/rdock/2013.1/src/exe/rbdock.cxx#4 $)

>  <Rbt.Library>
libRbt.so (2013.1, Build901 2013/11/27)

>  <Rbt.Parameter_File>
/export/apps/rDock/src/rDock_2013.1_src/data/scripts/dock_solv.prm

>  <Rbt.Receptor>
prm/pocket_docking_2.prm

>  <SCORE>
-11.3613

>  <SCORE.INTER>
-11.9106

>  <SCORE.INTER.CONST>
1

>  <SCORE.INTER.POLAR>
0

>  <SCORE.INTER.ROT>
6

>  <SCORE.INTER.SOLV>
28.4248

>  <SCORE.INTER.VDW>
-25.0153

>  <SCORE.INTER.norm>
-0.458099

>  <SCORE.INTRA>
-1.23172

>  <SCORE.INTRA.DIHEDRAL>
-2.54801

>  <SCORE.INTRA.DIHEDRAL.0>
9.33621

>  <SCORE.INTRA.POLAR>
0

>  <SCORE.INTRA.POLAR.0>
0

>  <SCORE.INTRA.REPUL>
0

>  <SCORE.INTRA.REPUL.0>
0

>  <SCORE.INTRA.SOLV>
4.70176

>  <SCORE.INTRA.SOLV.lig_0>
-65.9238

>  <SCORE.INTRA.VDW>
-2.3086

>  <SCORE.INTRA.VDW.0>
-0.405582

>  <SCORE.INTRA.norm>
-0.0473739

>  <SCORE.RESTR>
1.78097

>  <SCORE.RESTR.CAVITY>
1.78097

>  <SCORE.RESTR.norm>
0.0684988

>  <SCORE.SYSTEM>
0

>  <SCORE.SYSTEM.CONST>
0

>  <SCORE.SYSTEM.DIHEDRAL>
0

>  <SCORE.SYSTEM.SOLV>
0

>  <SCORE.SYSTEM.norm>
0

>  <SCORE.heavy>
26

>  <SCORE.norm>
-0.436974

>  <RMSD>
9.252

$$$$
ligand
 OpenBabel11021811443D
libRbt.so/2013.1/901 2013/11/27
 26 28  0  0  0  0  0  0  0  0999 V2000
   31.7772   42.4736   66.4187 C   0  0  0  0  0  0  0  0  0  0  0  0
   24.1074   42.6627   66.0967 C   0  0  0  0  0  0  0  0  0  0  0  0
   19.9239   40.2700   65.7418 P   0  0  1  0  0  0  0  0  0  0  0  0
   17.5179   40.2215   64.7954 P   0  0  1  0  0  0  0  0  0  0  0  0
   26.4089   42.3356   64.5264 C   0  0  0  0  0  0  0  0  0  0  0  0
   28.8918   42.2232   64.1596 C   0  0  0  0  0  0  0  0  0  0  0  0
   27.8293   42.3723   65.0286 C   0  0  0  0  0  0  0  0  0  0  0  0
   28.1043   42.5582   66.3845 C   0  0  0  0  0  0  0  0  0  0  0  0
   27.0724   42.7123   67.2983 N   0  0  0  0  0  0  0  0  0  0  0  0
   29.3710   42.5795   66.7885 N   0  0  0  0  0  0  0  0  0  0  0  0
   30.3548   42.4380   65.9240 C   0  0  0  0  0  0  0  0  0  0  0  0
   30.1287   42.2604   64.6370 N   0  0  0  0  0  0  0  0  0  0  0  0
   21.0314   40.8119   64.9226 O   0  0  0  0  0  0  0  0  0  0  0  0
   17.7409   41.6709   65.2830 O   0  0  0  0  0  0  0  0  0  0  0  0
   25.1098   38.9088   65.6009 S   0  0  0  0  0  0  0  0  0  0  0  0
   26.2237   39.9592   64.7804 C   0  0  0  0  0  0  0  0  0  0  0  0
   19.1236   41.4824   66.4328 O   0  0  0  0  0  0  0  0  0  0  0  0
   16.9182   40.2421   63.3020 O   0  5  0  0  0  0  0  0  0  0  0  0
   25.7348   41.1469   65.0530 N   0  0  0  0  0  0  0  0  0  0  0  0
   18.9212   39.4319   64.8006 O   0  0  0  0  0  0  0  0  0  0  0  0
   16.5231   39.5097   65.7395 O   0  0  0  0  0  0  0  0  0  0  0  0
   24.6560   41.2917   65.7912 C   0  0  2  0  0  0  0  0  0  0  0  0
   24.0425   40.1778   66.2661 C   0  0  2  0  0  0  0  0  0  0  0  0
   22.8081   40.0479   67.1194 C   0  0  0  0  0  0  0  0  0  0  0  0
   21.8688   39.0067   66.5066 C   0  0  0  0  0  0  0  0  0  0  0  0
   20.5219   39.3022   66.8815 O   0  0  0  0  0  0  0  0  0  0  0  0
  1 11  1  0  0  0  0
  3 13  1  6  0  0  0
  3 17  1  0  0  0  0
  3 20  1  0  0  0  0
  3 26  1  0  0  0  0
  4 14  1  0  0  0  0
  4 18  1  6  0  0  0
  4 21  2  0  0  0  0
  4 20  1  0  0  0  0
  5 19  1  0  0  0  0
  5  7  1  0  0  0  0
  6  7  2  0  0  0  0
  6 12  1  0  0  0  0
  7  8  1  0  0  0  0
  8  9  1  0  0  0  0
  8 10  2  0  0  0  0
 10 11  1  0  0  0  0
 11 12  2  0  0  0  0
 14 17  1  0  0  0  0
 15 23  1  0  0  0  0
 15 16  1  0  0  0  0
 16 19  1  0  0  0  0
 19 22  1  0  0  0  0
 22  2  1  6  0  0  0
 22 23  1  0  0  0  0
 23 24  1  1  0  0  0
 24 25  1  0  0  0  0
 25 26  1  0  0  0  0
M  CHG  1  18  -1
M  END
>  <CHROM.1>
-59.08770681,113.42905556,-48.54750225,-153.01190642,90.40443734,-15.17795088
23.31296515,40.88555523,65.59455697,-0.15659209,0.09087544,2.87761114

>  <Name>
ligand

>  <RI>
0

>  <Rbt.Current_Directory>
/home/itssahil/PROJECTS/Mol_Feturizer/New_Systems/rnas/2HOL

>  <Rbt.Executable>
rbdock ($Id: //depot/dev/client3/rdock/2013.1/src/exe/rbdock.cxx#4 $)

>  <Rbt.Library>
libRbt.so (2013.1, Build901 2013/11/27)

>  <Rbt.Parameter_File>
/export/apps/rDock/src/rDock_2013.1_src/data/scripts/dock_solv.prm

>  <Rbt.Receptor>
prm/pocket_docking_5.prm

>  <SCORE>
-7.56694

>  <SCORE.INTER>
-11.5072

>  <SCORE.INTER.CONST>
1

>  <SCORE.INTER.POLAR>
0

>  <SCORE.INTER.ROT>
6

>  <SCORE.INTER.SOLV>
24.7273

>  <SCORE.INTER.VDW>
-23.5139

>  <SCORE.INTER.norm>
-0.442584

>  <SCORE.INTRA>
3.94025

>  <SCORE.INTRA.DIHEDRAL>
3.80629

>  <SCORE.INTRA.DIHEDRAL.0>
9.33621

>  <SCORE.INTRA.POLAR>
0

>  <SCORE.INTRA.POLAR.0>
0

>  <SCORE.INTRA.REPUL>
0

>  <SCORE.INTRA.REPUL.0>
0

>  <SCORE.INTRA.SOLV>
3.38306

>  <SCORE.INTRA.SOLV.lig_0>
-65.9238

>  <SCORE.INTRA.VDW>
0.345573

>  <SCORE.INTRA.VDW.0>
-0.405582

>  <SCORE.INTRA.norm>
0.151548

>  <SCORE.RESTR>
0

>  <SCORE.RESTR.CAVITY>
0

>  <SCORE.RESTR.norm>
0

>  <SCORE.SYSTEM>
0

>  <SCORE.SYSTEM.CONST>
0

>  <SCORE.SYSTEM.DIHEDRAL>
0

>  <SCORE.SYSTEM.SOLV>
0

>  <SCORE.SYSTEM.norm>
0

>  <SCORE.heavy>
26

>  <SCORE.norm>
-0.291036

>  <RMSD>
9.256

$$$$
ligand
 OpenBabel11021811443D
libRbt.so/2013.1/901 2013/11/27
 26 28  0  0  0  0  0  0  0  0999 V2000
   31.6741   40.8284   66.3474 C   0  0  0  0  0  0  0  0  0  0  0  0
   23.9448   37.6431   67.4093 C   0  0  0  0  0  0  0  0  0  0  0  0
   18.7881   40.7686   65.4519 P   0  0  1  0  0  0  0  0  0  0  0  0
   19.5644   43.2339   65.5304 P   0  0  1  0  0  0  0  0  0  0  0  0
   26.4803   38.8342   67.5581 C   0  0  0  0  0  0  0  0  0  0  0  0
   28.3223   40.5227   67.8185 C   0  0  0  0  0  0  0  0  0  0  0  0
   27.8552   39.3609   67.2367 C   0  0  0  0  0  0  0  0  0  0  0  0
   28.6891   38.6864   66.3432 C   0  0  0  0  0  0  0  0  0  0  0  0
   28.2667   37.5154   65.7318 N   0  0  0  0  0  0  0  0  0  0  0  0
   29.8933   39.1865   66.0823 N   0  0  0  0  0  0  0  0  0  0  0  0
   30.3009   40.2959   66.6638 C   0  0  0  0  0  0  0  0  0  0  0  0
   29.5375   40.9569   67.5119 N   0  0  0  0  0  0  0  0  0  0  0  0
   17.4403   40.4004   65.9410 O   0  0  0  0  0  0  0  0  0  0  0  0
   18.6698   43.1223   64.2753 O   0  0  0  0  0  0  0  0  0  0  0  0
   24.4497   40.5160   64.7952 S   0  0  0  0  0  0  0  0  0  0  0  0
   25.8769   40.3028   65.7622 C   0  0  0  0  0  0  0  0  0  0  0  0
   18.6775   41.3431   63.9534 O   0  0  0  0  0  0  0  0  0  0  0  0
   19.1104   44.5073   66.4038 O   0  5  0  0  0  0  0  0  0  0  0  0
   25.5245   39.3228   66.5618 N   0  0  0  0  0  0  0  0  0  0  0  0
   19.4182   41.8959   66.4141 O   0  0  0  0  0  0  0  0  0  0  0  0
   21.0375   43.4063   65.0970 O   0  0  0  0  0  0  0  0  0  0  0  0
   24.3341   38.7688   66.4847 C   0  0  2  0  0  0  0  0  0  0  0  0
   23.4605   39.2387   65.5582 C   0  0  2  0  0  0  0  0  0  0  0  0
   22.0511   38.8023   65.2550 C   0  0  0  0  0  0  0  0  0  0  0  0
   21.0803   39.9375   65.5882 C   0  0  0  0  0  0  0  0  0  0  0  0
   19.7369   39.4675   65.4599 O   0  0  0  0  0  0  0  0  0  0  0  0
  1 11  1  0  0  0  0
  3 13  1  1  0  0  0
  3 17  1  0  0  0  0
  3 20  1  0  0  0  0
  3 26  1  0  0  0  0
  4 14  1  0  0  0  0
  4 18  1  1  0  0  0
  4 21  2  0  0  0  0
  4 20  1  0  0  0  0
  5 19  1  0  0  0  0
  5  7  1  0  0  0  0
  6  7  2  0  0  0  0
  6 12  1  0  0  0  0
  7  8  1  0  0  0  0
  8  9  1  0  0  0  0
  8 10  2  0  0  0  0
 10 11  1  0  0  0  0
 11 12  2  0  0  0  0
 14 17  1  0  0  0  0
 15 23  1  0  0  0  0
 15 16  1  0  0  0  0
 16 19  1  0  0  0  0
 19 22  1  0  0  0  0
 22  2  1  1  0  0  0
 22 23  1  0  0  0  0
 23 24  1  6  0  0  0
 24 25  1  0  0  0  0
 25 26  1  0  0  0  0
M  CHG  1  18  -1
M  END
>  <CHROM.1>
-13.93532432,93.94050362,-65.53365437,-172.80618487,-165.97032712,-154.07937505
23.39182814,40.55847735,65.91271766,-0.23540916,-0.11566845,-0.04937115

>  <Name>
ligand

>  <RI>
0

>  <Rbt.Current_Directory>
/home/itssahil/PROJECTS/Mol_Feturizer/New_Systems/rnas/2HOL

>  <Rbt.Executable>
rbdock ($Id: //depot/dev/client3/rdock/2013.1/src/exe/rbdock.cxx#4 $)

>  <Rbt.Library>
libRbt.so (2013.1, Build901 2013/11/27)

>  <Rbt.Parameter_File>
/export/apps/rDock/src/rDock_2013.1_src/data/scripts/dock_solv.prm

>  <Rbt.Receptor>
prm/pocket_docking_3.prm

>  <SCORE>
-14.0405

>  <SCORE.INTER>
-13.2676

>  <SCORE.INTER.CONST>
1

>  <SCORE.INTER.POLAR>
0

>  <SCORE.INTER.ROT>
6

>  <SCORE.INTER.SOLV>
27.2902

>  <SCORE.INTER.VDW>
-25.5418

>  <SCORE.INTER.norm>
-0.510293

>  <SCORE.INTRA>
-0.772932

>  <SCORE.INTRA.DIHEDRAL>
-2.11608

>  <SCORE.INTRA.DIHEDRAL.0>
9.33621

>  <SCORE.INTRA.POLAR>
0

>  <SCORE.INTRA.POLAR.0>
0

>  <SCORE.INTRA.REPUL>
0

>  <SCORE.INTRA.REPUL.0>
0

>  <SCORE.INTRA.SOLV>
1.16878

>  <SCORE.INTRA.SOLV.lig_0>
-65.9238

>  <SCORE.INTRA.VDW>
-0.299281

>  <SCORE.INTRA.VDW.0>
-0.405582

>  <SCORE.INTRA.norm>
-0.0297282

>  <SCORE.RESTR>
0

>  <SCORE.RESTR.CAVITY>
0

>  <SCORE.RESTR.norm>
0

>  <SCORE.SYSTEM>
0

>  <SCORE.SYSTEM.CONST>
0

>  <SCORE.SYSTEM.DIHEDRAL>
0

>  <SCORE.SYSTEM.SOLV>
0

>  <SCORE.SYSTEM.norm>
0

>  <SCORE.heavy>
26

>  <SCORE.norm>
-0.540021

>  <RMSD>
9.258

$$$$
ligand
 OpenBabel11021811443D
libRbt.so/2013.1/901 2013/11/27
 26 28  0  0  0  0  0  0  0  0999 V2000
   27.1196   37.6007   72.8433 C   0  0  0  0  0  0  0  0  0  0  0  0
   24.1406   39.3794   65.3771 C   0  0  0  0  0  0  0  0  0  0  0  0
   18.8518   41.9376   65.1885 P   0  0  1  0  0  0  0  0  0  0  0  0
   17.2533   40.0903   64.3409 P   0  0  1  0  0  0  0  0  0  0  0  0
   25.2431   37.8781   67.4748 C   0  0  0  0  0  0  0  0  0  0  0  0
   25.4123   36.7385   69.7074 C   0  0  0  0  0  0  0  0  0  0  0  0
   25.7404   37.8060   68.8956 C   0  0  0  0  0  0  0  0  0  0  0  0
   26.5449   38.8169   69.4243 C   0  0  0  0  0  0  0  0  0  0  0  0
   26.9023   39.9107   68.6501 N   0  0  0  0  0  0  0  0  0  0  0  0
   26.9592   38.7186   70.6841 N   0  0  0  0  0  0  0  0  0  0  0  0
   26.6261   37.6797   71.4221 C   0  0  0  0  0  0  0  0  0  0  0  0
   25.8676   36.7084   70.9528 N   0  0  0  0  0  0  0  0  0  0  0  0
   18.3159   43.2646   65.5672 O   0  0  0  0  0  0  0  0  0  0  0  0
   17.1226   40.0751   65.8806 O   0  0  0  0  0  0  0  0  0  0  0  0
   21.4799   38.2397   68.0160 S   0  0  0  0  0  0  0  0  0  0  0  0
   23.0642   37.6781   68.4539 C   0  0  0  0  0  0  0  0  0  0  0  0
   18.6407   40.9059   66.4046 O   0  0  0  0  0  0  0  0  0  0  0  0
   15.7877   40.1178   63.6763 O   0  5  0  0  0  0  0  0  0  0  0  0
   23.8030   38.1448   67.4740 N   0  0  0  0  0  0  0  0  0  0  0  0
   18.0751   41.3978   63.8851 O   0  0  0  0  0  0  0  0  0  0  0  0
   18.0046   38.8222   63.8771 O   0  0  0  0  0  0  0  0  0  0  0  0
   23.2785   38.8491   66.4949 C   0  0  2  0  0  0  0  0  0  0  0  0
   21.9413   39.0815   66.5092 C   0  0  2  0  0  0  0  0  0  0  0  0
   21.0853   39.8409   65.5297 C   0  0  0  0  0  0  0  0  0  0  0  0
   21.1173   41.3326   65.8703 C   0  0  0  0  0  0  0  0  0  0  0  0
   20.4230   42.0663   64.8596 O   0  0  0  0  0  0  0  0  0  0  0  0
  1 11  1  0  0  0  0
  3 13  1  1  0  0  0
  3 17  1  0  0  0  0
  3 20  1  0  0  0  0
  3 26  1  0  0  0  0
  4 14  1  0  0  0  0
  4 18  1  6  0  0  0
  4 21  2  0  0  0  0
  4 20  1  0  0  0  0
  5 19  1  0  0  0  0
  5  7  1  0  0  0  0
  6  7  2  0  0  0  0
  6 12  1  0  0  0  0
  7  8  1  0  0  0  0
  8  9  1  0  0  0  0
  8 10  2  0  0  0  0
 10 11  1  0  0  0  0
 11 12  2  0  0  0  0
 14 17  1  0  0  0  0
 15 23  1  0  0  0  0
 15 16  1  0  0  0  0
 16 19  1  0  0  0  0
 19 22  1  0  0  0  0
 22  2  1  6  0  0  0
 22 23  1  0  0  0  0
 23 24  1  1  0  0  0
 24 25  1  0  0  0  0
 25 26  1  0  0  0  0
M  CHG  1  18  -1
M  END
>  <CHROM.1>
-31.98513474,70.98396916,94.97964261,173.88492715,80.50781551,113.43122076
21.68247904,39.52762838,66.92802204,0.52974413,0.37905385,2.63810019

>  <Name>
ligand

>  <RI>
0

>  <Rbt.Current_Directory>
/home/itssahil/PROJECTS/Mol_Feturizer/New_Systems/rnas/2HOL

>  <Rbt.Executable>
rbdock ($Id: //depot/dev/client3/rdock/2013.1/src/exe/rbdock.cxx#4 $)

>  <Rbt.Library>
libRbt.so (2013.1, Build901 2013/11/27)

>  <Rbt.Parameter_File>
/export/apps/rDock/src/rDock_2013.1_src/data/scripts/dock_solv.prm

>  <Rbt.Receptor>
prm/pocket_docking_5.prm

>  <SCORE>
-18.0196

>  <SCORE.INTER>
-20.4357

>  <SCORE.INTER.CONST>
1

>  <SCORE.INTER.POLAR>
0

>  <SCORE.INTER.ROT>
6

>  <SCORE.INTER.SOLV>
29.4278

>  <SCORE.INTER.VDW>
-31.0331

>  <SCORE.INTER.norm>
-0.785989

>  <SCORE.INTRA>
2.41611

>  <SCORE.INTRA.DIHEDRAL>
-0.206424

>  <SCORE.INTRA.DIHEDRAL.0>
9.33621

>  <SCORE.INTRA.POLAR>
0

>  <SCORE.INTRA.POLAR.0>
0

>  <SCORE.INTRA.REPUL>
0

>  <SCORE.INTRA.REPUL.0>
0

>  <SCORE.INTRA.SOLV>
1.26213

>  <SCORE.INTRA.SOLV.lig_0>
-65.9238

>  <SCORE.INTRA.VDW>
1.88825

>  <SCORE.INTRA.VDW.0>
-0.405582

>  <SCORE.INTRA.norm>
0.0929271

>  <SCORE.RESTR>
0

>  <SCORE.RESTR.CAVITY>
0

>  <SCORE.RESTR.norm>
0

>  <SCORE.SYSTEM>
0

>  <SCORE.SYSTEM.CONST>
0

>  <SCORE.SYSTEM.DIHEDRAL>
0

>  <SCORE.SYSTEM.SOLV>
0

>  <SCORE.SYSTEM.norm>
0

>  <SCORE.heavy>
26

>  <SCORE.norm>
-0.693062

>  <RMSD>
9.260

$$$$
ligand
 OpenBabel11021811443D
libRbt.so/2013.1/901 2013/11/27
 26 28  0  0  0  0  0  0  0  0999 V2000
   31.4444   39.4623   66.5393 C   0  0  0  0  0  0  0  0  0  0  0  0
   23.5008   37.8767   67.9948 C   0  0  0  0  0  0  0  0  0  0  0  0
   18.4522   40.5344   65.4384 P   0  0  1  0  0  0  0  0  0  0  0  0
   19.1437   43.0244   65.3477 P   0  0  1  0  0  0  0  0  0  0  0  0
   26.0024   39.1325   68.1807 C   0  0  0  0  0  0  0  0  0  0  0  0
   28.3406   40.0190   68.4230 C   0  0  0  0  0  0  0  0  0  0  0  0
   27.4426   39.2189   67.7451 C   0  0  0  0  0  0  0  0  0  0  0  0
   27.9026   38.4916   66.6459 C   0  0  0  0  0  0  0  0  0  0  0  0
   27.0403   37.6737   65.9311 N   0  0  0  0  0  0  0  0  0  0  0  0
   29.1794   38.5990   66.2905 N   0  0  0  0  0  0  0  0  0  0  0  0
   30.0034   39.3710   66.9688 C   0  0  0  0  0  0  0  0  0  0  0  0
   29.6004   40.0709   68.0112 N   0  0  0  0  0  0  0  0  0  0  0  0
   17.1015   40.1575   65.9129 O   0  0  0  0  0  0  0  0  0  0  0  0
   18.2960   42.7846   64.0781 O   0  0  0  0  0  0  0  0  0  0  0  0
   24.1962   40.3620   65.0484 S   0  0  0  0  0  0  0  0  0  0  0  0
   25.5385   40.3191   66.1502 C   0  0  0  0  0  0  0  0  0  0  0  0
   18.3731   40.9873   63.8968 O   0  0  0  0  0  0  0  0  0  0  0  0
   18.6189   44.3445   66.1042 O   0  5  0  0  0  0  0  0  0  0  0  0
   25.1295   39.4543   67.0495 N   0  0  0  0  0  0  0  0  0  0  0  0
   19.0120   41.7542   66.3285 O   0  0  0  0  0  0  0  0  0  0  0  0
   20.6241   43.2150   64.9479 O   0  0  0  0  0  0  0  0  0  0  0  0
   23.9557   38.8689   66.9544 C   0  0  2  0  0  0  0  0  0  0  0  0
   23.1589   39.1839   65.9016 C   0  0  2  0  0  0  0  0  0  0  0  0
   21.7847   38.6781   65.5486 C   0  0  0  0  0  0  0  0  0  0  0  0
   20.7608   39.7987   65.7428 C   0  0  0  0  0  0  0  0  0  0  0  0
   19.4425   39.2723   65.5776 O   0  0  0  0  0  0  0  0  0  0  0  0
  1 11  1  0  0  0  0
  3 13  1  1  0  0  0
  3 17  1  0  0  0  0
  3 20  1  0  0  0  0
  3 26  1  0  0  0  0
  4 14  1  0  0  0  0
  4 18  1  1  0  0  0
  4 21  2  0  0  0  0
  4 20  1  0  0  0  0
  5 19  1  0  0  0  0
  5  7  1  0  0  0  0
  6  7  2  0  0  0  0
  6 12  1  0  0  0  0
  7  8  1  0  0  0  0
  8  9  1  0  0  0  0
  8 10  2  0  0  0  0
 10 11  1  0  0  0  0
 11 12  2  0  0  0  0
 14 17  1  0  0  0  0
 15 23  1  0  0  0  0
 15 16  1  0  0  0  0
 16 19  1  0  0  0  0
 19 22  1  0  0  0  0
 22  2  1  1  0  0  0
 22 23  1  0  0  0  0
 23 24  1  6  0  0  0
 24 25  1  0  0  0  0
 25 26  1  0  0  0  0
M  CHG  1  18  -1
M  END
>  <CHROM.1>
-32.19103684,125.36634147,-70.00108179,-172.48945854,-166.63055791,-152.70234296
23.00835937,40.32348392,66.08533480,-0.27603764,-0.13480687,-0.16045994

>  <Name>
ligand

>  <RI>
0

>  <Rbt.Current_Directory>
/home/itssahil/PROJECTS/Mol_Feturizer/New_Systems/rnas/2HOL

>  <Rbt.Executable>
rbdock ($Id: //depot/dev/client3/rdock/2013.1/src/exe/rbdock.cxx#4 $)

>  <Rbt.Library>
libRbt.so (2013.1, Build901 2013/11/27)

>  <Rbt.Parameter_File>
/export/apps/rDock/src/rDock_2013.1_src/data/scripts/dock_solv.prm

>  <Rbt.Receptor>
prm/pocket_docking_2.prm

>  <SCORE>
-11.9708

>  <SCORE.INTER>
-12.9043

>  <SCORE.INTER.CONST>
1

>  <SCORE.INTER.POLAR>
0

>  <SCORE.INTER.ROT>
6

>  <SCORE.INTER.SOLV>
28.7138

>  <SCORE.INTER.VDW>
-25.7741

>  <SCORE.INTER.norm>
-0.496318

>  <SCORE.INTRA>
-0.298923

>  <SCORE.INTRA.DIHEDRAL>
-2.11979

>  <SCORE.INTRA.DIHEDRAL.0>
9.33621

>  <SCORE.INTRA.POLAR>
0

>  <SCORE.INTRA.POLAR.0>
0

>  <SCORE.INTRA.REPUL>
0

>  <SCORE.INTRA.REPUL.0>
0

>  <SCORE.INTRA.SOLV>
3.05787

>  <SCORE.INTRA.SOLV.lig_0>
-65.9238

>  <SCORE.INTRA.VDW>
-0.767961

>  <SCORE.INTRA.VDW.0>
-0.405582

>  <SCORE.INTRA.norm>
-0.011497

>  <SCORE.RESTR>
1.23238

>  <SCORE.RESTR.CAVITY>
1.23238

>  <SCORE.RESTR.norm>
0.0473994

>  <SCORE.SYSTEM>
0

>  <SCORE.SYSTEM.CONST>
0

>  <SCORE.SYSTEM.DIHEDRAL>
0

>  <SCORE.SYSTEM.SOLV>
0

>  <SCORE.SYSTEM.norm>
0

>  <SCORE.heavy>
26

>  <SCORE.norm>
-0.460416

>  <RMSD>
9.270

$$$$
ligand
 OpenBabel11021811443D
libRbt.so/2013.1/901 2013/11/27
 26 28  0  0  0  0  0  0  0  0999 V2000
   31.4128   39.5891   66.4737 C   0  0  0  0  0  0  0  0  0  0  0  0
   25.7160   40.6875   67.9643 C   0  0  0  0  0  0  0  0  0  0  0  0
   20.0643   42.8410   65.2422 P   0  0  1  0  0  0  0  0  0  0  0  0
   18.1334   41.1394   64.9916 P   0  0  1  0  0  0  0  0  0  0  0  0
   26.2028   37.9264   68.0579 C   0  0  0  0  0  0  0  0  0  0  0  0
   28.4256   38.9988   68.5280 C   0  0  0  0  0  0  0  0  0  0  0  0
   27.5815   38.3660   67.6372 C   0  0  0  0  0  0  0  0  0  0  0  0
   28.0379   38.1435   66.3369 C   0  0  0  0  0  0  0  0  0  0  0  0
   27.2284   37.5124   65.4041 N   0  0  0  0  0  0  0  0  0  0  0  0
   29.2590   38.5510   66.0036 N   0  0  0  0  0  0  0  0  0  0  0  0
   30.0333   39.1469   66.8870 C   0  0  0  0  0  0  0  0  0  0  0  0
   29.6321   39.3721   68.1229 N   0  0  0  0  0  0  0  0  0  0  0  0
   20.2783   43.8765   64.2061 O   0  0  0  0  0  0  0  0  0  0  0  0
   17.4791   42.4296   65.5352 O   0  0  0  0  0  0  0  0  0  0  0  0
   23.5500   38.6569   65.4095 S   0  0  0  0  0  0  0  0  0  0  0  0
   24.5796   37.5988   66.3247 C   0  0  0  0  0  0  0  0  0  0  0  0
   18.8922   43.3117   66.2383 O   0  0  0  0  0  0  0  0  0  0  0  0
   17.2934   40.6004   63.7290 O   0  5  0  0  0  0  0  0  0  0  0  0
   25.2145   38.4405   67.1072 N   0  0  0  0  0  0  0  0  0  0  0  0
   19.6453   41.4553   64.5366 O   0  0  0  0  0  0  0  0  0  0  0  0
   18.1435   40.0629   66.1001 O   0  0  0  0  0  0  0  0  0  0  0  0
   24.9795   39.7336   67.0579 C   0  0  2  0  0  0  0  0  0  0  0  0
   24.0636   40.1913   66.1668 C   0  0  2  0  0  0  0  0  0  0  0  0
   23.6050   41.6001   65.8948 C   0  0  0  0  0  0  0  0  0  0  0  0
   22.1496   41.5829   65.4222 C   0  0  0  0  0  0  0  0  0  0  0  0
   21.4247   42.6262   66.0766 O   0  0  0  0  0  0  0  0  0  0  0  0
  1 11  1  0  0  0  0
  3 13  1  6  0  0  0
  3 17  1  0  0  0  0
  3 20  1  0  0  0  0
  3 26  1  0  0  0  0
  4 14  1  0  0  0  0
  4 18  1  6  0  0  0
  4 21  2  0  0  0  0
  4 20  1  0  0  0  0
  5 19  1  0  0  0  0
  5  7  1  0  0  0  0
  6  7  2  0  0  0  0
  6 12  1  0  0  0  0
  7  8  1  0  0  0  0
  8  9  1  0  0  0  0
  8 10  2  0  0  0  0
 10 11  1  0  0  0  0
 11 12  2  0  0  0  0
 14 17  1  0  0  0  0
 15 23  1  0  0  0  0
 15 16  1  0  0  0  0
 16 19  1  0  0  0  0
 19 22  1  0  0  0  0
 22  2  1  6  0  0  0
 22 23  1  0  0  0  0
 23 24  1  1  0  0  0
 24 25  1  0  0  0  0
 25 26  1  0  0  0  0
M  CHG  1  18  -1
M  END
>  <CHROM.1>
111.39703191,128.09939772,29.93386668,136.36668870,163.55542916,-91.30239429
23.31268777,40.35870629,66.03189329,-0.30471978,-0.20549078,0.03238688

>  <Name>
ligand

>  <RI>
0

>  <Rbt.Current_Directory>
/home/itssahil/PROJECTS/Mol_Feturizer/New_Systems/rnas/2HOL

>  <Rbt.Executable>
rbdock ($Id: //depot/dev/client3/rdock/2013.1/src/exe/rbdock.cxx#4 $)

>  <Rbt.Library>
libRbt.so (2013.1, Build901 2013/11/27)

>  <Rbt.Parameter_File>
/export/apps/rDock/src/rDock_2013.1_src/data/scripts/dock_solv.prm

>  <Rbt.Receptor>
prm/pocket_docking_2.prm

>  <SCORE>
-5.42123

>  <SCORE.INTER>
-9.13473

>  <SCORE.INTER.CONST>
1

>  <SCORE.INTER.POLAR>
0

>  <SCORE.INTER.ROT>
6

>  <SCORE.INTER.SOLV>
29.2452

>  <SCORE.INTER.VDW>
-23.4382

>  <SCORE.INTER.norm>
-0.351336

>  <SCORE.INTRA>
2.4955

>  <SCORE.INTRA.DIHEDRAL>
2.643

>  <SCORE.INTRA.DIHEDRAL.0>
9.33621

>  <SCORE.INTRA.POLAR>
0

>  <SCORE.INTRA.POLAR.0>
0

>  <SCORE.INTRA.REPUL>
0

>  <SCORE.INTRA.REPUL.0>
0

>  <SCORE.INTRA.SOLV>
2.63446

>  <SCORE.INTRA.SOLV.lig_0>
-65.9238

>  <SCORE.INTRA.VDW>
-0.143229

>  <SCORE.INTRA.VDW.0>
-0.405582

>  <SCORE.INTRA.norm>
0.0959809

>  <SCORE.RESTR>
1.218

>  <SCORE.RESTR.CAVITY>
1.218

>  <SCORE.RESTR.norm>
0.0468463

>  <SCORE.SYSTEM>
0

>  <SCORE.SYSTEM.CONST>
0

>  <SCORE.SYSTEM.DIHEDRAL>
0

>  <SCORE.SYSTEM.SOLV>
0

>  <SCORE.SYSTEM.norm>
0

>  <SCORE.heavy>
26

>  <SCORE.norm>
-0.208509

>  <RMSD>
9.292

$$$$
ligand
 OpenBabel11021811443D
libRbt.so/2013.1/901 2013/11/27
 26 28  0  0  0  0  0  0  0  0999 V2000
   31.3469   39.4234   67.9431 C   0  0  0  0  0  0  0  0  0  0  0  0
   25.1190   41.1150   64.1827 C   0  0  0  0  0  0  0  0  0  0  0  0
   19.0130   41.9823   65.2563 P   0  0  1  0  0  0  0  0  0  0  0  0
   17.9432   39.7341   64.5580 P   0  0  1  0  0  0  0  0  0  0  0  0
   26.5549   38.8230   64.9274 C   0  0  0  0  0  0  0  0  0  0  0  0
   28.8145   38.0237   65.6805 C   0  0  0  0  0  0  0  0  0  0  0  0
   27.8228   38.9832   65.7262 C   0  0  0  0  0  0  0  0  0  0  0  0
   28.0244   40.1058   66.5310 C   0  0  0  0  0  0  0  0  0  0  0  0
   27.0586   41.0978   66.6118 N   0  0  0  0  0  0  0  0  0  0  0  0
   29.1546   40.2074   67.2242 N   0  0  0  0  0  0  0  0  0  0  0  0
   30.0769   39.2701   67.1475 C   0  0  0  0  0  0  0  0  0  0  0  0
   29.9170   38.1976   66.3970 N   0  0  0  0  0  0  0  0  0  0  0  0
   18.1810   43.2039   65.3413 O   0  0  0  0  0  0  0  0  0  0  0  0
   17.5946   39.9108   66.0531 O   0  0  0  0  0  0  0  0  0  0  0  0
   23.7064   39.3954   67.4060 S   0  0  0  0  0  0  0  0  0  0  0  0
   25.0838   38.5297   66.7971 C   0  0  0  0  0  0  0  0  0  0  0  0
   18.8302   41.1133   66.5976 O   0  0  0  0  0  0  0  0  0  0  0  0
   16.6130   39.3522   63.7364 O   0  5  0  0  0  0  0  0  0  0  0  0
   25.4094   39.2375   65.7403 N   0  0  0  0  0  0  0  0  0  0  0  0
   18.5541   41.1087   63.9836 O   0  0  0  0  0  0  0  0  0  0  0  0
   18.9852   38.6035   64.4041 O   0  0  0  0  0  0  0  0  0  0  0  0
   24.7317   40.3117   65.3987 C   0  0  2  0  0  0  0  0  0  0  0  0
   23.6703   40.6771   66.1618 C   0  0  2  0  0  0  0  0  0  0  0  0
   22.7271   41.8411   66.0056 C   0  0  0  0  0  0  0  0  0  0  0  0
   21.3342   41.3259   65.6364 C   0  0  0  0  0  0  0  0  0  0  0  0
   20.5604   42.3963   65.0909 O   0  0  0  0  0  0  0  0  0  0  0  0
  1 11  1  0  0  0  0
  3 13  1  1  0  0  0
  3 17  1  0  0  0  0
  3 20  1  0  0  0  0
  3 26  1  0  0  0  0
  4 14  1  0  0  0  0
  4 18  1  6  0  0  0
  4 21  2  0  0  0  0
  4 20  1  0  0  0  0
  5 19  1  0  0  0  0
  5  7  1  0  0  0  0
  6  7  2  0  0  0  0
  6 12  1  0  0  0  0
  7  8  1  0  0  0  0
  8  9  1  0  0  0  0
  8 10  2  0  0  0  0
 10 11  1  0  0  0  0
 11 12  2  0  0  0  0
 14 17  1  0  0  0  0
 15 23  1  0  0  0  0
 15 16  1  0  0  0  0
 16 19  1  0  0  0  0
 19 22  1  0  0  0  0
 22  2  1  6  0  0  0
 22 23  1  0  0  0  0
 23 24  1  1  0  0  0
 24 25  1  0  0  0  0
 25 26  1  0  0  0  0
M  CHG  1  18  -1
M  END
>  <CHROM.1>
-66.83549193,138.46619708,-68.19872656,-162.20640877,-158.54963344,152.99678262
23.03903656,40.22457488,65.75012593,-0.10250166,-0.18293872,0.20096480

>  <Name>
ligand

>  <RI>
0

>  <Rbt.Current_Directory>
/home/itssahil/PROJECTS/Mol_Feturizer/New_Systems/rnas/2HOL

>  <Rbt.Executable>
rbdock ($Id: //depot/dev/client3/rdock/2013.1/src/exe/rbdock.cxx#4 $)

>  <Rbt.Library>
libRbt.so (2013.1, Build901 2013/11/27)

>  <Rbt.Parameter_File>
/export/apps/rDock/src/rDock_2013.1_src/data/scripts/dock_solv.prm

>  <Rbt.Receptor>
prm/pocket_docking_2.prm

>  <SCORE>
-8.70586

>  <SCORE.INTER>
-11.2301

>  <SCORE.INTER.CONST>
1

>  <SCORE.INTER.POLAR>
0

>  <SCORE.INTER.ROT>
6

>  <SCORE.INTER.SOLV>
27.7649

>  <SCORE.INTER.VDW>
-24.3417

>  <SCORE.INTER.norm>
-0.431925

>  <SCORE.INTRA>
1.48388

>  <SCORE.INTRA.DIHEDRAL>
-0.0303145

>  <SCORE.INTRA.DIHEDRAL.0>
9.33621

>  <SCORE.INTRA.POLAR>
0

>  <SCORE.INTRA.POLAR.0>
0

>  <SCORE.INTRA.REPUL>
0

>  <SCORE.INTRA.REPUL.0>
0

>  <SCORE.INTRA.SOLV>
4.97987

>  <SCORE.INTRA.SOLV.lig_0>
-65.9238

>  <SCORE.INTRA.VDW>
-0.990899

>  <SCORE.INTRA.VDW.0>
-0.405582

>  <SCORE.INTRA.norm>
0.0570723

>  <SCORE.RESTR>
1.04032

>  <SCORE.RESTR.CAVITY>
1.04032

>  <SCORE.RESTR.norm>
0.0400123

>  <SCORE.SYSTEM>
0

>  <SCORE.SYSTEM.CONST>
0

>  <SCORE.SYSTEM.DIHEDRAL>
0

>  <SCORE.SYSTEM.SOLV>
0

>  <SCORE.SYSTEM.norm>
0

>  <SCORE.heavy>
26

>  <SCORE.norm>
-0.334841

>  <RMSD>
9.323

$$$$
ligand
 OpenBabel11021811443D
libRbt.so/2013.1/901 2013/11/27
 26 28  0  0  0  0  0  0  0  0999 V2000
   31.1025   39.4852   66.9894 C   0  0  0  0  0  0  0  0  0  0  0  0
   23.1650   38.6443   68.3785 C   0  0  0  0  0  0  0  0  0  0  0  0
   19.2822   42.4488   65.3971 P   0  0  1  0  0  0  0  0  0  0  0  0
   17.9704   40.2683   64.9374 P   0  0  1  0  0  0  0  0  0  0  0  0
   25.6368   37.9148   67.2705 C   0  0  0  0  0  0  0  0  0  0  0  0
   27.8553   38.0189   66.0961 C   0  0  0  0  0  0  0  0  0  0  0  0
   27.0834   38.3311   67.1975 C   0  0  0  0  0  0  0  0  0  0  0  0
   27.6769   39.0425   68.2417 C   0  0  0  0  0  0  0  0  0  0  0  0
   26.9447   39.3801   69.3701 N   0  0  0  0  0  0  0  0  0  0  0  0
   28.9574   39.3869   68.1411 N   0  0  0  0  0  0  0  0  0  0  0  0
   29.6559   39.0725   67.0695 C   0  0  0  0  0  0  0  0  0  0  0  0
   29.1251   38.4011   66.0663 N   0  0  0  0  0  0  0  0  0  0  0  0
   19.6877   43.3206   64.2715 O   0  0  0  0  0  0  0  0  0  0  0  0
   16.9220   41.4020   64.8754 O   0  0  0  0  0  0  0  0  0  0  0  0
   23.9490   40.4946   65.0164 S   0  0  0  0  0  0  0  0  0  0  0  0
   25.2411   39.4150   65.4432 C   0  0  0  0  0  0  0  0  0  0  0  0
   17.7452   42.7378   65.7738 O   0  0  0  0  0  0  0  0  0  0  0  0
   17.8183   39.3230   63.6437 O   0  5  0  0  0  0  0  0  0  0  0  0
   24.8089   38.8997   66.5709 N   0  0  0  0  0  0  0  0  0  0  0  0
   19.4487   40.9058   64.9669 O   0  0  0  0  0  0  0  0  0  0  0  0
   17.7452   39.4304   66.2160 O   0  0  0  0  0  0  0  0  0  0  0  0
   23.6481   39.2461   67.0830 C   0  0  2  0  0  0  0  0  0  0  0  0
   22.8975   40.1641   66.4224 C   0  0  2  0  0  0  0  0  0  0  0  0
   21.5512   40.7405   66.7745 C   0  0  0  0  0  0  0  0  0  0  0  0
   21.5067   42.2179   66.3777 C   0  0  0  0  0  0  0  0  0  0  0  0
   20.2147   42.7514   66.6746 O   0  0  0  0  0  0  0  0  0  0  0  0
  1 11  1  0  0  0  0
  3 13  1  6  0  0  0
  3 17  1  0  0  0  0
  3 20  1  0  0  0  0
  3 26  1  0  0  0  0
  4 14  1  0  0  0  0
  4 18  1  6  0  0  0
  4 21  2  0  0  0  0
  4 20  1  0  0  0  0
  5 19  1  0  0  0  0
  5  7  1  0  0  0  0
  6  7  2  0  0  0  0
  6 12  1  0  0  0  0
  7  8  1  0  0  0  0
  8  9  1  0  0  0  0
  8 10  2  0  0  0  0
 10 11  1  0  0  0  0
 11 12  2  0  0  0  0
 14 17  1  0  0  0  0
 15 23  1  0  0  0  0
 15 16  1  0  0  0  0
 16 19  1  0  0  0  0
 19 22  1  0  0  0  0
 22  2  1  1  0  0  0
 22 23  1  0  0  0  0
 23 24  1  6  0  0  0
 24 25  1  0  0  0  0
 25 26  1  0  0  0  0
M  CHG  1  18  -1
M  END
>  <CHROM.1>
40.15316455,-84.03261852,-36.88690783,178.20901414,-86.50885369,-71.78469109
22.76950611,40.25440198,66.15556277,-0.26631791,-0.16841632,-0.14577564

>  <Name>
ligand

>  <RI>
0

>  <Rbt.Current_Directory>
/home/itssahil/PROJECTS/Mol_Feturizer/New_Systems/rnas/2HOL

>  <Rbt.Executable>
rbdock ($Id: //depot/dev/client3/rdock/2013.1/src/exe/rbdock.cxx#4 $)

>  <Rbt.Library>
libRbt.so (2013.1, Build901 2013/11/27)

>  <Rbt.Parameter_File>
/export/apps/rDock/src/rDock_2013.1_src/data/scripts/dock_solv.prm

>  <Rbt.Receptor>
prm/pocket_docking_2.prm

>  <SCORE>
-11.8465

>  <SCORE.INTER>
-12.4243

>  <SCORE.INTER.CONST>
1

>  <SCORE.INTER.POLAR>
0

>  <SCORE.INTER.ROT>
6

>  <SCORE.INTER.SOLV>
29.047

>  <SCORE.INTER.VDW>
-25.5652

>  <SCORE.INTER.norm>
-0.477857

>  <SCORE.INTRA>
0.078283

>  <SCORE.INTRA.DIHEDRAL>
-1.20669

>  <SCORE.INTRA.DIHEDRAL.0>
9.33621

>  <SCORE.INTRA.POLAR>
0

>  <SCORE.INTRA.POLAR.0>
0

>  <SCORE.INTRA.REPUL>
0

>  <SCORE.INTRA.REPUL.0>
0

>  <SCORE.INTRA.SOLV>
1.79627

>  <SCORE.INTRA.SOLV.lig_0>
-65.9238

>  <SCORE.INTRA.VDW>
-0.216509

>  <SCORE.INTRA.VDW.0>
-0.405582

>  <SCORE.INTRA.norm>
0.00301088

>  <SCORE.RESTR>
0.499461

>  <SCORE.RESTR.CAVITY>
0.499461

>  <SCORE.RESTR.norm>
0.0192101

>  <SCORE.SYSTEM>
0

>  <SCORE.SYSTEM.CONST>
0

>  <SCORE.SYSTEM.DIHEDRAL>
0

>  <SCORE.SYSTEM.SOLV>
0

>  <SCORE.SYSTEM.norm>
0

>  <SCORE.heavy>
26

>  <SCORE.norm>
-0.455636

>  <RMSD>
9.329

$$$$
ligand
 OpenBabel11021811443D
libRbt.so/2013.1/901 2013/11/27
 26 28  0  0  0  0  0  0  0  0999 V2000
   30.7476   39.3126   67.5804 C   0  0  0  0  0  0  0  0  0  0  0  0
   23.1255   38.7667   67.0578 C   0  0  0  0  0  0  0  0  0  0  0  0
   19.0534   40.4281   65.8910 P   0  0  1  0  0  0  0  0  0  0  0  0
   17.0433   39.5915   64.4960 P   0  0  1  0  0  0  0  0  0  0  0  0
   25.4889   38.4275   65.5851 C   0  0  0  0  0  0  0  0  0  0  0  0
   27.9885   38.2611   65.3954 C   0  0  0  0  0  0  0  0  0  0  0  0
   26.8802   38.6623   66.1145 C   0  0  0  0  0  0  0  0  0  0  0  0
   27.0812   39.2915   67.3443 C   0  0  0  0  0  0  0  0  0  0  0  0
   26.0010   39.7129   68.1053 N   0  0  0  0  0  0  0  0  0  0  0  0
   28.3244   39.4757   67.7787 N   0  0  0  0  0  0  0  0  0  0  0  0
   29.3538   39.0812   67.0577 C   0  0  0  0  0  0  0  0  0  0  0  0
   29.1979   38.4839   65.8924 N   0  0  0  0  0  0  0  0  0  0  0  0
   19.6188   39.5754   66.9610 O   0  0  0  0  0  0  0  0  0  0  0  0
   18.2852   38.9048   63.8841 O   0  0  0  0  0  0  0  0  0  0  0  0
   24.0982   41.9293   64.9616 S   0  0  0  0  0  0  0  0  0  0  0  0
   25.2587   40.6568   64.7348 C   0  0  0  0  0  0  0  0  0  0  0  0
   19.6343   39.9584   64.4663 O   0  0  0  0  0  0  0  0  0  0  0  0
   15.8963   38.4937   64.7602 O   0  5  0  0  0  0  0  0  0  0  0  0
   24.7767   39.7043   65.4991 N   0  0  0  0  0  0  0  0  0  0  0  0
   17.4488   40.2914   65.8882 O   0  0  0  0  0  0  0  0  0  0  0  0
   16.5141   40.6626   63.5161 O   0  0  0  0  0  0  0  0  0  0  0  0
   23.6672   39.8709   66.1854 C   0  0  2  0  0  0  0  0  0  0  0  0
   23.0241   41.0630   66.0965 C   0  0  2  0  0  0  0  0  0  0  0  0
   21.7561   41.5254   66.7652 C   0  0  0  0  0  0  0  0  0  0  0  0
   20.8100   42.1156   65.7171 C   0  0  0  0  0  0  0  0  0  0  0  0
   19.4588   41.9637   66.1568 O   0  0  0  0  0  0  0  0  0  0  0  0
  1 11  1  0  0  0  0
  3 13  1  1  0  0  0
  3 17  1  0  0  0  0
  3 20  1  0  0  0  0
  3 26  1  0  0  0  0
  4 14  1  0  0  0  0
  4 18  1  1  0  0  0
  4 21  2  0  0  0  0
  4 20  1  0  0  0  0
  5 19  1  0  0  0  0
  5  7  1  0  0  0  0
  6  7  2  0  0  0  0
  6 12  1  0  0  0  0
  7  8  1  0  0  0  0
  8  9  1  0  0  0  0
  8 10  2  0  0  0  0
 10 11  1  0  0  0  0
 11 12  2  0  0  0  0
 14 17  1  0  0  0  0
 15 23  1  0  0  0  0
 15 16  1  0  0  0  0
 16 19  1  0  0  0  0
 19 22  1  0  0  0  0
 22  2  1  1  0  0  0
 22 23  1  0  0  0  0
 23 24  1  6  0  0  0
 24 25  1  0  0  0  0
 25 26  1  0  0  0  0
M  CHG  1  18  -1
M  END
>  <CHROM.1>
60.07486036,-123.10102906,50.14547491,152.54768169,-77.51927358,78.89547055
22.48090726,39.96667407,65.79082916,0.04853259,0.17280666,-3.01917802

>  <Name>
ligand

>  <RI>
0

>  <Rbt.Current_Directory>
/home/itssahil/PROJECTS/Mol_Feturizer/New_Systems/rnas/2HOL

>  <Rbt.Executable>
rbdock ($Id: //depot/dev/client3/rdock/2013.1/src/exe/rbdock.cxx#4 $)

>  <Rbt.Library>
libRbt.so (2013.1, Build901 2013/11/27)

>  <Rbt.Parameter_File>
/export/apps/rDock/src/rDock_2013.1_src/data/scripts/dock_solv.prm

>  <Rbt.Receptor>
prm/pocket_docking_2.prm

>  <SCORE>
-8.8238

>  <SCORE.INTER>
-10.2703

>  <SCORE.INTER.CONST>
1

>  <SCORE.INTER.POLAR>
0

>  <SCORE.INTER.ROT>
6

>  <SCORE.INTER.SOLV>
29.1912

>  <SCORE.INTER.VDW>
-24.1772

>  <SCORE.INTER.norm>
-0.39501

>  <SCORE.INTRA>
1.05455

>  <SCORE.INTRA.DIHEDRAL>
0.133375

>  <SCORE.INTRA.DIHEDRAL.0>
9.33621

>  <SCORE.INTRA.POLAR>
0

>  <SCORE.INTRA.POLAR.0>
0

>  <SCORE.INTRA.REPUL>
0

>  <SCORE.INTRA.REPUL.0>
0

>  <SCORE.INTRA.SOLV>
4.02259

>  <SCORE.INTRA.SOLV.lig_0>
-65.9238

>  <SCORE.INTRA.VDW>
-1.02343

>  <SCORE.INTRA.VDW.0>
-0.405582

>  <SCORE.INTRA.norm>
0.0405595

>  <SCORE.RESTR>
0.391904

>  <SCORE.RESTR.CAVITY>
0.391904

>  <SCORE.RESTR.norm>
0.0150732

>  <SCORE.SYSTEM>
0

>  <SCORE.SYSTEM.CONST>
0

>  <SCORE.SYSTEM.DIHEDRAL>
0

>  <SCORE.SYSTEM.SOLV>
0

>  <SCORE.SYSTEM.norm>
0

>  <SCORE.heavy>
26

>  <SCORE.norm>
-0.339377

>  <RMSD>
9.333

$$$$
ligand
 OpenBabel11021811443D
libRbt.so/2013.1/901 2013/11/27
 26 28  0  0  0  0  0  0  0  0999 V2000
   30.9682   42.2947   66.3532 C   0  0  0  0  0  0  0  0  0  0  0  0
   25.7078   37.7009   69.3155 C   0  0  0  0  0  0  0  0  0  0  0  0
   20.6949   40.1278   65.6811 P   0  0  1  0  0  0  0  0  0  0  0  0
   18.1987   40.4554   65.0909 P   0  0  1  0  0  0  0  0  0  0  0  0
   27.8276   37.6807   67.4783 C   0  0  0  0  0  0  0  0  0  0  0  0
   28.2876   40.1445   67.6505 C   0  0  0  0  0  0  0  0  0  0  0  0
   28.6598   38.9011   67.1796 C   0  0  0  0  0  0  0  0  0  0  0  0
   29.8270   38.8031   66.4201 C   0  0  0  0  0  0  0  0  0  0  0  0
   30.2439   37.5770   65.9236 N   0  0  0  0  0  0  0  0  0  0  0  0
   30.5307   39.9043   66.1746 N   0  0  0  0  0  0  0  0  0  0  0  0
   30.1414   41.0704   66.6476 C   0  0  0  0  0  0  0  0  0  0  0  0
   29.0440   41.1967   67.3679 N   0  0  0  0  0  0  0  0  0  0  0  0
   21.7363   40.8671   64.9324 O   0  0  0  0  0  0  0  0  0  0  0  0
   18.5779   41.6682   65.9704 O   0  0  0  0  0  0  0  0  0  0  0  0
   24.5424   38.2535   65.6170 S   0  0  0  0  0  0  0  0  0  0  0  0
   26.2660   38.0538   65.6983 C   0  0  0  0  0  0  0  0  0  0  0  0
   20.0668   41.0830   66.8129 O   0  0  0  0  0  0  0  0  0  0  0  0
   17.4341   40.9662   63.7699 O   0  5  0  0  0  0  0  0  0  0  0  0
   26.4639   37.8864   66.9855 N   0  0  0  0  0  0  0  0  0  0  0  0
   19.5341   39.6622   64.6665 O   0  0  0  0  0  0  0  0  0  0  0  0
   17.2713   39.5122   65.8896 O   0  0  0  0  0  0  0  0  0  0  0  0
   25.4643   37.8959   67.8402 C   0  0  2  0  0  0  0  0  0  0  0  0
   24.2083   38.0930   67.3648 C   0  0  2  0  0  0  0  0  0  0  0  0
   22.8975   38.1551   68.1042 C   0  0  0  0  0  0  0  0  0  0  0  0
   22.0429   39.2911   67.5375 C   0  0  0  0  0  0  0  0  0  0  0  0
   21.3502   38.8311   66.3753 O   0  0  0  0  0  0  0  0  0  0  0  0
  1 11  1  0  0  0  0
  3 13  1  6  0  0  0
  3 17  1  0  0  0  0
  3 20  1  0  0  0  0
  3 26  1  0  0  0  0
  4 14  1  0  0  0  0
  4 18  1  6  0  0  0
  4 21  2  0  0  0  0
  4 20  1  0  0  0  0
  5 19  1  0  0  0  0
  5  7  1  0  0  0  0
  6  7  2  0  0  0  0
  6 12  1  0  0  0  0
  7  8  1  0  0  0  0
  8  9  1  0  0  0  0
  8 10  2  0  0  0  0
 10 11  1  0  0  0  0
 11 12  2  0  0  0  0
 14 17  1  0  0  0  0
 15 23  1  0  0  0  0
 15 16  1  0  0  0  0
 16 19  1  0  0  0  0
 19 22  1  0  0  0  0
 22  2  1  1  0  0  0
 22 23  1  0  0  0  0
 23 24  1  6  0  0  0
 24 25  1  0  0  0  0
 25 26  1  0  0  0  0
M  CHG  1  18  -1
M  END
>  <CHROM.1>
62.71623129,57.57023316,-42.00028885,83.40099913,-169.81728813,78.05406427
23.87256500,39.52765093,66.32361868,-0.13949298,-0.08439806,-0.46212611

>  <Name>
ligand

>  <RI>
0

>  <Rbt.Current_Directory>
/home/itssahil/PROJECTS/Mol_Feturizer/New_Systems/rnas/2HOL

>  <Rbt.Executable>
rbdock ($Id: //depot/dev/client3/rdock/2013.1/src/exe/rbdock.cxx#4 $)

>  <Rbt.Library>
libRbt.so (2013.1, Build901 2013/11/27)

>  <Rbt.Parameter_File>
/export/apps/rDock/src/rDock_2013.1_src/data/scripts/dock_solv.prm

>  <Rbt.Receptor>
prm/pocket_docking_4.prm

>  <SCORE>
-16.7496

>  <SCORE.INTER>
-14.0771

>  <SCORE.INTER.CONST>
1

>  <SCORE.INTER.POLAR>
0

>  <SCORE.INTER.ROT>
6

>  <SCORE.INTER.SOLV>
26.8522

>  <SCORE.INTER.VDW>
-25.9355

>  <SCORE.INTER.norm>
-0.541427

>  <SCORE.INTRA>
-2.67248

>  <SCORE.INTRA.DIHEDRAL>
-1.48912

>  <SCORE.INTRA.DIHEDRAL.0>
9.33621

>  <SCORE.INTRA.POLAR>
0

>  <SCORE.INTRA.POLAR.0>
0

>  <SCORE.INTRA.REPUL>
0

>  <SCORE.INTRA.REPUL.0>
0

>  <SCORE.INTRA.SOLV>
-0.613313

>  <SCORE.INTRA.SOLV.lig_0>
-65.9238

>  <SCORE.INTRA.VDW>
-1.62127

>  <SCORE.INTRA.VDW.0>
-0.405582

>  <SCORE.INTRA.norm>
-0.102788

>  <SCORE.RESTR>
0

>  <SCORE.RESTR.CAVITY>
0

>  <SCORE.RESTR.norm>
0

>  <SCORE.SYSTEM>
0

>  <SCORE.SYSTEM.CONST>
0

>  <SCORE.SYSTEM.DIHEDRAL>
0

>  <SCORE.SYSTEM.SOLV>
0

>  <SCORE.SYSTEM.norm>
0

>  <SCORE.heavy>
26

>  <SCORE.norm>
-0.644214

>  <RMSD>
9.355

$$$$
ligand
 OpenBabel11021811443D
libRbt.so/2013.1/901 2013/11/27
 26 28  0  0  0  0  0  0  0  0999 V2000
   31.3391   38.8831   66.7743 C   0  0  0  0  0  0  0  0  0  0  0  0
   23.7144   37.7557   67.1233 C   0  0  0  0  0  0  0  0  0  0  0  0
   19.5073   41.1405   65.4319 P   0  0  1  0  0  0  0  0  0  0  0  0
   17.2891   40.3438   64.3682 P   0  0  1  0  0  0  0  0  0  0  0  0
   25.8007   39.4245   67.9788 C   0  0  0  0  0  0  0  0  0  0  0  0
   27.8245   38.0408   67.4301 C   0  0  0  0  0  0  0  0  0  0  0  0
   27.2668   39.2827   67.6602 C   0  0  0  0  0  0  0  0  0  0  0  0
   28.0955   40.4038   67.5899 C   0  0  0  0  0  0  0  0  0  0  0  0
   27.5841   41.6735   67.8135 N   0  0  0  0  0  0  0  0  0  0  0  0
   29.3848   40.2360   67.3109 N   0  0  0  0  0  0  0  0  0  0  0  0
   29.8745   39.0326   67.0934 C   0  0  0  0  0  0  0  0  0  0  0  0
   29.1186   37.9537   67.1526 N   0  0  0  0  0  0  0  0  0  0  0  0
   19.5920   42.4827   66.0508 O   0  0  0  0  0  0  0  0  0  0  0  0
   17.1201   40.1250   65.8886 O   0  0  0  0  0  0  0  0  0  0  0  0
   24.2791   40.8386   64.7741 S   0  0  0  0  0  0  0  0  0  0  0  0
   25.4043   40.8560   66.0974 C   0  0  0  0  0  0  0  0  0  0  0  0
   18.8325   40.1123   66.4689 O   0  0  0  0  0  0  0  0  0  0  0  0
   16.0018   41.1170   63.7890 O   0  5  0  0  0  0  0  0  0  0  0  0
   25.0672   39.7739   66.7603 N   0  0  0  0  0  0  0  0  0  0  0  0
   18.6112   41.2217   64.0962 O   0  0  0  0  0  0  0  0  0  0  0  0
   17.4263   38.9748   63.6648 O   0  0  0  0  0  0  0  0  0  0  0  0
   24.0886   38.9960   66.3516 C   0  0  2  0  0  0  0  0  0  0  0  0
   23.4175   39.3392   65.2228 C   0  0  2  0  0  0  0  0  0  0  0  0
   22.2690   38.6467   64.5371 C   0  0  0  0  0  0  0  0  0  0  0  0
   20.9454   39.2004   65.0695 C   0  0  0  0  0  0  0  0  0  0  0  0
   20.9864   40.6287   65.0533 O   0  0  0  0  0  0  0  0  0  0  0  0
  1 11  1  0  0  0  0
  3 13  1  1  0  0  0
  3 17  1  0  0  0  0
  3 20  1  0  0  0  0
  3 26  1  0  0  0  0
  4 14  1  0  0  0  0
  4 18  1  6  0  0  0
  4 21  2  0  0  0  0
  4 20  1  0  0  0  0
  5 19  1  0  0  0  0
  5  7  1  0  0  0  0
  6  7  2  0  0  0  0
  6 12  1  0  0  0  0
  7  8  1  0  0  0  0
  8  9  1  0  0  0  0
  8 10  2  0  0  0  0
 10 11  1  0  0  0  0
 11 12  2  0  0  0  0
 14 17  1  0  0  0  0
 15 23  1  0  0  0  0
 15 16  1  0  0  0  0
 16 19  1  0  0  0  0
 19 22  1  0  0  0  0
 22  2  1  1  0  0  0
 22 23  1  0  0  0  0
 23 24  1  6  0  0  0
 24 25  1  0  0  0  0
 25 26  1  0  0  0  0
M  CHG  1  18  -1
M  END
>  <CHROM.1>
-57.52232586,-97.59813148,-88.95986433,48.59461118,172.52015744,153.36432494
22.86044473,40.01180886,65.85516306,0.09039199,0.23192736,-3.07776657

>  <Name>
ligand

>  <RI>
0

>  <Rbt.Current_Directory>
/home/itssahil/PROJECTS/Mol_Feturizer/New_Systems/rnas/2HOL

>  <Rbt.Executable>
rbdock ($Id: //depot/dev/client3/rdock/2013.1/src/exe/rbdock.cxx#4 $)

>  <Rbt.Library>
libRbt.so (2013.1, Build901 2013/11/27)

>  <Rbt.Parameter_File>
/export/apps/rDock/src/rDock_2013.1_src/data/scripts/dock_solv.prm

>  <Rbt.Receptor>
prm/pocket_docking_4.prm

>  <SCORE>
-15.9073

>  <SCORE.INTER>
-13.8583

>  <SCORE.INTER.CONST>
1

>  <SCORE.INTER.POLAR>
0

>  <SCORE.INTER.ROT>
6

>  <SCORE.INTER.SOLV>
28.6984

>  <SCORE.INTER.VDW>
-26.405

>  <SCORE.INTER.norm>
-0.533011

>  <SCORE.INTRA>
-2.04901

>  <SCORE.INTRA.DIHEDRAL>
-2.70486

>  <SCORE.INTRA.DIHEDRAL.0>
9.33621

>  <SCORE.INTRA.POLAR>
0

>  <SCORE.INTRA.POLAR.0>
0

>  <SCORE.INTRA.REPUL>
0

>  <SCORE.INTRA.REPUL.0>
0

>  <SCORE.INTRA.SOLV>
1.49158

>  <SCORE.INTRA.SOLV.lig_0>
-65.9238

>  <SCORE.INTRA.VDW>
-1.44237

>  <SCORE.INTRA.VDW.0>
-0.405582

>  <SCORE.INTRA.norm>
-0.0788081

>  <SCORE.RESTR>
0

>  <SCORE.RESTR.CAVITY>
0

>  <SCORE.RESTR.norm>
0

>  <SCORE.SYSTEM>
0

>  <SCORE.SYSTEM.CONST>
0

>  <SCORE.SYSTEM.DIHEDRAL>
0

>  <SCORE.SYSTEM.SOLV>
0

>  <SCORE.SYSTEM.norm>
0

>  <SCORE.heavy>
26

>  <SCORE.norm>
-0.611819

>  <RMSD>
9.360

$$$$
ligand
 OpenBabel11021811443D
libRbt.so/2013.1/901 2013/11/27
 26 28  0  0  0  0  0  0  0  0999 V2000
   26.9905   37.3921   73.3094 C   0  0  0  0  0  0  0  0  0  0  0  0
   21.9389   38.3720   67.6037 C   0  0  0  0  0  0  0  0  0  0  0  0
   18.8394   41.9611   65.2161 P   0  0  1  0  0  0  0  0  0  0  0  0
   17.3698   40.0100   64.3676 P   0  0  1  0  0  0  0  0  0  0  0  0
   24.5955   37.6560   68.1506 C   0  0  0  0  0  0  0  0  0  0  0  0
   26.3008   38.3913   69.8427 C   0  0  0  0  0  0  0  0  0  0  0  0
   25.2285   37.5851   69.5164 C   0  0  0  0  0  0  0  0  0  0  0  0
   24.7453   36.7026   70.4841 C   0  0  0  0  0  0  0  0  0  0  0  0
   23.6707   35.8711   70.2059 N   0  0  0  0  0  0  0  0  0  0  0  0
   25.3346   36.6666   71.6756 N   0  0  0  0  0  0  0  0  0  0  0  0
   26.3527   37.4574   71.9462 C   0  0  0  0  0  0  0  0  0  0  0  0
   26.8330   38.3017   71.0543 N   0  0  0  0  0  0  0  0  0  0  0  0
   18.2211   43.2649   65.5468 O   0  0  0  0  0  0  0  0  0  0  0  0
   17.1937   40.0225   65.9028 O   0  0  0  0  0  0  0  0  0  0  0  0
   24.4228   41.3922   67.3782 S   0  0  0  0  0  0  0  0  0  0  0  0
   25.2635   39.9306   67.7958 C   0  0  0  0  0  0  0  0  0  0  0  0
   18.6479   40.9471   66.4502 O   0  0  0  0  0  0  0  0  0  0  0  0
   15.9256   39.9419   63.6604 O   0  5  0  0  0  0  0  0  0  0  0  0
   24.2894   39.0509   67.8257 N   0  0  0  0  0  0  0  0  0  0  0  0
   18.1328   41.3501   63.9042 O   0  0  0  0  0  0  0  0  0  0  0  0
   18.2025   38.7751   63.9565 O   0  0  0  0  0  0  0  0  0  0  0  0
   23.0465   39.3945   67.5667 C   0  0  2  0  0  0  0  0  0  0  0  0
   22.7821   40.6929   67.2725 C   0  0  2  0  0  0  0  0  0  0  0  0
   21.4712   41.3583   66.9443 C   0  0  0  0  0  0  0  0  0  0  0  0
   21.0851   41.0438   65.4972 C   0  0  0  0  0  0  0  0  0  0  0  0
   20.4105   42.1685   64.9298 O   0  0  0  0  0  0  0  0  0  0  0  0
  1 11  1  0  0  0  0
  3 13  1  1  0  0  0
  3 17  1  0  0  0  0
  3 20  1  0  0  0  0
  3 26  1  0  0  0  0
  4 14  1  0  0  0  0
  4 18  1  6  0  0  0
  4 21  2  0  0  0  0
  4 20  1  0  0  0  0
  5 19  1  0  0  0  0
  5  7  1  0  0  0  0
  6  7  2  0  0  0  0
  6 12  1  0  0  0  0
  7  8  1  0  0  0  0
  8  9  1  0  0  0  0
  8 10  2  0  0  0  0
 10 11  1  0  0  0  0
 11 12  2  0  0  0  0
 14 17  1  0  0  0  0
 15 23  1  0  0  0  0
 15 16  1  0  0  0  0
 16 19  1  0  0  0  0
 19 22  1  0  0  0  0
 22  2  1  1  0  0  0
 22 23  1  0  0  0  0
 23 24  1  6  0  0  0
 24 25  1  0  0  0  0
 25 26  1  0  0  0  0
M  CHG  1  18  -1
M  END
>  <CHROM.1>
59.11214423,-50.70076125,102.27493632,-145.64690599,-90.53436970,141.39362817
21.75397391,39.72858576,67.24666600,0.56480072,0.45623980,2.66879903

>  <Name>
ligand

>  <RI>
0

>  <Rbt.Current_Directory>
/home/itssahil/PROJECTS/Mol_Feturizer/New_Systems/rnas/2HOL

>  <Rbt.Executable>
rbdock ($Id: //depot/dev/client3/rdock/2013.1/src/exe/rbdock.cxx#4 $)

>  <Rbt.Library>
libRbt.so (2013.1, Build901 2013/11/27)

>  <Rbt.Parameter_File>
/export/apps/rDock/src/rDock_2013.1_src/data/scripts/dock_solv.prm

>  <Rbt.Receptor>
prm/blind_docking_100.prm

>  <SCORE>
-14.7289

>  <SCORE.INTER>
-17.8322

>  <SCORE.INTER.CONST>
1

>  <SCORE.INTER.POLAR>
0

>  <SCORE.INTER.ROT>
6

>  <SCORE.INTER.SOLV>
31.0094

>  <SCORE.INTER.VDW>
-29.8246

>  <SCORE.INTER.norm>
-0.685853

>  <SCORE.INTRA>
3.10326

>  <SCORE.INTRA.DIHEDRAL>
4.14419

>  <SCORE.INTRA.DIHEDRAL.0>
9.33621

>  <SCORE.INTRA.POLAR>
0

>  <SCORE.INTRA.POLAR.0>
0

>  <SCORE.INTRA.REPUL>
0

>  <SCORE.INTRA.REPUL.0>
0

>  <SCORE.INTRA.SOLV>
0.879756

>  <SCORE.INTRA.SOLV.lig_0>
-65.9238

>  <SCORE.INTRA.VDW>
0.591288

>  <SCORE.INTRA.VDW.0>
-0.405582

>  <SCORE.INTRA.norm>
0.119356

>  <SCORE.RESTR>
0

>  <SCORE.RESTR.CAVITY>
0

>  <SCORE.RESTR.norm>
0

>  <SCORE.SYSTEM>
0

>  <SCORE.SYSTEM.CONST>
0

>  <SCORE.SYSTEM.DIHEDRAL>
0

>  <SCORE.SYSTEM.SOLV>
0

>  <SCORE.SYSTEM.norm>
0

>  <SCORE.heavy>
26

>  <SCORE.norm>
-0.566497

>  <RMSD>
9.365

$$$$
ligand
 OpenBabel11021811443D
libRbt.so/2013.1/901 2013/11/27
 26 28  0  0  0  0  0  0  0  0999 V2000
   29.0408   39.7528   70.6055 C   0  0  0  0  0  0  0  0  0  0  0  0
   24.2517   41.1046   66.2559 C   0  0  0  0  0  0  0  0  0  0  0  0
   19.1089   41.4391   65.2219 P   0  0  1  0  0  0  0  0  0  0  0  0
   17.2204   39.8720   64.4066 P   0  0  1  0  0  0  0  0  0  0  0  0
   26.5771   39.7450   65.4725 C   0  0  0  0  0  0  0  0  0  0  0  0
   27.1084   40.8322   67.6742 C   0  0  0  0  0  0  0  0  0  0  0  0
   27.2298   39.7457   66.8308 C   0  0  0  0  0  0  0  0  0  0  0  0
   27.9723   38.6477   67.2685 C   0  0  0  0  0  0  0  0  0  0  0  0
   28.1248   37.5320   66.4589 N   0  0  0  0  0  0  0  0  0  0  0  0
   28.5368   38.6894   68.4718 N   0  0  0  0  0  0  0  0  0  0  0  0
   28.3913   39.7449   69.2464 C   0  0  0  0  0  0  0  0  0  0  0  0
   27.6966   40.7981   68.8625 N   0  0  0  0  0  0  0  0  0  0  0  0
   18.8461   42.8849   65.4012 O   0  0  0  0  0  0  0  0  0  0  0  0
   16.9648   40.0761   65.9169 O   0  0  0  0  0  0  0  0  0  0  0  0
   23.6250   37.3221   65.4545 S   0  0  0  0  0  0  0  0  0  0  0  0
   25.2983   37.7318   65.2317 C   0  0  0  0  0  0  0  0  0  0  0  0
   18.5796   40.6331   66.5095 O   0  0  0  0  0  0  0  0  0  0  0  0
   15.8551   40.1195   63.5910 O   0  5  0  0  0  0  0  0  0  0  0  0
   25.3129   39.0085   65.5381 N   0  0  0  0  0  0  0  0  0  0  0  0
   18.3418   40.9139   63.9068 O   0  0  0  0  0  0  0  0  0  0  0  0
   17.7125   38.4282   64.1598 O   0  0  0  0  0  0  0  0  0  0  0  0
   24.2184   39.6383   65.9058 C   0  0  2  0  0  0  0  0  0  0  0  0
   23.0557   38.9397   65.9557 C   0  0  2  0  0  0  0  0  0  0  0  0
   21.6716   39.3992   66.3326 C   0  0  0  0  0  0  0  0  0  0  0  0
   20.8977   39.7837   65.0696 C   0  0  0  0  0  0  0  0  0  0  0  0
   20.6917   41.1976   65.0499 O   0  0  0  0  0  0  0  0  0  0  0  0
  1 11  1  0  0  0  0
  3 13  1  1  0  0  0
  3 17  1  0  0  0  0
  3 20  1  0  0  0  0
  3 26  1  0  0  0  0
  4 14  1  0  0  0  0
  4 18  1  6  0  0  0
  4 21  2  0  0  0  0
  4 20  1  0  0  0  0
  5 19  1  0  0  0  0
  5  7  1  0  0  0  0
  6  7  2  0  0  0  0
  6 12  1  0  0  0  0
  7  8  1  0  0  0  0
  8  9  1  0  0  0  0
  8 10  2  0  0  0  0
 10 11  1  0  0  0  0
 11 12  2  0  0  0  0
 14 17  1  0  0  0  0
 15 23  1  0  0  0  0
 15 16  1  0  0  0  0
 16 19  1  0  0  0  0
 19 22  1  0  0  0  0
 22  2  1  6  0  0  0
 22 23  1  0  0  0  0
 23 24  1  1  0  0  0
 24 25  1  0  0  0  0
 25 26  1  0  0  0  0
M  CHG  1  18  -1
M  END
>  <CHROM.1>
-93.67438958,-98.61912750,-85.49420452,-111.07053214,-112.84560103,172.08510504
22.52928373,39.78085600,65.98810355,0.05544488,-0.31482580,0.54495491

>  <Name>
ligand

>  <RI>
0

>  <Rbt.Current_Directory>
/home/itssahil/PROJECTS/Mol_Feturizer/New_Systems/rnas/2HOL

>  <Rbt.Executable>
rbdock ($Id: //depot/dev/client3/rdock/2013.1/src/exe/rbdock.cxx#4 $)

>  <Rbt.Library>
libRbt.so (2013.1, Build901 2013/11/27)

>  <Rbt.Parameter_File>
/export/apps/rDock/src/rDock_2013.1_src/data/scripts/dock_solv.prm

>  <Rbt.Receptor>
prm/pocket_docking_2.prm

>  <SCORE>
-8.67645

>  <SCORE.INTER>
-13.1258

>  <SCORE.INTER.CONST>
1

>  <SCORE.INTER.POLAR>
0

>  <SCORE.INTER.ROT>
6

>  <SCORE.INTER.SOLV>
29.8099

>  <SCORE.INTER.VDW>
-26.2872

>  <SCORE.INTER.norm>
-0.50484

>  <SCORE.INTRA>
2.45877

>  <SCORE.INTRA.DIHEDRAL>
7.87609

>  <SCORE.INTRA.DIHEDRAL.0>
9.33621

>  <SCORE.INTRA.POLAR>
0

>  <SCORE.INTRA.POLAR.0>
0

>  <SCORE.INTRA.REPUL>
0

>  <SCORE.INTRA.REPUL.0>
0

>  <SCORE.INTRA.SOLV>
1.67778

>  <SCORE.INTRA.SOLV.lig_0>
-65.9238

>  <SCORE.INTRA.VDW>
-2.31817

>  <SCORE.INTRA.VDW.0>
-0.405582

>  <SCORE.INTRA.norm>
0.094568

>  <SCORE.RESTR>
1.99062

>  <SCORE.RESTR.CAVITY>
1.99062

>  <SCORE.RESTR.norm>
0.0765624

>  <SCORE.SYSTEM>
0

>  <SCORE.SYSTEM.CONST>
0

>  <SCORE.SYSTEM.DIHEDRAL>
0

>  <SCORE.SYSTEM.SOLV>
0

>  <SCORE.SYSTEM.norm>
0

>  <SCORE.heavy>
26

>  <SCORE.norm>
-0.33371

>  <RMSD>
9.370

$$$$
ligand
 OpenBabel11021811443D
libRbt.so/2013.1/901 2013/11/27
 26 28  0  0  0  0  0  0  0  0999 V2000
   27.9403   39.0404   74.7813 C   0  0  0  0  0  0  0  0  0  0  0  0
   24.8125   34.4813   70.7728 C   0  0  0  0  0  0  0  0  0  0  0  0
   22.3016   38.2188   67.5759 P   0  0  1  0  0  0  0  0  0  0  0  0
   24.3212   38.6943   66.0326 P   0  0  1  0  0  0  0  0  0  0  0  0
   25.1663   34.2246   73.5438 C   0  0  0  0  0  0  0  0  0  0  0  0
   25.2428   36.5709   74.4386 C   0  0  0  0  0  0  0  0  0  0  0  0
   25.9018   35.4987   73.8707 C   0  0  0  0  0  0  0  0  0  0  0  0
   27.2669   35.6247   73.6074 C   0  0  0  0  0  0  0  0  0  0  0  0
   27.9744   34.5768   73.0373 N   0  0  0  0  0  0  0  0  0  0  0  0
   27.8783   36.7671   73.9060 N   0  0  0  0  0  0  0  0  0  0  0  0
   27.2118   37.7637   74.4517 C   0  0  0  0  0  0  0  0  0  0  0  0
   25.9221   37.6767   74.7127 N   0  0  0  0  0  0  0  0  0  0  0  0
   21.8413   39.2504   68.5327 O   0  0  0  0  0  0  0  0  0  0  0  0
   23.1158   39.3915   65.3624 O   0  0  0  0  0  0  0  0  0  0  0  0
   21.5155   35.0675   72.8045 S   0  0  0  0  0  0  0  0  0  0  0  0
   22.8418   34.7118   73.8684 C   0  0  0  0  0  0  0  0  0  0  0  0
   21.7100   38.5389   66.1147 O   0  0  0  0  0  0  0  0  0  0  0  0
   25.5581   39.7205   66.1172 O   0  5  0  0  0  0  0  0  0  0  0  0
   23.8352   34.5479   73.0256 N   0  0  0  0  0  0  0  0  0  0  0  0
   23.9110   38.2227   67.5165 O   0  0  0  0  0  0  0  0  0  0  0  0
   24.7316   37.4619   65.1957 O   0  0  0  0  0  0  0  0  0  0  0  0
   23.6612   34.6713   71.7278 C   0  0  2  0  0  0  0  0  0  0  0  0
   22.4191   34.9664   71.2666 C   0  0  2  0  0  0  0  0  0  0  0  0
   21.9376   35.1589   69.8525 C   0  0  0  0  0  0  0  0  0  0  0  0
   22.3243   36.5572   69.3654 C   0  0  0  0  0  0  0  0  0  0  0  0
   21.7879   36.7708   68.0583 O   0  0  0  0  0  0  0  0  0  0  0  0
  1 11  1  0  0  0  0
  3 13  1  1  0  0  0
  3 17  1  0  0  0  0
  3 20  1  0  0  0  0
  3 26  1  0  0  0  0
  4 14  1  0  0  0  0
  4 18  1  1  0  0  0
  4 21  2  0  0  0  0
  4 20  1  0  0  0  0
  5 19  1  0  0  0  0
  5  7  1  0  0  0  0
  6  7  2  0  0  0  0
  6 12  1  0  0  0  0
  7  8  1  0  0  0  0
  8  9  1  0  0  0  0
  8 10  2  0  0  0  0
 10 11  1  0  0  0  0
 11 12  2  0  0  0  0
 14 17  1  0  0  0  0
 15 23  1  0  0  0  0
 15 16  1  0  0  0  0
 16 19  1  0  0  0  0
 19 22  1  0  0  0  0
 22  2  1  6  0  0  0
 22 23  1  0  0  0  0
 23 24  1  1  0  0  0
 24 25  1  0  0  0  0
 25 26  1  0  0  0  0
M  CHG  1  18  -1
M  END
>  <CHROM.1>
-87.31844429,38.78506339,100.81930649,-176.08486004,-176.80921820,-58.86580844
24.09751838,36.86452437,70.30894616,-1.22878659,-0.45469289,-1.07664205

>  <Name>
ligand

>  <RI>
0

>  <Rbt.Current_Directory>
/home/itssahil/PROJECTS/Mol_Feturizer/New_Systems/rnas/2HOL

>  <Rbt.Executable>
rbdock ($Id: //depot/dev/client3/rdock/2013.1/src/exe/rbdock.cxx#4 $)

>  <Rbt.Library>
libRbt.so (2013.1, Build901 2013/11/27)

>  <Rbt.Parameter_File>
/export/apps/rDock/src/rDock_2013.1_src/data/scripts/dock_solv.prm

>  <Rbt.Receptor>
prm/blind_docking_100.prm

>  <SCORE>
-15.7349

>  <SCORE.INTER>
-12.2065

>  <SCORE.INTER.CONST>
1

>  <SCORE.INTER.POLAR>
0

>  <SCORE.INTER.ROT>
6

>  <SCORE.INTER.SOLV>
17.7902

>  <SCORE.INTER.VDW>
-21.6677

>  <SCORE.INTER.norm>
-0.469479

>  <SCORE.INTRA>
-3.52843

>  <SCORE.INTRA.DIHEDRAL>
-4.54401

>  <SCORE.INTRA.DIHEDRAL.0>
9.33621

>  <SCORE.INTRA.POLAR>
0

>  <SCORE.INTRA.POLAR.0>
0

>  <SCORE.INTRA.REPUL>
0

>  <SCORE.INTRA.REPUL.0>
0

>  <SCORE.INTRA.SOLV>
0.448215

>  <SCORE.INTRA.SOLV.lig_0>
-65.9238

>  <SCORE.INTRA.VDW>
-1.48054

>  <SCORE.INTRA.VDW.0>
-0.405582

>  <SCORE.INTRA.norm>
-0.135709

>  <SCORE.RESTR>
0

>  <SCORE.RESTR.CAVITY>
0

>  <SCORE.RESTR.norm>
0

>  <SCORE.SYSTEM>
0

>  <SCORE.SYSTEM.CONST>
0

>  <SCORE.SYSTEM.DIHEDRAL>
0

>  <SCORE.SYSTEM.SOLV>
0

>  <SCORE.SYSTEM.norm>
0

>  <SCORE.heavy>
26

>  <SCORE.norm>
-0.605188

>  <RMSD>
9.374

$$$$
ligand
 OpenBabel11021811443D
libRbt.so/2013.1/901 2013/11/27
 26 28  0  0  0  0  0  0  0  0999 V2000
   28.3872   40.0552   71.0850 C   0  0  0  0  0  0  0  0  0  0  0  0
   23.9099   40.4716   66.1822 C   0  0  0  0  0  0  0  0  0  0  0  0
   18.6358   40.5542   64.8550 P   0  0  1  0  0  0  0  0  0  0  0  0
   16.6073   39.0232   64.3780 P   0  0  1  0  0  0  0  0  0  0  0  0
   25.0105   38.0172   66.9786 C   0  0  0  0  0  0  0  0  0  0  0  0
   25.6126   38.3400   69.3962 C   0  0  0  0  0  0  0  0  0  0  0  0
   25.9051   38.5573   68.0645 C   0  0  0  0  0  0  0  0  0  0  0  0
   27.0509   39.2898   67.7493 C   0  0  0  0  0  0  0  0  0  0  0  0
   27.3884   39.5360   66.4268 N   0  0  0  0  0  0  0  0  0  0  0  0
   27.8115   39.7534   68.7366 N   0  0  0  0  0  0  0  0  0  0  0  0
   27.4976   39.5185   69.9941 C   0  0  0  0  0  0  0  0  0  0  0  0
   26.4224   38.8305   70.3251 N   0  0  0  0  0  0  0  0  0  0  0  0
   18.5170   42.0188   64.6753 O   0  0  0  0  0  0  0  0  0  0  0  0
   16.3610   39.6082   65.7870 O   0  0  0  0  0  0  0  0  0  0  0  0
   21.3669   38.1990   68.1085 S   0  0  0  0  0  0  0  0  0  0  0  0
   22.9109   37.4159   67.9668 C   0  0  0  0  0  0  0  0  0  0  0  0
   18.0186   40.1359   66.2804 O   0  0  0  0  0  0  0  0  0  0  0  0
   15.2800   39.1952   63.4840 O   0  5  0  0  0  0  0  0  0  0  0  0
   23.6131   38.3078   67.3070 N   0  0  0  0  0  0  0  0  0  0  0  0
   17.8308   39.8029   63.6797 O   0  0  0  0  0  0  0  0  0  0  0  0
   16.9550   37.5225   64.4990 O   0  0  0  0  0  0  0  0  0  0  0  0
   23.0899   39.4569   66.9384 C   0  0  2  0  0  0  0  0  0  0  0  0
   21.7919   39.7058   67.2477 C   0  0  2  0  0  0  0  0  0  0  0  0
   20.9464   40.9166   66.9513 C   0  0  0  0  0  0  0  0  0  0  0  0
   20.9249   41.1695   65.4421 C   0  0  0  0  0  0  0  0  0  0  0  0
   20.1880   40.1295   64.7960 O   0  0  0  0  0  0  0  0  0  0  0  0
  1 11  1  0  0  0  0
  3 13  1  6  0  0  0
  3 17  1  0  0  0  0
  3 20  1  0  0  0  0
  3 26  1  0  0  0  0
  4 14  1  0  0  0  0
  4 18  1  6  0  0  0
  4 21  2  0  0  0  0
  4 20  1  0  0  0  0
  5 19  1  0  0  0  0
  5  7  1  0  0  0  0
  6  7  2  0  0  0  0
  6 12  1  0  0  0  0
  7  8  1  0  0  0  0
  8  9  1  0  0  0  0
  8 10  2  0  0  0  0
 10 11  1  0  0  0  0
 11 12  2  0  0  0  0
 14 17  1  0  0  0  0
 15 23  1  0  0  0  0
 15 16  1  0  0  0  0
 16 19  1  0  0  0  0
 19 22  1  0  0  0  0
 22  2  1  6  0  0  0
 22 23  1  0  0  0  0
 23 24  1  1  0  0  0
 24 25  1  0  0  0  0
 25 26  1  0  0  0  0
M  CHG  1  18  -1
M  END
>  <CHROM.1>
-92.50225585,46.37941306,-123.23706007,69.02853244,85.23340088,37.07067792
21.59817057,39.45114193,66.59102450,0.30255078,0.30797087,2.44833982

>  <Name>
ligand

>  <RI>
0

>  <Rbt.Current_Directory>
/home/itssahil/PROJECTS/Mol_Feturizer/New_Systems/rnas/2HOL

>  <Rbt.Executable>
rbdock ($Id: //depot/dev/client3/rdock/2013.1/src/exe/rbdock.cxx#4 $)

>  <Rbt.Library>
libRbt.so (2013.1, Build901 2013/11/27)

>  <Rbt.Parameter_File>
/export/apps/rDock/src/rDock_2013.1_src/data/scripts/dock_solv.prm

>  <Rbt.Receptor>
prm/pocket_docking_3.prm

>  <SCORE>
-16.226

>  <SCORE.INTER>
-16.1332

>  <SCORE.INTER.CONST>
1

>  <SCORE.INTER.POLAR>
0

>  <SCORE.INTER.ROT>
6

>  <SCORE.INTER.SOLV>
30.0129

>  <SCORE.INTER.VDW>
-28.3597

>  <SCORE.INTER.norm>
-0.620506

>  <SCORE.INTRA>
-0.120917

>  <SCORE.INTRA.DIHEDRAL>
-0.998033

>  <SCORE.INTRA.DIHEDRAL.0>
9.33621

>  <SCORE.INTRA.POLAR>
0

>  <SCORE.INTRA.POLAR.0>
0

>  <SCORE.INTRA.REPUL>
0

>  <SCORE.INTRA.REPUL.0>
0

>  <SCORE.INTRA.SOLV>
1.09455

>  <SCORE.INTRA.SOLV.lig_0>
-65.9238

>  <SCORE.INTRA.VDW>
-0.169175

>  <SCORE.INTRA.VDW.0>
-0.405582

>  <SCORE.INTRA.norm>
-0.00465066

>  <SCORE.RESTR>
0.0280675

>  <SCORE.RESTR.CAVITY>
0.0280675

>  <SCORE.RESTR.norm>
0.00107952

>  <SCORE.SYSTEM>
0

>  <SCORE.SYSTEM.CONST>
0

>  <SCORE.SYSTEM.DIHEDRAL>
0

>  <SCORE.SYSTEM.SOLV>
0

>  <SCORE.SYSTEM.norm>
0

>  <SCORE.heavy>
26

>  <SCORE.norm>
-0.624077

>  <RMSD>
9.385

$$$$
ligand
 OpenBabel11021811443D
libRbt.so/2013.1/901 2013/11/27
 26 28  0  0  0  0  0  0  0  0999 V2000
   28.5069   40.1559   71.1501 C   0  0  0  0  0  0  0  0  0  0  0  0
   23.6421   38.9395   65.7569 C   0  0  0  0  0  0  0  0  0  0  0  0
   18.5119   40.9483   64.8737 P   0  0  1  0  0  0  0  0  0  0  0  0
   16.6066   39.2546   64.4405 P   0  0  1  0  0  0  0  0  0  0  0  0
   25.4126   41.0034   66.4463 C   0  0  0  0  0  0  0  0  0  0  0  0
   26.3406   41.7601   68.6549 C   0  0  0  0  0  0  0  0  0  0  0  0
   26.2320   40.7777   67.6908 C   0  0  0  0  0  0  0  0  0  0  0  0
   26.9003   39.5698   67.8983 C   0  0  0  0  0  0  0  0  0  0  0  0
   26.8235   38.5516   66.9598 N   0  0  0  0  0  0  0  0  0  0  0  0
   27.6171   39.4119   69.0071 N   0  0  0  0  0  0  0  0  0  0  0  0
   27.6897   40.3743   69.9035 C   0  0  0  0  0  0  0  0  0  0  0  0
   27.0706   41.5267   69.7374 N   0  0  0  0  0  0  0  0  0  0  0  0
   18.2403   42.4020   64.8068 O   0  0  0  0  0  0  0  0  0  0  0  0
   16.4193   39.7223   65.9014 O   0  0  0  0  0  0  0  0  0  0  0  0
   21.8972   41.8966   67.6419 S   0  0  0  0  0  0  0  0  0  0  0  0
   23.5947   42.2066   67.4431 C   0  0  0  0  0  0  0  0  0  0  0  0
   18.0533   40.3814   66.3077 O   0  0  0  0  0  0  0  0  0  0  0  0
   15.2017   39.3485   63.6608 O   0  5  0  0  0  0  0  0  0  0  0  0
   23.9992   41.1309   66.8082 N   0  0  0  0  0  0  0  0  0  0  0  0
   17.6906   40.1954   63.7109 O   0  0  0  0  0  0  0  0  0  0  0  0
   17.1040   37.7917   64.4297 O   0  0  0  0  0  0  0  0  0  0  0  0
   23.1623   40.1683   66.4874 C   0  0  2  0  0  0  0  0  0  0  0  0
   21.8573   40.3026   66.8358 C   0  0  2  0  0  0  0  0  0  0  0  0
   20.6978   39.3697   66.6039 C   0  0  0  0  0  0  0  0  0  0  0  0
   20.3442   39.3520   65.1150 C   0  0  0  0  0  0  0  0  0  0  0  0
   20.0878   40.6859   64.6712 O   0  0  0  0  0  0  0  0  0  0  0  0
  1 11  1  0  0  0  0
  3 13  1  6  0  0  0
  3 17  1  0  0  0  0
  3 20  1  0  0  0  0
  3 26  1  0  0  0  0
  4 14  1  0  0  0  0
  4 18  1  6  0  0  0
  4 21  2  0  0  0  0
  4 20  1  0  0  0  0
  5 19  1  0  0  0  0
  5  7  1  0  0  0  0
  6  7  2  0  0  0  0
  6 12  1  0  0  0  0
  7  8  1  0  0  0  0
  8  9  1  0  0  0  0
  8 10  2  0  0  0  0
 10 11  1  0  0  0  0
 11 12  2  0  0  0  0
 14 17  1  0  0  0  0
 15 23  1  0  0  0  0
 15 16  1  0  0  0  0
 16 19  1  0  0  0  0
 19 22  1  0  0  0  0
 22  2  1  1  0  0  0
 22 23  1  0  0  0  0
 23 24  1  6  0  0  0
 24 25  1  0  0  0  0
 25 26  1  0  0  0  0
M  CHG  1  18  -1
M  END
>  <CHROM.1>
70.69037902,-65.95141205,109.37250301,-55.47010401,-90.36902457,163.93181290
21.66071155,40.30778813,66.43919701,0.20593199,-0.35544474,0.39769213

>  <Name>
ligand

>  <RI>
0

>  <Rbt.Current_Directory>
/home/itssahil/PROJECTS/Mol_Feturizer/New_Systems/rnas/2HOL

>  <Rbt.Executable>
rbdock ($Id: //depot/dev/client3/rdock/2013.1/src/exe/rbdock.cxx#4 $)

>  <Rbt.Library>
libRbt.so (2013.1, Build901 2013/11/27)

>  <Rbt.Parameter_File>
/export/apps/rDock/src/rDock_2013.1_src/data/scripts/dock_solv.prm

>  <Rbt.Receptor>
prm/pocket_docking_3.prm

>  <SCORE>
-15.2023

>  <SCORE.INTER>
-14.6155

>  <SCORE.INTER.CONST>
1

>  <SCORE.INTER.POLAR>
0

>  <SCORE.INTER.ROT>
6

>  <SCORE.INTER.SOLV>
29.4066

>  <SCORE.INTER.VDW>
-27.1458

>  <SCORE.INTER.norm>
-0.562134

>  <SCORE.INTRA>
-0.64254

>  <SCORE.INTRA.DIHEDRAL>
-0.585062

>  <SCORE.INTRA.DIHEDRAL.0>
9.33621

>  <SCORE.INTRA.POLAR>
0

>  <SCORE.INTRA.POLAR.0>
0

>  <SCORE.INTRA.REPUL>
0

>  <SCORE.INTRA.REPUL.0>
0

>  <SCORE.INTRA.SOLV>
2.31452

>  <SCORE.INTRA.SOLV.lig_0>
-65.9238

>  <SCORE.INTRA.VDW>
-1.50727

>  <SCORE.INTRA.VDW.0>
-0.405582

>  <SCORE.INTRA.norm>
-0.0247131

>  <SCORE.RESTR>
0.0557303

>  <SCORE.RESTR.CAVITY>
0.0557303

>  <SCORE.RESTR.norm>
0.00214347

>  <SCORE.SYSTEM>
0

>  <SCORE.SYSTEM.CONST>
0

>  <SCORE.SYSTEM.DIHEDRAL>
0

>  <SCORE.SYSTEM.SOLV>
0

>  <SCORE.SYSTEM.norm>
0

>  <SCORE.heavy>
26

>  <SCORE.norm>
-0.584703

>  <RMSD>
9.392

$$$$
ligand
 OpenBabel11021811443D
libRbt.so/2013.1/901 2013/11/27
 26 28  0  0  0  0  0  0  0  0999 V2000
   28.7448   40.7555   72.5646 C   0  0  0  0  0  0  0  0  0  0  0  0
   23.2543   35.4400   73.1966 C   0  0  0  0  0  0  0  0  0  0  0  0
   22.4773   37.6181   69.0464 P   0  0  1  0  0  0  0  0  0  0  0  0
   21.9230   39.5729   67.4469 P   0  0  1  0  0  0  0  0  0  0  0  0
   26.0091   35.8553   73.5252 C   0  0  0  0  0  0  0  0  0  0  0  0
   26.7551   37.7176   72.0129 C   0  0  0  0  0  0  0  0  0  0  0  0
   26.7337   37.1523   73.2724 C   0  0  0  0  0  0  0  0  0  0  0  0
   27.4001   37.8130   74.3059 C   0  0  0  0  0  0  0  0  0  0  0  0
   27.4088   37.2863   75.5889 N   0  0  0  0  0  0  0  0  0  0  0  0
   28.0318   38.9527   74.0408 N   0  0  0  0  0  0  0  0  0  0  0  0
   28.0227   39.4592   72.8249 C   0  0  0  0  0  0  0  0  0  0  0  0
   27.4030   38.8599   71.8270 N   0  0  0  0  0  0  0  0  0  0  0  0
   23.6617   37.6977   69.9309 O   0  0  0  0  0  0  0  0  0  0  0  0
   21.3940   40.0095   68.8317 O   0  0  0  0  0  0  0  0  0  0  0  0
   25.3474   34.4381   70.0411 S   0  0  0  0  0  0  0  0  0  0  0  0
   26.3806   35.0328   71.3045 C   0  0  0  0  0  0  0  0  0  0  0  0
   21.2577   38.4332   69.7069 O   0  0  0  0  0  0  0  0  0  0  0  0
   22.8022   40.7598   66.8076 O   0  5  0  0  0  0  0  0  0  0  0  0
   25.5200   35.3131   72.2556 N   0  0  0  0  0  0  0  0  0  0  0  0
   22.8355   38.2566   67.6119 O   0  0  0  0  0  0  0  0  0  0  0  0
   20.7294   39.2588   66.5173 O   0  0  0  0  0  0  0  0  0  0  0  0
   24.2300   35.1142   72.0940 C   0  0  2  0  0  0  0  0  0  0  0  0
   23.7957   34.6157   70.9086 C   0  0  2  0  0  0  0  0  0  0  0  0
   22.3958   34.2972   70.4528 C   0  0  0  0  0  0  0  0  0  0  0  0
   21.6509   35.5967   70.1393 C   0  0  0  0  0  0  0  0  0  0  0  0
   22.0521   36.0768   68.8545 O   0  0  0  0  0  0  0  0  0  0  0  0
  1 11  1  0  0  0  0
  3 13  1  1  0  0  0
  3 17  1  0  0  0  0
  3 20  1  0  0  0  0
  3 26  1  0  0  0  0
  4 14  1  0  0  0  0
  4 18  1  6  0  0  0
  4 21  2  0  0  0  0
  4 20  1  0  0  0  0
  5 19  1  0  0  0  0
  5  7  1  0  0  0  0
  6  7  2  0  0  0  0
  6 12  1  0  0  0  0
  7  8  1  0  0  0  0
  8  9  1  0  0  0  0
  8 10  2  0  0  0  0
 10 11  1  0  0  0  0
 11 12  2  0  0  0  0
 14 17  1  0  0  0  0
 15 23  1  0  0  0  0
 15 16  1  0  0  0  0
 16 19  1  0  0  0  0
 19 22  1  0  0  0  0
 22  2  1  6  0  0  0
 22 23  1  0  0  0  0
 23 24  1  1  0  0  0
 24 25  1  0  0  0  0
 25 26  1  0  0  0  0
M  CHG  1  18  -1
M  END
>  <CHROM.1>
59.64428667,5.76138799,-105.50397991,78.87907837,-128.64123283,64.34159105
24.26164833,37.40298174,70.57900038,-0.42192425,-0.71043322,-0.37410543

>  <Name>
ligand

>  <RI>
0

>  <Rbt.Current_Directory>
/home/itssahil/PROJECTS/Mol_Feturizer/New_Systems/rnas/2HOL

>  <Rbt.Executable>
rbdock ($Id: //depot/dev/client3/rdock/2013.1/src/exe/rbdock.cxx#4 $)

>  <Rbt.Library>
libRbt.so (2013.1, Build901 2013/11/27)

>  <Rbt.Parameter_File>
/export/apps/rDock/src/rDock_2013.1_src/data/scripts/dock_solv.prm

>  <Rbt.Receptor>
prm/pocket_docking_8.prm

>  <SCORE>
-14.6359

>  <SCORE.INTER>
-14.5632

>  <SCORE.INTER.CONST>
1

>  <SCORE.INTER.POLAR>
0

>  <SCORE.INTER.ROT>
6

>  <SCORE.INTER.SOLV>
12.7211

>  <SCORE.INTER.VDW>
-21.5492

>  <SCORE.INTER.norm>
-0.560122

>  <SCORE.INTRA>
-0.072757

>  <SCORE.INTRA.DIHEDRAL>
3.42421

>  <SCORE.INTRA.DIHEDRAL.0>
9.33621

>  <SCORE.INTRA.POLAR>
0

>  <SCORE.INTRA.POLAR.0>
0

>  <SCORE.INTRA.REPUL>
0

>  <SCORE.INTRA.REPUL.0>
0

>  <SCORE.INTRA.SOLV>
0.0604817

>  <SCORE.INTRA.SOLV.lig_0>
-65.9238

>  <SCORE.INTRA.VDW>
-1.8151

>  <SCORE.INTRA.VDW.0>
-0.405582

>  <SCORE.INTRA.norm>
-0.00279834

>  <SCORE.RESTR>
0

>  <SCORE.RESTR.CAVITY>
0

>  <SCORE.RESTR.norm>
0

>  <SCORE.SYSTEM>
0

>  <SCORE.SYSTEM.CONST>
0

>  <SCORE.SYSTEM.DIHEDRAL>
0

>  <SCORE.SYSTEM.SOLV>
0

>  <SCORE.SYSTEM.norm>
0

>  <SCORE.heavy>
26

>  <SCORE.norm>
-0.56292

>  <RMSD>
9.405

$$$$
ligand
 OpenBabel11021811443D
libRbt.so/2013.1/901 2013/11/27
 26 28  0  0  0  0  0  0  0  0999 V2000
   21.6875   37.9503   68.6994 C   0  0  0  0  0  0  0  0  0  0  0  0
   25.0941   35.8857   74.4889 C   0  0  0  0  0  0  0  0  0  0  0  0
   28.7417   41.0742   76.8521 P   0  0  1  0  0  0  0  0  0  0  0  0
   29.0463   41.1628   79.4184 P   0  0  1  0  0  0  0  0  0  0  0  0
   25.9168   35.7476   71.8106 C   0  0  0  0  0  0  0  0  0  0  0  0
   25.0186   37.4022   70.1471 C   0  0  0  0  0  0  0  0  0  0  0  0
   24.7964   36.3296   70.9877 C   0  0  0  0  0  0  0  0  0  0  0  0
   23.5076   35.7977   71.0557 C   0  0  0  0  0  0  0  0  0  0  0  0
   23.2324   34.7207   71.8851 N   0  0  0  0  0  0  0  0  0  0  0  0
   22.5453   36.3430   70.3175 N   0  0  0  0  0  0  0  0  0  0  0  0
   22.8025   37.3632   69.5249 C   0  0  0  0  0  0  0  0  0  0  0  0
   24.0088   37.8888   69.4381 N   0  0  0  0  0  0  0  0  0  0  0  0
   29.1589   42.2228   76.0165 O   0  0  0  0  0  0  0  0  0  0  0  0
   30.4357   40.7957   78.8499 O   0  0  0  0  0  0  0  0  0  0  0  0
   27.7162   38.6370   73.5421 S   0  0  0  0  0  0  0  0  0  0  0  0
   27.3550   37.6307   72.1731 C   0  0  0  0  0  0  0  0  0  0  0  0
   30.0257   40.1710   77.2035 O   0  0  0  0  0  0  0  0  0  0  0  0
   29.1973   42.3706   80.4715 O   0  5  0  0  0  0  0  0  0  0  0  0
   26.4812   36.7879   72.6732 N   0  0  0  0  0  0  0  0  0  0  0  0
   28.0772   41.6163   78.2152 O   0  0  0  0  0  0  0  0  0  0  0  0
   28.4417   39.9320   80.1306 O   0  0  0  0  0  0  0  0  0  0  0  0
   26.0997   36.8603   73.9297 C   0  0  2  0  0  0  0  0  0  0  0  0
   26.6377   37.8283   74.7146 C   0  0  2  0  0  0  0  0  0  0  0  0
   26.3913   38.1371   76.1681 C   0  0  0  0  0  0  0  0  0  0  0  0
   27.5704   38.9349   76.7295 C   0  0  0  0  0  0  0  0  0  0  0  0
   27.6647   40.1874   76.0479 O   0  0  0  0  0  0  0  0  0  0  0  0
  1 11  1  0  0  0  0
  3 13  1  6  0  0  0
  3 17  1  0  0  0  0
  3 20  1  0  0  0  0
  3 26  1  0  0  0  0
  4 14  1  0  0  0  0
  4 18  1  1  0  0  0
  4 21  2  0  0  0  0
  4 20  1  0  0  0  0
  5 19  1  0  0  0  0
  5  7  1  0  0  0  0
  6  7  2  0  0  0  0
  6 12  1  0  0  0  0
  7  8  1  0  0  0  0
  8  9  1  0  0  0  0
  8 10  2  0  0  0  0
 10 11  1  0  0  0  0
 11 12  2  0  0  0  0
 14 17  1  0  0  0  0
 15 23  1  0  0  0  0
 15 16  1  0  0  0  0
 16 19  1  0  0  0  0
 19 22  1  0  0  0  0
 22  2  1  1  0  0  0
 22 23  1  0  0  0  0
 23 24  1  6  0  0  0
 24 25  1  0  0  0  0
 25 26  1  0  0  0  0
M  CHG  1  18  -1
M  END
>  <CHROM.1>
-81.32880571,58.20389970,-21.46208212,63.04416524,170.15168449,164.93345054
26.81396096,38.80341214,74.76658815,-2.79944147,1.01593864,2.23524371

>  <Name>
ligand

>  <RI>
0

>  <Rbt.Current_Directory>
/home/itssahil/PROJECTS/Mol_Feturizer/New_Systems/rnas/2HOL

>  <Rbt.Executable>
rbdock ($Id: //depot/dev/client3/rdock/2013.1/src/exe/rbdock.cxx#4 $)

>  <Rbt.Library>
libRbt.so (2013.1, Build901 2013/11/27)

>  <Rbt.Parameter_File>
/export/apps/rDock/src/rDock_2013.1_src/data/scripts/dock_solv.prm

>  <Rbt.Receptor>
prm/blind_docking_100.prm

>  <SCORE>
-21.0684

>  <SCORE.INTER>
-18.2934

>  <SCORE.INTER.CONST>
1

>  <SCORE.INTER.POLAR>
0

>  <SCORE.INTER.ROT>
6

>  <SCORE.INTER.SOLV>
9.93501

>  <SCORE.INTER.VDW>
-23.1073

>  <SCORE.INTER.norm>
-0.703593

>  <SCORE.INTRA>
-2.77501

>  <SCORE.INTRA.DIHEDRAL>
-3.76239

>  <SCORE.INTRA.DIHEDRAL.0>
9.33621

>  <SCORE.INTRA.POLAR>
0

>  <SCORE.INTRA.POLAR.0>
0

>  <SCORE.INTRA.REPUL>
0

>  <SCORE.INTRA.REPUL.0>
0

>  <SCORE.INTRA.SOLV>
1.66341

>  <SCORE.INTRA.SOLV.lig_0>
-65.9238

>  <SCORE.INTRA.VDW>
-1.72552

>  <SCORE.INTRA.VDW.0>
-0.405582

>  <SCORE.INTRA.norm>
-0.106731

>  <SCORE.RESTR>
0

>  <SCORE.RESTR.CAVITY>
0

>  <SCORE.RESTR.norm>
0

>  <SCORE.SYSTEM>
0

>  <SCORE.SYSTEM.CONST>
0

>  <SCORE.SYSTEM.DIHEDRAL>
0

>  <SCORE.SYSTEM.SOLV>
0

>  <SCORE.SYSTEM.norm>
0

>  <SCORE.heavy>
26

>  <SCORE.norm>
-0.810324

>  <RMSD>
9.408

$$$$
ligand
 OpenBabel11021811443D
libRbt.so/2013.1/901 2013/11/27
 26 28  0  0  0  0  0  0  0  0999 V2000
   30.9075   38.4003   66.5138 C   0  0  0  0  0  0  0  0  0  0  0  0
   24.5774   41.1154   67.4071 C   0  0  0  0  0  0  0  0  0  0  0  0
   18.9472   41.8963   65.2183 P   0  0  1  0  0  0  0  0  0  0  0  0
   17.3495   40.0452   64.3774 P   0  0  1  0  0  0  0  0  0  0  0  0
   25.5863   38.7416   68.5104 C   0  0  0  0  0  0  0  0  0  0  0  0
   27.3247   37.7478   66.9932 C   0  0  0  0  0  0  0  0  0  0  0  0
   26.9952   38.6523   67.9829 C   0  0  0  0  0  0  0  0  0  0  0  0
   28.0002   39.4824   68.4824 C   0  0  0  0  0  0  0  0  0  0  0  0
   27.7208   40.4074   69.4773 N   0  0  0  0  0  0  0  0  0  0  0  0
   29.2318   39.3692   67.9940 N   0  0  0  0  0  0  0  0  0  0  0  0
   29.5014   38.4952   67.0460 C   0  0  0  0  0  0  0  0  0  0  0  0
   28.5749   37.6967   66.5532 N   0  0  0  0  0  0  0  0  0  0  0  0
   18.4178   43.2397   65.5449 O   0  0  0  0  0  0  0  0  0  0  0  0
   17.1759   40.0746   65.9126 O   0  0  0  0  0  0  0  0  0  0  0  0
   23.1886   37.8962   65.6606 S   0  0  0  0  0  0  0  0  0  0  0  0
   24.2865   37.4798   66.9406 C   0  0  0  0  0  0  0  0  0  0  0  0
   18.6892   40.9016   66.4559 O   0  0  0  0  0  0  0  0  0  0  0  0
   15.9034   40.0715   63.6713 O   0  5  0  0  0  0  0  0  0  0  0  0
   24.6407   38.6595   67.3951 N   0  0  0  0  0  0  0  0  0  0  0  0
   18.2001   41.3296   63.9090 O   0  0  0  0  0  0  0  0  0  0  0  0
   18.0973   38.7558   63.9700 O   0  0  0  0  0  0  0  0  0  0  0  0
   24.1620   39.7678   66.8730 C   0  0  2  0  0  0  0  0  0  0  0  0
   23.2906   39.6712   65.8368 C   0  0  2  0  0  0  0  0  0  0  0  0
   22.5992   40.7577   65.0556 C   0  0  0  0  0  0  0  0  0  0  0  0
   21.1164   40.7952   65.4323 C   0  0  0  0  0  0  0  0  0  0  0  0
   20.5284   41.9970   64.9303 O   0  0  0  0  0  0  0  0  0  0  0  0
  1 11  1  0  0  0  0
  3 13  1  1  0  0  0
  3 17  1  0  0  0  0
  3 20  1  0  0  0  0
  3 26  1  0  0  0  0
  4 14  1  0  0  0  0
  4 18  1  6  0  0  0
  4 21  2  0  0  0  0
  4 20  1  0  0  0  0
  5 19  1  0  0  0  0
  5  7  1  0  0  0  0
  6  7  2  0  0  0  0
  6 12  1  0  0  0  0
  7  8  1  0  0  0  0
  8  9  1  0  0  0  0
  8 10  2  0  0  0  0
 10 11  1  0  0  0  0
 11 12  2  0  0  0  0
 14 17  1  0  0  0  0
 15 23  1  0  0  0  0
 15 16  1  0  0  0  0
 16 19  1  0  0  0  0
 19 22  1  0  0  0  0
 22  2  1  6  0  0  0
 22 23  1  0  0  0  0
 23 24  1  1  0  0  0
 24 25  1  0  0  0  0
 25 26  1  0  0  0  0
M  CHG  1  18  -1
M  END
>  <CHROM.1>
84.05910880,-42.18242044,72.26411955,167.13873971,173.93473032,144.68259807
22.60308021,39.83921781,66.09015570,0.09106215,0.31605870,-2.78945415

>  <Name>
ligand

>  <RI>
0

>  <Rbt.Current_Directory>
/home/itssahil/PROJECTS/Mol_Feturizer/New_Systems/rnas/2HOL

>  <Rbt.Executable>
rbdock ($Id: //depot/dev/client3/rdock/2013.1/src/exe/rbdock.cxx#4 $)

>  <Rbt.Library>
libRbt.so (2013.1, Build901 2013/11/27)

>  <Rbt.Parameter_File>
/export/apps/rDock/src/rDock_2013.1_src/data/scripts/dock_solv.prm

>  <Rbt.Receptor>
prm/pocket_docking_7.prm

>  <SCORE>
-17.1441

>  <SCORE.INTER>
-15.8134

>  <SCORE.INTER.CONST>
1

>  <SCORE.INTER.POLAR>
0

>  <SCORE.INTER.ROT>
6

>  <SCORE.INTER.SOLV>
29.1726

>  <SCORE.INTER.VDW>
-27.8665

>  <SCORE.INTER.norm>
-0.60821

>  <SCORE.INTRA>
-1.33069

>  <SCORE.INTRA.DIHEDRAL>
-1.92175

>  <SCORE.INTRA.DIHEDRAL.0>
9.33621

>  <SCORE.INTRA.POLAR>
0

>  <SCORE.INTRA.POLAR.0>
0

>  <SCORE.INTRA.REPUL>
0

>  <SCORE.INTRA.REPUL.0>
0

>  <SCORE.INTRA.SOLV>
0.818047

>  <SCORE.INTRA.SOLV.lig_0>
-65.9238

>  <SCORE.INTRA.VDW>
-0.778843

>  <SCORE.INTRA.VDW.0>
-0.405582

>  <SCORE.INTRA.norm>
-0.0511805

>  <SCORE.RESTR>
0

>  <SCORE.RESTR.CAVITY>
0

>  <SCORE.RESTR.norm>
0

>  <SCORE.SYSTEM>
0

>  <SCORE.SYSTEM.CONST>
0

>  <SCORE.SYSTEM.DIHEDRAL>
0

>  <SCORE.SYSTEM.SOLV>
0

>  <SCORE.SYSTEM.norm>
0

>  <SCORE.heavy>
26

>  <SCORE.norm>
-0.65939

>  <RMSD>
9.417

$$$$
ligand
 OpenBabel11021811443D
libRbt.so/2013.1/901 2013/11/27
 26 28  0  0  0  0  0  0  0  0999 V2000
   30.9433   39.0515   67.4033 C   0  0  0  0  0  0  0  0  0  0  0  0
   23.3979   39.9702   67.4788 C   0  0  0  0  0  0  0  0  0  0  0  0
   18.9642   41.5759   65.2103 P   0  0  1  0  0  0  0  0  0  0  0  0
   17.3181   39.7543   64.3989 P   0  0  1  0  0  0  0  0  0  0  0  0
   25.4096   38.5120   66.1763 C   0  0  0  0  0  0  0  0  0  0  0  0
   27.8413   38.3438   65.5678 C   0  0  0  0  0  0  0  0  0  0  0  0
   26.8739   38.6552   66.5025 C   0  0  0  0  0  0  0  0  0  0  0  0
   27.2867   39.1064   67.7573 C   0  0  0  0  0  0  0  0  0  0  0  0
   26.3544   39.4317   68.7311 N   0  0  0  0  0  0  0  0  0  0  0  0
   28.5883   39.2143   68.0075 N   0  0  0  0  0  0  0  0  0  0  0  0
   29.4777   38.9108   67.0845 C   0  0  0  0  0  0  0  0  0  0  0  0
   29.1205   38.4816   65.8898 N   0  0  0  0  0  0  0  0  0  0  0  0
   18.4809   42.9526   65.4608 O   0  0  0  0  0  0  0  0  0  0  0  0
   17.0986   39.8593   65.9249 O   0  0  0  0  0  0  0  0  0  0  0  0
   24.5586   41.6148   64.1187 S   0  0  0  0  0  0  0  0  0  0  0  0
   25.4346   40.1459   64.4225 C   0  0  0  0  0  0  0  0  0  0  0  0
   18.6273   40.6487   66.4809 O   0  0  0  0  0  0  0  0  0  0  0  0
   15.8968   39.8067   63.6455 O   0  5  0  0  0  0  0  0  0  0  0  0
   24.9218   39.7500   65.5645 N   0  0  0  0  0  0  0  0  0  0  0  0
   18.2351   40.9814   63.9031 O   0  0  0  0  0  0  0  0  0  0  0  0
   18.0242   38.4191   64.0726 O   0  0  0  0  0  0  0  0  0  0  0  0
   23.9778   40.4388   66.1681 C   0  0  2  0  0  0  0  0  0  0  0  0
   23.5424   41.5860   65.5879 C   0  0  2  0  0  0  0  0  0  0  0  0
   22.4921   42.5612   66.0514 C   0  0  0  0  0  0  0  0  0  0  0  0
   21.1622   41.8288   66.2439 C   0  0  0  0  0  0  0  0  0  0  0  0
   20.5563   41.6005   64.9700 O   0  0  0  0  0  0  0  0  0  0  0  0
  1 11  1  0  0  0  0
  3 13  1  1  0  0  0
  3 17  1  0  0  0  0
  3 20  1  0  0  0  0
  3 26  1  0  0  0  0
  4 14  1  0  0  0  0
  4 18  1  6  0  0  0
  4 21  2  0  0  0  0
  4 20  1  0  0  0  0
  5 19  1  0  0  0  0
  5  7  1  0  0  0  0
  6  7  2  0  0  0  0
  6 12  1  0  0  0  0
  7  8  1  0  0  0  0
  8  9  1  0  0  0  0
  8 10  2  0  0  0  0
 10 11  1  0  0  0  0
 11 12  2  0  0  0  0
 14 17  1  0  0  0  0
 15 23  1  0  0  0  0
 15 16  1  0  0  0  0
 16 19  1  0  0  0  0
 19 22  1  0  0  0  0
 22  2  1  1  0  0  0
 22 23  1  0  0  0  0
 23 24  1  6  0  0  0
 24 25  1  0  0  0  0
 25 26  1  0  0  0  0
M  CHG  1  18  -1
M  END
>  <CHROM.1>
62.26889053,-87.87904850,122.69416890,-77.41861156,-150.93511388,73.42838122
22.63986097,40.26236764,65.68138782,0.15814813,0.17051243,3.00021895

>  <Name>
ligand

>  <RI>
0

>  <Rbt.Current_Directory>
/home/itssahil/PROJECTS/Mol_Feturizer/New_Systems/rnas/2HOL

>  <Rbt.Executable>
rbdock ($Id: //depot/dev/client3/rdock/2013.1/src/exe/rbdock.cxx#4 $)

>  <Rbt.Library>
libRbt.so (2013.1, Build901 2013/11/27)

>  <Rbt.Parameter_File>
/export/apps/rDock/src/rDock_2013.1_src/data/scripts/dock_solv.prm

>  <Rbt.Receptor>
prm/pocket_docking_2.prm

>  <SCORE>
-11.7607

>  <SCORE.INTER>
-12.0214

>  <SCORE.INTER.CONST>
1

>  <SCORE.INTER.POLAR>
0

>  <SCORE.INTER.ROT>
6

>  <SCORE.INTER.SOLV>
29.824

>  <SCORE.INTER.VDW>
-25.5556

>  <SCORE.INTER.norm>
-0.462363

>  <SCORE.INTRA>
-0.105244

>  <SCORE.INTRA.DIHEDRAL>
0.00534379

>  <SCORE.INTRA.DIHEDRAL.0>
9.33621

>  <SCORE.INTRA.POLAR>
0

>  <SCORE.INTRA.POLAR.0>
0

>  <SCORE.INTRA.REPUL>
0

>  <SCORE.INTRA.REPUL.0>
0

>  <SCORE.INTRA.SOLV>
1.81204

>  <SCORE.INTRA.SOLV.lig_0>
-65.9238

>  <SCORE.INTRA.VDW>
-1.01393

>  <SCORE.INTRA.VDW.0>
-0.405582

>  <SCORE.INTRA.norm>
-0.00404785

>  <SCORE.RESTR>
0.366006

>  <SCORE.RESTR.CAVITY>
0.366006

>  <SCORE.RESTR.norm>
0.0140771

>  <SCORE.SYSTEM>
0

>  <SCORE.SYSTEM.CONST>
0

>  <SCORE.SYSTEM.DIHEDRAL>
0

>  <SCORE.SYSTEM.SOLV>
0

>  <SCORE.SYSTEM.norm>
0

>  <SCORE.heavy>
26

>  <SCORE.norm>
-0.452334

>  <RMSD>
9.427

$$$$
ligand
 OpenBabel11021811443D
libRbt.so/2013.1/901 2013/11/27
 26 28  0  0  0  0  0  0  0  0999 V2000
   30.7930   37.4609   65.5185 C   0  0  0  0  0  0  0  0  0  0  0  0
   25.6296   40.6109   66.9053 C   0  0  0  0  0  0  0  0  0  0  0  0
   19.4523   41.4625   65.4073 P   0  0  1  0  0  0  0  0  0  0  0  0
   17.4002   40.2712   64.3798 P   0  0  1  0  0  0  0  0  0  0  0  0
   26.4341   38.8287   68.9167 C   0  0  0  0  0  0  0  0  0  0  0  0
   27.3869   37.7338   66.8660 C   0  0  0  0  0  0  0  0  0  0  0  0
   27.5888   38.4673   68.0182 C   0  0  0  0  0  0  0  0  0  0  0  0
   28.8899   38.8660   68.3296 C   0  0  0  0  0  0  0  0  0  0  0  0
   29.1457   39.6038   69.4757 N   0  0  0  0  0  0  0  0  0  0  0  0
   29.8821   38.5227   67.5135 N   0  0  0  0  0  0  0  0  0  0  0  0
   29.6437   37.8258   66.4215 C   0  0  0  0  0  0  0  0  0  0  0  0
   28.4266   37.4337   66.0992 N   0  0  0  0  0  0  0  0  0  0  0  0
   19.2946   42.7854   66.0529 O   0  0  0  0  0  0  0  0  0  0  0  0
   17.3184   39.9986   65.8987 O   0  0  0  0  0  0  0  0  0  0  0  0
   23.0958   37.6765   67.4630 S   0  0  0  0  0  0  0  0  0  0  0  0
   24.4489   37.5381   68.5434 C   0  0  0  0  0  0  0  0  0  0  0  0
   19.0166   40.3065   66.4376 O   0  0  0  0  0  0  0  0  0  0  0  0
   15.9728   40.7914   63.8484 O   0  5  0  0  0  0  0  0  0  0  0  0
   25.1727   38.5829   68.2143 N   0  0  0  0  0  0  0  0  0  0  0  0
   18.5209   41.3918   64.0955 O   0  0  0  0  0  0  0  0  0  0  0  0
   17.7785   38.9662   63.6439 O   0  0  0  0  0  0  0  0  0  0  0  0
   24.7878   39.4145   67.2709 C   0  0  2  0  0  0  0  0  0  0  0  0
   23.6182   39.1671   66.6280 C   0  0  2  0  0  0  0  0  0  0  0  0
   22.9459   39.9370   65.5216 C   0  0  0  0  0  0  0  0  0  0  0  0
   21.6019   40.4767   66.0161 C   0  0  0  0  0  0  0  0  0  0  0  0
   20.9912   41.2517   64.9825 O   0  0  0  0  0  0  0  0  0  0  0  0
  1 11  1  0  0  0  0
  3 13  1  1  0  0  0
  3 17  1  0  0  0  0
  3 20  1  0  0  0  0
  3 26  1  0  0  0  0
  4 14  1  0  0  0  0
  4 18  1  6  0  0  0
  4 21  2  0  0  0  0
  4 20  1  0  0  0  0
  5 19  1  0  0  0  0
  5  7  1  0  0  0  0
  6  7  2  0  0  0  0
  6 12  1  0  0  0  0
  7  8  1  0  0  0  0
  8  9  1  0  0  0  0
  8 10  2  0  0  0  0
 10 11  1  0  0  0  0
 11 12  2  0  0  0  0
 14 17  1  0  0  0  0
 15 23  1  0  0  0  0
 15 16  1  0  0  0  0
 16 19  1  0  0  0  0
 19 22  1  0  0  0  0
 22  2  1  6  0  0  0
 22 23  1  0  0  0  0
 23 24  1  1  0  0  0
 24 25  1  0  0  0  0
 25 26  1  0  0  0  0
M  CHG  1  18  -1
M  END
>  <CHROM.1>
105.37593444,-13.61857570,63.11997711,177.67778891,165.62695755,97.53985330
22.96199236,39.55400382,66.31043618,-0.07476755,0.32361233,-2.17541989

>  <Name>
ligand

>  <RI>
0

>  <Rbt.Current_Directory>
/home/itssahil/PROJECTS/Mol_Feturizer/New_Systems/rnas/2HOL

>  <Rbt.Executable>
rbdock ($Id: //depot/dev/client3/rdock/2013.1/src/exe/rbdock.cxx#4 $)

>  <Rbt.Library>
libRbt.so (2013.1, Build901 2013/11/27)

>  <Rbt.Parameter_File>
/export/apps/rDock/src/rDock_2013.1_src/data/scripts/dock_solv.prm

>  <Rbt.Receptor>
prm/pocket_docking_3.prm

>  <SCORE>
-14.1888

>  <SCORE.INTER>
-13.2269

>  <SCORE.INTER.CONST>
1

>  <SCORE.INTER.POLAR>
0

>  <SCORE.INTER.ROT>
6

>  <SCORE.INTER.SOLV>
31.4732

>  <SCORE.INTER.VDW>
-26.909

>  <SCORE.INTER.norm>
-0.508727

>  <SCORE.INTRA>
-0.961875

>  <SCORE.INTRA.DIHEDRAL>
-1.5263

>  <SCORE.INTRA.DIHEDRAL.0>
9.33621

>  <SCORE.INTRA.POLAR>
0

>  <SCORE.INTRA.POLAR.0>
0

>  <SCORE.INTRA.REPUL>
0

>  <SCORE.INTRA.REPUL.0>
0

>  <SCORE.INTRA.SOLV>
-0.400491

>  <SCORE.INTRA.SOLV.lig_0>
-65.9238

>  <SCORE.INTRA.VDW>
0.00152254

>  <SCORE.INTRA.VDW.0>
-0.405582

>  <SCORE.INTRA.norm>
-0.0369952

>  <SCORE.RESTR>
0

>  <SCORE.RESTR.CAVITY>
0

>  <SCORE.RESTR.norm>
0

>  <SCORE.SYSTEM>
0

>  <SCORE.SYSTEM.CONST>
0

>  <SCORE.SYSTEM.DIHEDRAL>
0

>  <SCORE.SYSTEM.SOLV>
0

>  <SCORE.SYSTEM.norm>
0

>  <SCORE.heavy>
26

>  <SCORE.norm>
-0.545723

>  <RMSD>
9.444

$$$$
ligand
 OpenBabel11021811443D
libRbt.so/2013.1/901 2013/11/27
 26 28  0  0  0  0  0  0  0  0999 V2000
   26.3544   37.1378   74.4259 C   0  0  0  0  0  0  0  0  0  0  0  0
   24.9689   38.4965   66.4530 C   0  0  0  0  0  0  0  0  0  0  0  0
   19.0328   41.5356   65.1042 P   0  0  1  0  0  0  0  0  0  0  0  0
   17.3113   39.7351   64.4105 P   0  0  1  0  0  0  0  0  0  0  0  0
   25.0764   37.0898   68.8777 C   0  0  0  0  0  0  0  0  0  0  0  0
   24.6656   36.3816   71.2529 C   0  0  0  0  0  0  0  0  0  0  0  0
   25.4158   37.1035   70.3460 C   0  0  0  0  0  0  0  0  0  0  0  0
   26.4970   37.8462   70.8237 C   0  0  0  0  0  0  0  0  0  0  0  0
   27.2814   38.5887   69.9536 N   0  0  0  0  0  0  0  0  0  0  0  0
   26.7605   37.8361   72.1270 N   0  0  0  0  0  0  0  0  0  0  0  0
   26.0212   37.1290   72.9568 C   0  0  0  0  0  0  0  0  0  0  0  0
   24.9932   36.4173   72.5377 N   0  0  0  0  0  0  0  0  0  0  0  0
   18.6468   42.9648   65.1141 O   0  0  0  0  0  0  0  0  0  0  0  0
   16.9804   40.0784   65.8804 O   0  0  0  0  0  0  0  0  0  0  0  0
   21.9300   39.2532   68.8055 S   0  0  0  0  0  0  0  0  0  0  0  0
   23.0156   38.1164   69.5449 C   0  0  0  0  0  0  0  0  0  0  0  0
   18.5201   40.8312   66.4565 O   0  0  0  0  0  0  0  0  0  0  0  0
   15.9637   39.7763   63.5314 O   0  5  0  0  0  0  0  0  0  0  0  0
   23.9473   37.9887   68.6287 N   0  0  0  0  0  0  0  0  0  0  0  0
   18.3634   40.8084   63.8327 O   0  0  0  0  0  0  0  0  0  0  0  0
   17.9281   38.3201   64.3403 O   0  0  0  0  0  0  0  0  0  0  0  0
   23.8902   38.6529   67.4949 C   0  0  2  0  0  0  0  0  0  0  0  0
   22.8333   39.4773   67.2805 C   0  0  2  0  0  0  0  0  0  0  0  0
   22.5133   40.3430   66.0901 C   0  0  0  0  0  0  0  0  0  0  0  0
   21.0109   40.2866   65.8047 C   0  0  0  0  0  0  0  0  0  0  0  0
   20.6355   41.4122   65.0083 O   0  0  0  0  0  0  0  0  0  0  0  0
  1 11  1  0  0  0  0
  3 13  1  1  0  0  0
  3 17  1  0  0  0  0
  3 20  1  0  0  0  0
  3 26  1  0  0  0  0
  4 14  1  0  0  0  0
  4 18  1  6  0  0  0
  4 21  2  0  0  0  0
  4 20  1  0  0  0  0
  5 19  1  0  0  0  0
  5  7  1  0  0  0  0
  6  7  2  0  0  0  0
  6 12  1  0  0  0  0
  7  8  1  0  0  0  0
  8  9  1  0  0  0  0
  8 10  2  0  0  0  0
 10 11  1  0  0  0  0
 11 12  2  0  0  0  0
 14 17  1  0  0  0  0
 15 23  1  0  0  0  0
 15 16  1  0  0  0  0
 16 19  1  0  0  0  0
 19 22  1  0  0  0  0
 22  2  1  6  0  0  0
 22 23  1  0  0  0  0
 23 24  1  1  0  0  0
 24 25  1  0  0  0  0
 25 26  1  0  0  0  0
M  CHG  1  18  -1
M  END
>  <CHROM.1>
-33.77855289,78.78275513,-39.90922927,160.48245215,-163.83071473,143.85442677
21.77510195,39.21756142,67.58335762,0.75182003,0.13050652,2.14550251

>  <Name>
ligand

>  <RI>
0

>  <Rbt.Current_Directory>
/home/itssahil/PROJECTS/Mol_Feturizer/New_Systems/rnas/2HOL

>  <Rbt.Executable>
rbdock ($Id: //depot/dev/client3/rdock/2013.1/src/exe/rbdock.cxx#4 $)

>  <Rbt.Library>
libRbt.so (2013.1, Build901 2013/11/27)

>  <Rbt.Parameter_File>
/export/apps/rDock/src/rDock_2013.1_src/data/scripts/dock_solv.prm

>  <Rbt.Receptor>
prm/pocket_docking_8.prm

>  <SCORE>
-17.9899

>  <SCORE.INTER>
-18.3829

>  <SCORE.INTER.CONST>
1

>  <SCORE.INTER.POLAR>
0

>  <SCORE.INTER.ROT>
6

>  <SCORE.INTER.SOLV>
29.9428

>  <SCORE.INTER.VDW>
-29.8362

>  <SCORE.INTER.norm>
-0.707035

>  <SCORE.INTRA>
0.392988

>  <SCORE.INTRA.DIHEDRAL>
-0.21412

>  <SCORE.INTRA.DIHEDRAL.0>
9.33621

>  <SCORE.INTRA.POLAR>
0

>  <SCORE.INTRA.POLAR.0>
0

>  <SCORE.INTRA.REPUL>
0

>  <SCORE.INTRA.REPUL.0>
0

>  <SCORE.INTRA.SOLV>
0.731454

>  <SCORE.INTRA.SOLV.lig_0>
-65.9238

>  <SCORE.INTRA.VDW>
0.134321

>  <SCORE.INTRA.VDW.0>
-0.405582

>  <SCORE.INTRA.norm>
0.0151149

>  <SCORE.RESTR>
0

>  <SCORE.RESTR.CAVITY>
0

>  <SCORE.RESTR.norm>
0

>  <SCORE.SYSTEM>
0

>  <SCORE.SYSTEM.CONST>
0

>  <SCORE.SYSTEM.DIHEDRAL>
0

>  <SCORE.SYSTEM.SOLV>
0

>  <SCORE.SYSTEM.norm>
0

>  <SCORE.heavy>
26

>  <SCORE.norm>
-0.69192

>  <RMSD>
9.483

$$$$
ligand
 OpenBabel11021811443D
libRbt.so/2013.1/901 2013/11/27
 26 28  0  0  0  0  0  0  0  0999 V2000
   31.1937   38.5715   66.9561 C   0  0  0  0  0  0  0  0  0  0  0  0
   23.5726   38.8051   67.4491 C   0  0  0  0  0  0  0  0  0  0  0  0
   19.0181   41.5612   65.1953 P   0  0  1  0  0  0  0  0  0  0  0  0
   17.2694   39.8453   64.3682 P   0  0  1  0  0  0  0  0  0  0  0  0
   25.8813   40.2364   68.1498 C   0  0  0  0  0  0  0  0  0  0  0  0
   28.3255   40.7036   67.8048 C   0  0  0  0  0  0  0  0  0  0  0  0
   27.2869   39.7943   67.8336 C   0  0  0  0  0  0  0  0  0  0  0  0
   27.5719   38.4549   67.5627 C   0  0  0  0  0  0  0  0  0  0  0  0
   26.5638   37.5026   67.5785 N   0  0  0  0  0  0  0  0  0  0  0  0
   28.8243   38.1061   67.2833 N   0  0  0  0  0  0  0  0  0  0  0  0
   29.7861   39.0060   67.2713 C   0  0  0  0  0  0  0  0  0  0  0  0
   29.5499   40.2789   67.5225 N   0  0  0  0  0  0  0  0  0  0  0  0
   18.6378   42.9813   65.3693 O   0  0  0  0  0  0  0  0  0  0  0  0
   16.9856   40.0303   65.8760 O   0  0  0  0  0  0  0  0  0  0  0  0
   24.5219   41.5657   64.8376 S   0  0  0  0  0  0  0  0  0  0  0  0
   25.6581   41.5412   66.1513 C   0  0  0  0  0  0  0  0  0  0  0  0
   18.5451   40.7170   66.4804 O   0  0  0  0  0  0  0  0  0  0  0  0
   15.8953   39.9802   63.5411 O   0  5  0  0  0  0  0  0  0  0  0  0
   25.1850   40.5775   66.9072 N   0  0  0  0  0  0  0  0  0  0  0  0
   18.3069   40.9736   63.8753 O   0  0  0  0  0  0  0  0  0  0  0  0
   17.8786   38.4456   64.1287 O   0  0  0  0  0  0  0  0  0  0  0  0
   24.1027   39.9103   66.5709 C   0  0  2  0  0  0  0  0  0  0  0  0
   23.4687   40.2444   65.4181 C   0  0  2  0  0  0  0  0  0  0  0  0
   22.2257   39.6611   64.7987 C   0  0  0  0  0  0  0  0  0  0  0  0
   20.9925   40.1685   65.5496 C   0  0  0  0  0  0  0  0  0  0  0  0
   20.6166   41.4483   65.0368 O   0  0  0  0  0  0  0  0  0  0  0  0
  1 11  1  0  0  0  0
  3 13  1  1  0  0  0
  3 17  1  0  0  0  0
  3 20  1  0  0  0  0
  3 26  1  0  0  0  0
  4 14  1  0  0  0  0
  4 18  1  6  0  0  0
  4 21  2  0  0  0  0
  4 20  1  0  0  0  0
  5 19  1  0  0  0  0
  5  7  1  0  0  0  0
  6  7  2  0  0  0  0
  6 12  1  0  0  0  0
  7  8  1  0  0  0  0
  8  9  1  0  0  0  0
  8 10  2  0  0  0  0
 10 11  1  0  0  0  0
 11 12  2  0  0  0  0
 14 17  1  0  0  0  0
 15 23  1  0  0  0  0
 15 16  1  0  0  0  0
 16 19  1  0  0  0  0
 19 22  1  0  0  0  0
 22  2  1  1  0  0  0
 22 23  1  0  0  0  0
 23 24  1  6  0  0  0
 24 25  1  0  0  0  0
 25 26  1  0  0  0  0
M  CHG  1  18  -1
M  END
>  <CHROM.1>
-60.55734292,91.09052901,-103.99574642,83.95304804,149.18564227,150.84263959
22.74068539,40.17884688,65.90646578,0.14726858,0.21517751,2.94723996

>  <Name>
ligand

>  <RI>
0

>  <Rbt.Current_Directory>
/home/itssahil/PROJECTS/Mol_Feturizer/New_Systems/rnas/2HOL

>  <Rbt.Executable>
rbdock ($Id: //depot/dev/client3/rdock/2013.1/src/exe/rbdock.cxx#4 $)

>  <Rbt.Library>
libRbt.so (2013.1, Build901 2013/11/27)

>  <Rbt.Parameter_File>
/export/apps/rDock/src/rDock_2013.1_src/data/scripts/dock_solv.prm

>  <Rbt.Receptor>
prm/pocket_docking_2.prm

>  <SCORE>
-6.89379

>  <SCORE.INTER>
-9.07245

>  <SCORE.INTER.CONST>
1

>  <SCORE.INTER.POLAR>
0

>  <SCORE.INTER.ROT>
6

>  <SCORE.INTER.SOLV>
30.5814

>  <SCORE.INTER.VDW>
-23.8421

>  <SCORE.INTER.norm>
-0.34894

>  <SCORE.INTRA>
0.951813

>  <SCORE.INTRA.DIHEDRAL>
2.13691

>  <SCORE.INTRA.DIHEDRAL.0>
9.33621

>  <SCORE.INTRA.POLAR>
0

>  <SCORE.INTRA.POLAR.0>
0

>  <SCORE.INTRA.REPUL>
0

>  <SCORE.INTRA.REPUL.0>
0

>  <SCORE.INTRA.SOLV>
2.46937

>  <SCORE.INTRA.SOLV.lig_0>
-65.9238

>  <SCORE.INTRA.VDW>
-1.35133

>  <SCORE.INTRA.VDW.0>
-0.405582

>  <SCORE.INTRA.norm>
0.0366082

>  <SCORE.RESTR>
1.22685

>  <SCORE.RESTR.CAVITY>
1.22685

>  <SCORE.RESTR.norm>
0.0471865

>  <SCORE.SYSTEM>
0

>  <SCORE.SYSTEM.CONST>
0

>  <SCORE.SYSTEM.DIHEDRAL>
0

>  <SCORE.SYSTEM.SOLV>
0

>  <SCORE.SYSTEM.norm>
0

>  <SCORE.heavy>
26

>  <SCORE.norm>
-0.265146

>  <RMSD>
9.506

$$$$
ligand
 OpenBabel11021811443D
libRbt.so/2013.1/901 2013/11/27
 26 28  0  0  0  0  0  0  0  0999 V2000
   31.4388   40.0519   66.7029 C   0  0  0  0  0  0  0  0  0  0  0  0
   24.5708   42.6468   67.8343 C   0  0  0  0  0  0  0  0  0  0  0  0
   19.1780   41.9972   65.3012 P   0  0  1  0  0  0  0  0  0  0  0  0
   17.5604   40.1758   64.4338 P   0  0  1  0  0  0  0  0  0  0  0  0
   26.7705   43.2741   66.2103 C   0  0  0  0  0  0  0  0  0  0  0  0
   28.9353   42.3586   65.3231 C   0  0  0  0  0  0  0  0  0  0  0  0
   28.0057   42.4207   66.3420 C   0  0  0  0  0  0  0  0  0  0  0  0
   28.2391   41.6732   67.4976 C   0  0  0  0  0  0  0  0  0  0  0  0
   27.3356   41.7010   68.5495 N   0  0  0  0  0  0  0  0  0  0  0  0
   29.3384   40.9289   67.5728 N   0  0  0  0  0  0  0  0  0  0  0  0
   30.2018   40.9026   66.5784 C   0  0  0  0  0  0  0  0  0  0  0  0
   30.0106   41.5967   65.4735 N   0  0  0  0  0  0  0  0  0  0  0  0
   18.6698   43.3527   65.6112 O   0  0  0  0  0  0  0  0  0  0  0  0
   17.3548   40.2156   65.9649 O   0  0  0  0  0  0  0  0  0  0  0  0
   24.2755   41.1834   64.2130 S   0  0  0  0  0  0  0  0  0  0  0  0
   25.7594   42.0661   64.4036 C   0  0  0  0  0  0  0  0  0  0  0  0
   18.8731   41.0135   66.5371 O   0  0  0  0  0  0  0  0  0  0  0  0
   16.1304   40.2290   63.6969 O   0  5  0  0  0  0  0  0  0  0  0  0
   25.6804   42.4729   65.6494 N   0  0  0  0  0  0  0  0  0  0  0  0
   18.4473   41.4403   63.9785 O   0  0  0  0  0  0  0  0  0  0  0  0
   18.2897   38.8695   64.0476 O   0  0  0  0  0  0  0  0  0  0  0  0
   24.6461   42.1733   66.4046 C   0  0  2  0  0  0  0  0  0  0  0  0
   23.6436   41.4340   65.8653 C   0  0  2  0  0  0  0  0  0  0  0  0
   22.3583   40.9548   66.4876 C   0  0  0  0  0  0  0  0  0  0  0  0
   21.2951   40.7841   65.4003 C   0  0  0  0  0  0  0  0  0  0  0  0
   20.7666   42.0639   65.0467 O   0  0  0  0  0  0  0  0  0  0  0  0
  1 11  1  0  0  0  0
  3 13  1  1  0  0  0
  3 17  1  0  0  0  0
  3 20  1  0  0  0  0
  3 26  1  0  0  0  0
  4 14  1  0  0  0  0
  4 18  1  6  0  0  0
  4 21  2  0  0  0  0
  4 20  1  0  0  0  0
  5 19  1  0  0  0  0
  5  7  1  0  0  0  0
  6  7  2  0  0  0  0
  6 12  1  0  0  0  0
  7  8  1  0  0  0  0
  8  9  1  0  0  0  0
  8 10  2  0  0  0  0
 10 11  1  0  0  0  0
 11 12  2  0  0  0  0
 14 17  1  0  0  0  0
 15 23  1  0  0  0  0
 15 16  1  0  0  0  0
 16 19  1  0  0  0  0
 19 22  1  0  0  0  0
 22  2  1  6  0  0  0
 22 23  1  0  0  0  0
 23 24  1  1  0  0  0
 24 25  1  0  0  0  0
 25 26  1  0  0  0  0
M  CHG  1  18  -1
M  END
>  <CHROM.1>
-68.26370936,91.61384959,-27.79327371,-78.11479145,-122.24248897,152.25618188
23.07587322,41.39007312,65.63812144,-0.16425851,0.04678398,-2.25995825

>  <Name>
ligand

>  <RI>
0

>  <Rbt.Current_Directory>
/home/itssahil/PROJECTS/Mol_Feturizer/New_Systems/rnas/2HOL

>  <Rbt.Executable>
rbdock ($Id: //depot/dev/client3/rdock/2013.1/src/exe/rbdock.cxx#4 $)

>  <Rbt.Library>
libRbt.so (2013.1, Build901 2013/11/27)

>  <Rbt.Parameter_File>
/export/apps/rDock/src/rDock_2013.1_src/data/scripts/dock_solv.prm

>  <Rbt.Receptor>
prm/pocket_docking_4.prm

>  <SCORE>
-8.36248

>  <SCORE.INTER>
-11.0459

>  <SCORE.INTER.CONST>
1

>  <SCORE.INTER.POLAR>
0

>  <SCORE.INTER.ROT>
6

>  <SCORE.INTER.SOLV>
28.0974

>  <SCORE.INTER.VDW>
-24.3297

>  <SCORE.INTER.norm>
-0.42484

>  <SCORE.INTRA>
2.68337

>  <SCORE.INTRA.DIHEDRAL>
4.86352

>  <SCORE.INTRA.DIHEDRAL.0>
9.33621

>  <SCORE.INTRA.POLAR>
0

>  <SCORE.INTRA.POLAR.0>
0

>  <SCORE.INTRA.REPUL>
0

>  <SCORE.INTRA.REPUL.0>
0

>  <SCORE.INTRA.SOLV>
2.87832

>  <SCORE.INTRA.SOLV.lig_0>
-65.9238

>  <SCORE.INTRA.VDW>
-1.18755

>  <SCORE.INTRA.VDW.0>
-0.405582

>  <SCORE.INTRA.norm>
0.103206

>  <SCORE.RESTR>
0

>  <SCORE.RESTR.CAVITY>
0

>  <SCORE.RESTR.norm>
0

>  <SCORE.SYSTEM>
0

>  <SCORE.SYSTEM.CONST>
0

>  <SCORE.SYSTEM.DIHEDRAL>
0

>  <SCORE.SYSTEM.SOLV>
0

>  <SCORE.SYSTEM.norm>
0

>  <SCORE.heavy>
26

>  <SCORE.norm>
-0.321634

>  <RMSD>
9.508

$$$$
ligand
 OpenBabel11021811443D
libRbt.so/2013.1/901 2013/11/27
 26 28  0  0  0  0  0  0  0  0999 V2000
   31.0675   38.8135   67.0239 C   0  0  0  0  0  0  0  0  0  0  0  0
   22.7766   38.5540   68.7494 C   0  0  0  0  0  0  0  0  0  0  0  0
   18.8496   41.6829   65.2365 P   0  0  1  0  0  0  0  0  0  0  0  0
   17.2846   39.8314   64.3370 P   0  0  1  0  0  0  0  0  0  0  0  0
   25.5629   38.4637   68.4363 C   0  0  0  0  0  0  0  0  0  0  0  0
   27.5334   37.8126   67.0203 C   0  0  0  0  0  0  0  0  0  0  0  0
   27.0201   38.5572   68.0636 C   0  0  0  0  0  0  0  0  0  0  0  0
   27.8853   39.3992   68.7643 C   0  0  0  0  0  0  0  0  0  0  0  0
   27.4192   40.1676   69.8207 N   0  0  0  0  0  0  0  0  0  0  0  0
   29.1654   39.4496   68.4076 N   0  0  0  0  0  0  0  0  0  0  0  0
   29.6120   38.7252   67.4022 C   0  0  0  0  0  0  0  0  0  0  0  0
   28.8209   37.9199   66.7205 N   0  0  0  0  0  0  0  0  0  0  0  0
   18.3086   43.0268   65.5414 O   0  0  0  0  0  0  0  0  0  0  0  0
   17.0525   39.8625   65.8645 O   0  0  0  0  0  0  0  0  0  0  0  0
   24.0937   41.0006   65.9887 S   0  0  0  0  0  0  0  0  0  0  0  0
   25.4060   40.1236   66.7141 C   0  0  0  0  0  0  0  0  0  0  0  0
   18.5442   40.6896   66.4644 O   0  0  0  0  0  0  0  0  0  0  0  0
   15.8665   39.8575   63.5762 O   0  5  0  0  0  0  0  0  0  0  0  0
   24.7837   39.3744   67.5947 N   0  0  0  0  0  0  0  0  0  0  0  0
   18.1530   41.1151   63.9002 O   0  0  0  0  0  0  0  0  0  0  0  0
   18.0470   38.5414   63.9599 O   0  0  0  0  0  0  0  0  0  0  0  0
   23.4768   39.4218   67.7343 C   0  0  2  0  0  0  0  0  0  0  0  0
   22.7726   40.2758   66.9486 C   0  0  2  0  0  0  0  0  0  0  0  0
   21.2900   40.5368   66.8974 C   0  0  0  0  0  0  0  0  0  0  0  0
   21.0341   41.9229   66.3015 C   0  0  0  0  0  0  0  0  0  0  0  0
   20.4407   41.7828   65.0091 O   0  0  0  0  0  0  0  0  0  0  0  0
  1 11  1  0  0  0  0
  3 13  1  1  0  0  0
  3 17  1  0  0  0  0
  3 20  1  0  0  0  0
  3 26  1  0  0  0  0
  4 14  1  0  0  0  0
  4 18  1  6  0  0  0
  4 21  2  0  0  0  0
  4 20  1  0  0  0  0
  5 19  1  0  0  0  0
  5  7  1  0  0  0  0
  6  7  2  0  0  0  0
  6 12  1  0  0  0  0
  7  8  1  0  0  0  0
  8  9  1  0  0  0  0
  8 10  2  0  0  0  0
 10 11  1  0  0  0  0
 11 12  2  0  0  0  0
 14 17  1  0  0  0  0
 15 23  1  0  0  0  0
 15 16  1  0  0  0  0
 16 19  1  0  0  0  0
 19 22  1  0  0  0  0
 22  2  1  1  0  0  0
 22 23  1  0  0  0  0
 23 24  1  6  0  0  0
 24 25  1  0  0  0  0
 25 26  1  0  0  0  0
M  CHG  1  18  -1
M  END
>  <CHROM.1>
-1.57822452,-84.87779407,-23.00021990,110.49282550,87.33308338,75.90362318
22.53595074,40.04502303,66.37489792,0.08220169,0.31155236,-2.90480083

>  <Name>
ligand

>  <RI>
0

>  <Rbt.Current_Directory>
/home/itssahil/PROJECTS/Mol_Feturizer/New_Systems/rnas/2HOL

>  <Rbt.Executable>
rbdock ($Id: //depot/dev/client3/rdock/2013.1/src/exe/rbdock.cxx#4 $)

>  <Rbt.Library>
libRbt.so (2013.1, Build901 2013/11/27)

>  <Rbt.Parameter_File>
/export/apps/rDock/src/rDock_2013.1_src/data/scripts/dock_solv.prm

>  <Rbt.Receptor>
prm/pocket_docking_2.prm

>  <SCORE>
-9.57297

>  <SCORE.INTER>
-12.8534

>  <SCORE.INTER.CONST>
1

>  <SCORE.INTER.POLAR>
0

>  <SCORE.INTER.ROT>
6

>  <SCORE.INTER.SOLV>
30.4253

>  <SCORE.INTER.VDW>
-26.3107

>  <SCORE.INTER.norm>
-0.494361

>  <SCORE.INTRA>
3.10217

>  <SCORE.INTRA.DIHEDRAL>
4.07909

>  <SCORE.INTRA.DIHEDRAL.0>
9.33621

>  <SCORE.INTRA.POLAR>
0

>  <SCORE.INTRA.POLAR.0>
0

>  <SCORE.INTRA.REPUL>
0

>  <SCORE.INTRA.REPUL.0>
0

>  <SCORE.INTRA.SOLV>
0.22044

>  <SCORE.INTRA.SOLV.lig_0>
-65.9238

>  <SCORE.INTRA.VDW>
0.952404

>  <SCORE.INTRA.VDW.0>
-0.405582

>  <SCORE.INTRA.norm>
0.119314

>  <SCORE.RESTR>
0.178254

>  <SCORE.RESTR.CAVITY>
0.178254

>  <SCORE.RESTR.norm>
0.00685594

>  <SCORE.SYSTEM>
0

>  <SCORE.SYSTEM.CONST>
0

>  <SCORE.SYSTEM.DIHEDRAL>
0

>  <SCORE.SYSTEM.SOLV>
0

>  <SCORE.SYSTEM.norm>
0

>  <SCORE.heavy>
26

>  <SCORE.norm>
-0.368191

>  <RMSD>
9.541

$$$$
ligand
 OpenBabel11021811443D
libRbt.so/2013.1/901 2013/11/27
 26 28  0  0  0  0  0  0  0  0999 V2000
   30.8510   35.7721   64.4375 C   0  0  0  0  0  0  0  0  0  0  0  0
   25.2333   39.2627   65.2028 C   0  0  0  0  0  0  0  0  0  0  0  0
   19.6604   40.0107   65.5997 P   0  0  1  0  0  0  0  0  0  0  0  0
   17.3171   40.1067   64.5105 P   0  0  1  0  0  0  0  0  0  0  0  0
   27.2849   39.3119   67.1154 C   0  0  0  0  0  0  0  0  0  0  0  0
   27.7552   37.4164   65.5350 C   0  0  0  0  0  0  0  0  0  0  0  0
   28.2300   38.3755   66.4073 C   0  0  0  0  0  0  0  0  0  0  0  0
   29.6078   38.4563   66.6165 C   0  0  0  0  0  0  0  0  0  0  0  0
   30.1349   39.4020   67.4832 N   0  0  0  0  0  0  0  0  0  0  0  0
   30.4078   37.6085   65.9765 N   0  0  0  0  0  0  0  0  0  0  0  0
   29.9124   36.7114   65.1489 C   0  0  0  0  0  0  0  0  0  0  0  0
   28.6161   36.6091   64.9297 N   0  0  0  0  0  0  0  0  0  0  0  0
   20.1755   41.1763   66.3532 O   0  0  0  0  0  0  0  0  0  0  0  0
   17.0664   39.7956   66.0033 O   0  0  0  0  0  0  0  0  0  0  0  0
   24.3171   37.3403   68.4902 S   0  0  0  0  0  0  0  0  0  0  0  0
   25.9138   38.0163   68.5944 C   0  0  0  0  0  0  0  0  0  0  0  0
   18.6713   39.1581   66.5391 O   0  0  0  0  0  0  0  0  0  0  0  0
   16.3644   41.3176   64.0453 O   0  5  0  0  0  0  0  0  0  0  0  0
   26.0404   38.6060   67.4281 N   0  0  0  0  0  0  0  0  0  0  0  0
   18.8582   40.5238   64.3010 O   0  0  0  0  0  0  0  0  0  0  0  0
   17.0038   38.8518   63.6650 O   0  0  0  0  0  0  0  0  0  0  0  0
   25.0732   38.5793   66.5374 C   0  0  2  0  0  0  0  0  0  0  0  0
   23.9293   37.9158   66.8438 C   0  0  2  0  0  0  0  0  0  0  0  0
   22.6797   37.7221   66.0255 C   0  0  0  0  0  0  0  0  0  0  0  0
   21.7108   38.8772   66.2886 C   0  0  0  0  0  0  0  0  0  0  0  0
   20.8925   39.0836   65.1354 O   0  0  0  0  0  0  0  0  0  0  0  0
  1 11  1  0  0  0  0
  3 13  1  1  0  0  0
  3 17  1  0  0  0  0
  3 20  1  0  0  0  0
  3 26  1  0  0  0  0
  4 14  1  0  0  0  0
  4 18  1  6  0  0  0
  4 21  2  0  0  0  0
  4 20  1  0  0  0  0
  5 19  1  0  0  0  0
  5  7  1  0  0  0  0
  6  7  2  0  0  0  0
  6 12  1  0  0  0  0
  7  8  1  0  0  0  0
  8  9  1  0  0  0  0
  8 10  2  0  0  0  0
 10 11  1  0  0  0  0
 11 12  2  0  0  0  0
 14 17  1  0  0  0  0
 15 23  1  0  0  0  0
 15 16  1  0  0  0  0
 16 19  1  0  0  0  0
 19 22  1  0  0  0  0
 22  2  1  6  0  0  0
 22 23  1  0  0  0  0
 23 24  1  1  0  0  0
 24 25  1  0  0  0  0
 25 26  1  0  0  0  0
M  CHG  1  18  -1
M  END
>  <CHROM.1>
92.49693215,34.95886923,90.64281813,151.85434369,165.08034398,48.95956975
23.28393192,38.80807618,65.95277684,-0.09875160,0.22277709,-1.63506750

>  <Name>
ligand

>  <RI>
0

>  <Rbt.Current_Directory>
/home/itssahil/PROJECTS/Mol_Feturizer/New_Systems/rnas/2HOL

>  <Rbt.Executable>
rbdock ($Id: //depot/dev/client3/rdock/2013.1/src/exe/rbdock.cxx#4 $)

>  <Rbt.Library>
libRbt.so (2013.1, Build901 2013/11/27)

>  <Rbt.Parameter_File>
/export/apps/rDock/src/rDock_2013.1_src/data/scripts/dock_solv.prm

>  <Rbt.Receptor>
prm/pocket_docking_7.prm

>  <SCORE>
-19.9338

>  <SCORE.INTER>
-18.3019

>  <SCORE.INTER.CONST>
1

>  <SCORE.INTER.POLAR>
0

>  <SCORE.INTER.ROT>
6

>  <SCORE.INTER.SOLV>
28.3395

>  <SCORE.INTER.VDW>
-29.2478

>  <SCORE.INTER.norm>
-0.703919

>  <SCORE.INTRA>
-1.63673

>  <SCORE.INTRA.DIHEDRAL>
-0.760437

>  <SCORE.INTRA.DIHEDRAL.0>
9.33621

>  <SCORE.INTRA.POLAR>
0

>  <SCORE.INTRA.POLAR.0>
0

>  <SCORE.INTRA.REPUL>
0

>  <SCORE.INTRA.REPUL.0>
0

>  <SCORE.INTRA.SOLV>
-0.728653

>  <SCORE.INTRA.SOLV.lig_0>
-65.9238

>  <SCORE.INTRA.VDW>
-0.892188

>  <SCORE.INTRA.VDW.0>
-0.405582

>  <SCORE.INTRA.norm>
-0.0629513

>  <SCORE.RESTR>
0.00480602

>  <SCORE.RESTR.CAVITY>
0.00480602

>  <SCORE.RESTR.norm>
0.000184847

>  <SCORE.SYSTEM>
0

>  <SCORE.SYSTEM.CONST>
0

>  <SCORE.SYSTEM.DIHEDRAL>
0

>  <SCORE.SYSTEM.SOLV>
0

>  <SCORE.SYSTEM.norm>
0

>  <SCORE.heavy>
26

>  <SCORE.norm>
-0.766686

>  <RMSD>
9.587

$$$$
ligand
 OpenBabel11021811443D
libRbt.so/2013.1/901 2013/11/27
 26 28  0  0  0  0  0  0  0  0999 V2000
   28.6163   40.8018   72.6670 C   0  0  0  0  0  0  0  0  0  0  0  0
   25.8149   38.2691   65.8045 C   0  0  0  0  0  0  0  0  0  0  0  0
   19.1736   40.0294   65.0573 P   0  0  1  0  0  0  0  0  0  0  0  0
   16.7568   39.2637   64.5484 P   0  0  1  0  0  0  0  0  0  0  0  0
   26.6345   37.5936   68.4010 C   0  0  0  0  0  0  0  0  0  0  0  0
   26.8564   38.1437   70.8423 C   0  0  0  0  0  0  0  0  0  0  0  0
   27.1597   38.4437   69.5292 C   0  0  0  0  0  0  0  0  0  0  0  0
   27.9656   39.5544   69.2730 C   0  0  0  0  0  0  0  0  0  0  0  0
   28.2986   39.8984   67.9714 N   0  0  0  0  0  0  0  0  0  0  0  0
   28.4048   40.2818   70.2958 N   0  0  0  0  0  0  0  0  0  0  0  0
   28.0949   39.9567   71.5341 C   0  0  0  0  0  0  0  0  0  0  0  0
   27.3358   38.9142   71.8096 N   0  0  0  0  0  0  0  0  0  0  0  0
   19.4879   41.4725   65.1578 O   0  0  0  0  0  0  0  0  0  0  0  0
   16.7765   39.5929   66.0581 O   0  0  0  0  0  0  0  0  0  0  0  0
   22.8850   38.3196   68.4037 S   0  0  0  0  0  0  0  0  0  0  0  0
   24.3815   37.8797   69.1681 C   0  0  0  0  0  0  0  0  0  0  0  0
   18.5411   39.5193   66.4457 O   0  0  0  0  0  0  0  0  0  0  0  0
   15.4933   39.9821   63.8571 O   0  5  0  0  0  0  0  0  0  0  0  0
   25.2254   37.9139   68.1628 N   0  0  0  0  0  0  0  0  0  0  0  0
   18.1159   39.7927   63.8662 O   0  0  0  0  0  0  0  0  0  0  0  0
   16.6465   37.7342   64.3580 O   0  0  0  0  0  0  0  0  0  0  0  0
   24.8333   38.2329   66.9486 C   0  0  2  0  0  0  0  0  0  0  0  0
   23.5224   38.5216   66.7469 C   0  0  2  0  0  0  0  0  0  0  0  0
   22.8054   38.9086   65.4800 C   0  0  0  0  0  0  0  0  0  0  0  0
   21.4234   39.4686   65.8239 C   0  0  0  0  0  0  0  0  0  0  0  0
   20.5221   39.2059   64.7465 O   0  0  0  0  0  0  0  0  0  0  0  0
  1 11  1  0  0  0  0
  3 13  1  1  0  0  0
  3 17  1  0  0  0  0
  3 20  1  0  0  0  0
  3 26  1  0  0  0  0
  4 14  1  0  0  0  0
  4 18  1  6  0  0  0
  4 21  2  0  0  0  0
  4 20  1  0  0  0  0
  5 19  1  0  0  0  0
  5  7  1  0  0  0  0
  6  7  2  0  0  0  0
  6 12  1  0  0  0  0
  7  8  1  0  0  0  0
  8  9  1  0  0  0  0
  8 10  2  0  0  0  0
 10 11  1  0  0  0  0
 11 12  2  0  0  0  0
 14 17  1  0  0  0  0
 15 23  1  0  0  0  0
 15 16  1  0  0  0  0
 16 19  1  0  0  0  0
 19 22  1  0  0  0  0
 22  2  1  6  0  0  0
 22 23  1  0  0  0  0
 23 24  1  1  0  0  0
 24 25  1  0  0  0  0
 25 26  1  0  0  0  0
M  CHG  1  18  -1
M  END
>  <CHROM.1>
-52.80234874,77.12803408,13.95680211,-150.80507943,-170.58655703,59.31289046
22.46081888,39.18071570,67.11927262,0.47405750,-0.15468790,1.34191554

>  <Name>
ligand

>  <RI>
0

>  <Rbt.Current_Directory>
/home/itssahil/PROJECTS/Mol_Feturizer/New_Systems/rnas/2HOL

>  <Rbt.Executable>
rbdock ($Id: //depot/dev/client3/rdock/2013.1/src/exe/rbdock.cxx#4 $)

>  <Rbt.Library>
libRbt.so (2013.1, Build901 2013/11/27)

>  <Rbt.Parameter_File>
/export/apps/rDock/src/rDock_2013.1_src/data/scripts/dock_solv.prm

>  <Rbt.Receptor>
prm/pocket_docking_5.prm

>  <SCORE>
-19.6888

>  <SCORE.INTER>
-18.5049

>  <SCORE.INTER.CONST>
1

>  <SCORE.INTER.POLAR>
0

>  <SCORE.INTER.ROT>
6

>  <SCORE.INTER.SOLV>
29.9725

>  <SCORE.INTER.VDW>
-29.9274

>  <SCORE.INTER.norm>
-0.711726

>  <SCORE.INTRA>
-1.2718

>  <SCORE.INTRA.DIHEDRAL>
-1.6157

>  <SCORE.INTRA.DIHEDRAL.0>
9.33621

>  <SCORE.INTRA.POLAR>
0

>  <SCORE.INTRA.POLAR.0>
0

>  <SCORE.INTRA.REPUL>
0

>  <SCORE.INTRA.REPUL.0>
0

>  <SCORE.INTRA.SOLV>
0.79662

>  <SCORE.INTRA.SOLV.lig_0>
-65.9238

>  <SCORE.INTRA.VDW>
-0.862264

>  <SCORE.INTRA.VDW.0>
-0.405582

>  <SCORE.INTRA.norm>
-0.0489155

>  <SCORE.RESTR>
0.0879269

>  <SCORE.RESTR.CAVITY>
0.0879269

>  <SCORE.RESTR.norm>
0.00338181

>  <SCORE.SYSTEM>
0

>  <SCORE.SYSTEM.CONST>
0

>  <SCORE.SYSTEM.DIHEDRAL>
0

>  <SCORE.SYSTEM.SOLV>
0

>  <SCORE.SYSTEM.norm>
0

>  <SCORE.heavy>
26

>  <SCORE.norm>
-0.75726

>  <RMSD>
9.632

$$$$
ligand
 OpenBabel11021811443D
libRbt.so/2013.1/901 2013/11/27
 26 28  0  0  0  0  0  0  0  0999 V2000
   30.9236   37.8527   65.7143 C   0  0  0  0  0  0  0  0  0  0  0  0
   24.6221   41.3329   67.4379 C   0  0  0  0  0  0  0  0  0  0  0  0
   18.7016   40.5194   64.8686 P   0  0  1  0  0  0  0  0  0  0  0  0
   16.6380   39.0351   64.3940 P   0  0  1  0  0  0  0  0  0  0  0  0
   25.9189   38.9625   68.1922 C   0  0  0  0  0  0  0  0  0  0  0  0
   27.4614   37.4744   66.8815 C   0  0  0  0  0  0  0  0  0  0  0  0
   27.2442   38.6700   67.5369 C   0  0  0  0  0  0  0  0  0  0  0  0
   28.2832   39.6014   67.5767 C   0  0  0  0  0  0  0  0  0  0  0  0
   28.1156   40.8171   68.2229 N   0  0  0  0  0  0  0  0  0  0  0  0
   29.4390   39.3034   66.9905 N   0  0  0  0  0  0  0  0  0  0  0  0
   29.6017   38.1520   66.3718 C   0  0  0  0  0  0  0  0  0  0  0  0
   28.6404   37.2509   66.3164 N   0  0  0  0  0  0  0  0  0  0  0  0
   18.6099   41.9884   64.7095 O   0  0  0  0  0  0  0  0  0  0  0  0
   16.4187   39.6060   65.8132 O   0  0  0  0  0  0  0  0  0  0  0  0
   23.2586   38.1724   65.5686 S   0  0  0  0  0  0  0  0  0  0  0  0
   24.5295   37.7382   66.6702 C   0  0  0  0  0  0  0  0  0  0  0  0
   18.0916   40.0943   66.2951 O   0  0  0  0  0  0  0  0  0  0  0  0
   15.3049   39.2452   63.5171 O   0  5  0  0  0  0  0  0  0  0  0  0
   24.8534   38.8998   67.1894 N   0  0  0  0  0  0  0  0  0  0  0  0
   17.8692   39.7999   63.6926 O   0  0  0  0  0  0  0  0  0  0  0  0
   16.9571   37.5264   64.4914 O   0  0  0  0  0  0  0  0  0  0  0  0
   24.2395   40.0064   66.8313 C   0  0  2  0  0  0  0  0  0  0  0  0
   23.2580   39.9286   65.8969 C   0  0  2  0  0  0  0  0  0  0  0  0
   22.4036   41.0186   65.3047 C   0  0  0  0  0  0  0  0  0  0  0  0
   20.9535   40.8365   65.7585 C   0  0  0  0  0  0  0  0  0  0  0  0
   20.2443   40.0650   64.7869 O   0  0  0  0  0  0  0  0  0  0  0  0
  1 11  1  0  0  0  0
  3 13  1  6  0  0  0
  3 17  1  0  0  0  0
  3 20  1  0  0  0  0
  3 26  1  0  0  0  0
  4 14  1  0  0  0  0
  4 18  1  6  0  0  0
  4 21  2  0  0  0  0
  4 20  1  0  0  0  0
  5 19  1  0  0  0  0
  5  7  1  0  0  0  0
  6  7  2  0  0  0  0
  6 12  1  0  0  0  0
  7  8  1  0  0  0  0
  8  9  1  0  0  0  0
  8 10  2  0  0  0  0
 10 11  1  0  0  0  0
 11 12  2  0  0  0  0
 14 17  1  0  0  0  0
 15 23  1  0  0  0  0
 15 16  1  0  0  0  0
 16 19  1  0  0  0  0
 19 22  1  0  0  0  0
 22  2  1  6  0  0  0
 22 23  1  0  0  0  0
 23 24  1  1  0  0  0
 24 25  1  0  0  0  0
 25 26  1  0  0  0  0
M  CHG  1  18  -1
M  END
>  <CHROM.1>
69.39006428,-58.84287779,67.59639413,-93.01429568,-151.46785007,54.17373122
22.46420206,39.39407772,65.83875362,0.00729434,0.22519524,-2.79407433

>  <Name>
ligand

>  <RI>
0

>  <Rbt.Current_Directory>
/home/itssahil/PROJECTS/Mol_Feturizer/New_Systems/rnas/2HOL

>  <Rbt.Executable>
rbdock ($Id: //depot/dev/client3/rdock/2013.1/src/exe/rbdock.cxx#4 $)

>  <Rbt.Library>
libRbt.so (2013.1, Build901 2013/11/27)

>  <Rbt.Parameter_File>
/export/apps/rDock/src/rDock_2013.1_src/data/scripts/dock_solv.prm

>  <Rbt.Receptor>
prm/pocket_docking_3.prm

>  <SCORE>
-14.5361

>  <SCORE.INTER>
-14.5695

>  <SCORE.INTER.CONST>
1

>  <SCORE.INTER.POLAR>
0

>  <SCORE.INTER.ROT>
6

>  <SCORE.INTER.SOLV>
30.2312

>  <SCORE.INTER.VDW>
-27.39

>  <SCORE.INTER.norm>
-0.560365

>  <SCORE.INTRA>
0.0334257

>  <SCORE.INTRA.DIHEDRAL>
2.37216

>  <SCORE.INTRA.DIHEDRAL.0>
9.33621

>  <SCORE.INTRA.POLAR>
0

>  <SCORE.INTRA.POLAR.0>
0

>  <SCORE.INTRA.REPUL>
0

>  <SCORE.INTRA.REPUL.0>
0

>  <SCORE.INTRA.SOLV>
0.740848

>  <SCORE.INTRA.SOLV.lig_0>
-65.9238

>  <SCORE.INTRA.VDW>
-1.52308

>  <SCORE.INTRA.VDW.0>
-0.405582

>  <SCORE.INTRA.norm>
0.0012856

>  <SCORE.RESTR>
0

>  <SCORE.RESTR.CAVITY>
0

>  <SCORE.RESTR.norm>
0

>  <SCORE.SYSTEM>
0

>  <SCORE.SYSTEM.CONST>
0

>  <SCORE.SYSTEM.DIHEDRAL>
0

>  <SCORE.SYSTEM.SOLV>
0

>  <SCORE.SYSTEM.norm>
0

>  <SCORE.heavy>
26

>  <SCORE.norm>
-0.55908

>  <RMSD>
9.660

$$$$
ligand
 OpenBabel11021811443D
libRbt.so/2013.1/901 2013/11/27
 26 28  0  0  0  0  0  0  0  0999 V2000
   30.6587   45.5373   62.8287 C   0  0  0  0  0  0  0  0  0  0  0  0
   24.5074   41.4266   64.6942 C   0  0  0  0  0  0  0  0  0  0  0  0
   19.0471   41.9655   65.2560 P   0  0  1  0  0  0  0  0  0  0  0  0
   17.7735   39.8593   64.4632 P   0  0  1  0  0  0  0  0  0  0  0  0
   25.6459   42.8504   62.5620 C   0  0  0  0  0  0  0  0  0  0  0  0
   27.4299   44.3168   61.5727 C   0  0  0  0  0  0  0  0  0  0  0  0
   26.9730   43.5610   62.6340 C   0  0  0  0  0  0  0  0  0  0  0  0
   27.7714   43.4720   63.7756 C   0  0  0  0  0  0  0  0  0  0  0  0
   27.3578   42.7249   64.8684 N   0  0  0  0  0  0  0  0  0  0  0  0
   28.9380   44.1098   63.7977 N   0  0  0  0  0  0  0  0  0  0  0  0
   29.3333   44.8242   62.7640 C   0  0  0  0  0  0  0  0  0  0  0  0
   28.6029   44.9282   61.6710 N   0  0  0  0  0  0  0  0  0  0  0  0
   18.3343   43.2562   65.3887 O   0  0  0  0  0  0  0  0  0  0  0  0
   17.4332   40.0076   65.9633 O   0  0  0  0  0  0  0  0  0  0  0  0
   23.2286   45.1212   64.4556 S   0  0  0  0  0  0  0  0  0  0  0  0
   24.3714   44.7802   63.1926 C   0  0  0  0  0  0  0  0  0  0  0  0
   18.7737   41.0641   66.5601 O   0  0  0  0  0  0  0  0  0  0  0  0
   16.4185   39.6393   63.6229 O   0  5  0  0  0  0  0  0  0  0  0  0
   24.6814   43.5270   63.4320 N   0  0  0  0  0  0  0  0  0  0  0  0
   18.5159   41.1918   63.9473 O   0  0  0  0  0  0  0  0  0  0  0  0
   18.7044   38.6420   64.2660 O   0  0  0  0  0  0  0  0  0  0  0  0
   24.1421   42.8661   64.4330 C   0  0  2  0  0  0  0  0  0  0  0  0
   23.2540   43.5119   65.2311 C   0  0  2  0  0  0  0  0  0  0  0  0
   22.4976   43.0103   66.4332 C   0  0  0  0  0  0  0  0  0  0  0  0
   20.9933   43.1199   66.1743 C   0  0  0  0  0  0  0  0  0  0  0  0
   20.6279   42.2367   65.1120 O   0  0  0  0  0  0  0  0  0  0  0  0
  1 11  1  0  0  0  0
  3 13  1  1  0  0  0
  3 17  1  0  0  0  0
  3 20  1  0  0  0  0
  3 26  1  0  0  0  0
  4 14  1  0  0  0  0
  4 18  1  6  0  0  0
  4 21  2  0  0  0  0
  4 20  1  0  0  0  0
  5 19  1  0  0  0  0
  5  7  1  0  0  0  0
  6  7  2  0  0  0  0
  6 12  1  0  0  0  0
  7  8  1  0  0  0  0
  8  9  1  0  0  0  0
  8 10  2  0  0  0  0
 10 11  1  0  0  0  0
 11 12  2  0  0  0  0
 14 17  1  0  0  0  0
 15 23  1  0  0  0  0
 15 16  1  0  0  0  0
 16 19  1  0  0  0  0
 19 22  1  0  0  0  0
 22  2  1  1  0  0  0
 22 23  1  0  0  0  0
 23 24  1  6  0  0  0
 24 25  1  0  0  0  0
 25 26  1  0  0  0  0
M  CHG  1  18  -1
M  END
>  <CHROM.1>
61.20245442,-108.02853287,59.67095146,65.35645295,158.79011109,50.11846912
22.66876361,42.60704940,64.31283995,-0.21649067,-0.33559082,-2.63485073

>  <Name>
ligand

>  <RI>
0

>  <Rbt.Current_Directory>
/home/itssahil/PROJECTS/Mol_Feturizer/New_Systems/rnas/2HOL

>  <Rbt.Executable>
rbdock ($Id: //depot/dev/client3/rdock/2013.1/src/exe/rbdock.cxx#4 $)

>  <Rbt.Library>
libRbt.so (2013.1, Build901 2013/11/27)

>  <Rbt.Parameter_File>
/export/apps/rDock/src/rDock_2013.1_src/data/scripts/dock_solv.prm

>  <Rbt.Receptor>
prm/pocket_docking_8.prm

>  <SCORE>
-13.6016

>  <SCORE.INTER>
-12.0699

>  <SCORE.INTER.CONST>
1

>  <SCORE.INTER.POLAR>
0

>  <SCORE.INTER.ROT>
6

>  <SCORE.INTER.SOLV>
26.1411

>  <SCORE.INTER.VDW>
-24.3603

>  <SCORE.INTER.norm>
-0.464228

>  <SCORE.INTRA>
-1.53168

>  <SCORE.INTRA.DIHEDRAL>
-1.90882

>  <SCORE.INTRA.DIHEDRAL.0>
9.33621

>  <SCORE.INTRA.POLAR>
0

>  <SCORE.INTRA.POLAR.0>
0

>  <SCORE.INTRA.REPUL>
0

>  <SCORE.INTRA.REPUL.0>
0

>  <SCORE.INTRA.SOLV>
2.47469

>  <SCORE.INTRA.SOLV.lig_0>
-65.9238

>  <SCORE.INTRA.VDW>
-1.81461

>  <SCORE.INTRA.VDW.0>
-0.405582

>  <SCORE.INTRA.norm>
-0.0589107

>  <SCORE.RESTR>
0

>  <SCORE.RESTR.CAVITY>
0

>  <SCORE.RESTR.norm>
0

>  <SCORE.SYSTEM>
0

>  <SCORE.SYSTEM.CONST>
0

>  <SCORE.SYSTEM.DIHEDRAL>
0

>  <SCORE.SYSTEM.SOLV>
0

>  <SCORE.SYSTEM.norm>
0

>  <SCORE.heavy>
26

>  <SCORE.norm>
-0.523139

>  <RMSD>
9.713

$$$$
ligand
 OpenBabel11021811443D
libRbt.so/2013.1/901 2013/11/27
 26 28  0  0  0  0  0  0  0  0999 V2000
   30.9425   38.2671   66.4697 C   0  0  0  0  0  0  0  0  0  0  0  0
   23.1655   37.6110   68.4378 C   0  0  0  0  0  0  0  0  0  0  0  0
   18.8373   40.4592   64.9008 P   0  0  1  0  0  0  0  0  0  0  0  0
   16.6697   39.1142   64.4775 P   0  0  1  0  0  0  0  0  0  0  0  0
   25.8125   38.3948   68.9365 C   0  0  0  0  0  0  0  0  0  0  0  0
   27.3517   37.7610   67.0548 C   0  0  0  0  0  0  0  0  0  0  0  0
   27.1709   38.3617   68.2847 C   0  0  0  0  0  0  0  0  0  0  0  0
   28.2785   38.9379   68.9092 C   0  0  0  0  0  0  0  0  0  0  0  0
   28.1497   39.5531   70.1455 N   0  0  0  0  0  0  0  0  0  0  0  0
   29.4610   38.8833   68.3035 N   0  0  0  0  0  0  0  0  0  0  0  0
   29.5877   38.3040   67.1273 C   0  0  0  0  0  0  0  0  0  0  0  0
   28.5615   37.7503   66.5112 N   0  0  0  0  0  0  0  0  0  0  0  0
   18.8242   41.9361   64.8008 O   0  0  0  0  0  0  0  0  0  0  0  0
   16.5535   39.6398   65.9261 O   0  0  0  0  0  0  0  0  0  0  0  0
   24.0283   41.1368   66.9658 S   0  0  0  0  0  0  0  0  0  0  0  0
   25.4057   40.4493   67.7704 C   0  0  0  0  0  0  0  0  0  0  0  0
   18.2736   40.0131   66.3399 O   0  0  0  0  0  0  0  0  0  0  0  0
   15.3100   39.4342   63.6780 O   0  5  0  0  0  0  0  0  0  0  0  0
   24.9341   39.2980   68.1898 N   0  0  0  0  0  0  0  0  0  0  0  0
   17.9079   39.8352   63.7430 O   0  0  0  0  0  0  0  0  0  0  0  0
   16.9043   37.5872   64.5029 O   0  0  0  0  0  0  0  0  0  0  0  0
   23.6921   38.9374   67.9506 C   0  0  2  0  0  0  0  0  0  0  0  0
   22.8920   39.7901   67.2613 C   0  0  2  0  0  0  0  0  0  0  0  0
   21.4492   39.6410   66.8551 C   0  0  0  0  0  0  0  0  0  0  0  0
   21.1406   40.5968   65.7004 C   0  0  0  0  0  0  0  0  0  0  0  0
   20.3450   39.9218   64.7240 O   0  0  0  0  0  0  0  0  0  0  0  0
  1 11  1  0  0  0  0
  3 13  1  6  0  0  0
  3 17  1  0  0  0  0
  3 20  1  0  0  0  0
  3 26  1  0  0  0  0
  4 14  1  0  0  0  0
  4 18  1  6  0  0  0
  4 21  2  0  0  0  0
  4 20  1  0  0  0  0
  5 19  1  0  0  0  0
  5  7  1  0  0  0  0
  6  7  2  0  0  0  0
  6 12  1  0  0  0  0
  7  8  1  0  0  0  0
  8  9  1  0  0  0  0
  8 10  2  0  0  0  0
 10 11  1  0  0  0  0
 11 12  2  0  0  0  0
 14 17  1  0  0  0  0
 15 23  1  0  0  0  0
 15 16  1  0  0  0  0
 16 19  1  0  0  0  0
 19 22  1  0  0  0  0
 22  2  1  1  0  0  0
 22 23  1  0  0  0  0
 23 24  1  6  0  0  0
 24 25  1  0  0  0  0
 25 26  1  0  0  0  0
M  CHG  1  18  -1
M  END
>  <CHROM.1>
-42.60393998,-69.87087335,19.91780202,137.28880327,103.99647727,55.08863115
22.47352582,39.43366554,66.44586519,-0.06735068,0.29648489,-2.63260907

>  <Name>
ligand

>  <RI>
0

>  <Rbt.Current_Directory>
/home/itssahil/PROJECTS/Mol_Feturizer/New_Systems/rnas/2HOL

>  <Rbt.Executable>
rbdock ($Id: //depot/dev/client3/rdock/2013.1/src/exe/rbdock.cxx#4 $)

>  <Rbt.Library>
libRbt.so (2013.1, Build901 2013/11/27)

>  <Rbt.Parameter_File>
/export/apps/rDock/src/rDock_2013.1_src/data/scripts/dock_solv.prm

>  <Rbt.Receptor>
prm/pocket_docking_3.prm

>  <SCORE>
-10.7048

>  <SCORE.INTER>
-12.88

>  <SCORE.INTER.CONST>
1

>  <SCORE.INTER.POLAR>
0

>  <SCORE.INTER.ROT>
6

>  <SCORE.INTER.SOLV>
32.0704

>  <SCORE.INTER.VDW>
-26.8768

>  <SCORE.INTER.norm>
-0.495383

>  <SCORE.INTRA>
2.1752

>  <SCORE.INTRA.DIHEDRAL>
5.90025

>  <SCORE.INTRA.DIHEDRAL.0>
9.33621

>  <SCORE.INTRA.POLAR>
0

>  <SCORE.INTRA.POLAR.0>
0

>  <SCORE.INTRA.REPUL>
0

>  <SCORE.INTRA.REPUL.0>
0

>  <SCORE.INTRA.SOLV>
-0.115575

>  <SCORE.INTRA.SOLV.lig_0>
-65.9238

>  <SCORE.INTRA.VDW>
-0.71714

>  <SCORE.INTRA.VDW.0>
-0.405582

>  <SCORE.INTRA.norm>
0.0836614

>  <SCORE.RESTR>
0

>  <SCORE.RESTR.CAVITY>
0

>  <SCORE.RESTR.norm>
0

>  <SCORE.SYSTEM>
0

>  <SCORE.SYSTEM.CONST>
0

>  <SCORE.SYSTEM.DIHEDRAL>
0

>  <SCORE.SYSTEM.SOLV>
0

>  <SCORE.SYSTEM.norm>
0

>  <SCORE.heavy>
26

>  <SCORE.norm>
-0.411722

>  <RMSD>
9.747

$$$$
ligand
 OpenBabel11021811443D
libRbt.so/2013.1/901 2013/11/27
 26 28  0  0  0  0  0  0  0  0999 V2000
   26.4253   37.2715   75.3204 C   0  0  0  0  0  0  0  0  0  0  0  0
   24.4898   37.5641   69.6608 C   0  0  0  0  0  0  0  0  0  0  0  0
   20.3346   40.5002   65.6678 P   0  0  1  0  0  0  0  0  0  0  0  0
   17.9667   39.9763   64.7704 P   0  0  1  0  0  0  0  0  0  0  0  0
   23.9869   35.0074   70.7001 C   0  0  0  0  0  0  0  0  0  0  0  0
   23.8785   35.9535   73.0250 C   0  0  0  0  0  0  0  0  0  0  0  0
   24.6337   35.6067   71.9224 C   0  0  0  0  0  0  0  0  0  0  0  0
   26.0117   35.8249   71.9685 C   0  0  0  0  0  0  0  0  0  0  0  0
   26.8143   35.4943   70.8869 N   0  0  0  0  0  0  0  0  0  0  0  0
   26.5432   36.3604   73.0635 N   0  0  0  0  0  0  0  0  0  0  0  0
   25.7859   36.6722   74.0951 C   0  0  0  0  0  0  0  0  0  0  0  0
   24.4814   36.4789   74.0831 N   0  0  0  0  0  0  0  0  0  0  0  0
   21.5186   40.2803   64.8068 O   0  0  0  0  0  0  0  0  0  0  0  0
   18.3333   41.3592   64.1863 O   0  0  0  0  0  0  0  0  0  0  0  0
   20.6750   36.6881   69.8104 S   0  0  0  0  0  0  0  0  0  0  0  0
   21.6350   35.3733   70.4162 C   0  0  0  0  0  0  0  0  0  0  0  0
   19.6525   41.9084   65.2941 O   0  0  0  0  0  0  0  0  0  0  0  0
   17.4169   39.0239   63.5953 O   0  5  0  0  0  0  0  0  0  0  0  0
   22.8553   35.8406   70.2878 N   0  0  0  0  0  0  0  0  0  0  0  0
   19.2739   39.3110   65.4347 O   0  0  0  0  0  0  0  0  0  0  0  0
   16.8724   40.1480   65.8477 O   0  0  0  0  0  0  0  0  0  0  0  0
   23.0824   37.0410   69.8008 C   0  0  2  0  0  0  0  0  0  0  0  0
   22.0209   37.7962   69.4195 C   0  0  2  0  0  0  0  0  0  0  0  0
   21.9868   39.1835   68.8339 C   0  0  0  0  0  0  0  0  0  0  0  0
   21.1562   39.1768   67.5486 C   0  0  0  0  0  0  0  0  0  0  0  0
   20.7889   40.5163   67.2127 O   0  0  0  0  0  0  0  0  0  0  0  0
  1 11  1  0  0  0  0
  3 13  1  6  0  0  0
  3 17  1  0  0  0  0
  3 20  1  0  0  0  0
  3 26  1  0  0  0  0
  4 14  1  0  0  0  0
  4 18  1  6  0  0  0
  4 21  2  0  0  0  0
  4 20  1  0  0  0  0
  5 19  1  0  0  0  0
  5  7  1  0  0  0  0
  6  7  2  0  0  0  0
  6 12  1  0  0  0  0
  7  8  1  0  0  0  0
  8  9  1  0  0  0  0
  8 10  2  0  0  0  0
 10 11  1  0  0  0  0
 11 12  2  0  0  0  0
 14 17  1  0  0  0  0
 15 23  1  0  0  0  0
 15 16  1  0  0  0  0
 16 19  1  0  0  0  0
 19 22  1  0  0  0  0
 22  2  1  6  0  0  0
 22 23  1  0  0  0  0
 23 24  1  1  0  0  0
 24 25  1  0  0  0  0
 25 26  1  0  0  0  0
M  CHG  1  18  -1
M  END
>  <CHROM.1>
-111.24581010,50.77086550,-52.42623031,162.86812663,162.87270903,-70.28475708
21.79213605,38.20189658,68.65685837,-0.85498562,-0.44924766,-0.71403266

>  <Name>
ligand

>  <RI>
0

>  <Rbt.Current_Directory>
/home/itssahil/PROJECTS/Mol_Feturizer/New_Systems/rnas/2HOL

>  <Rbt.Executable>
rbdock ($Id: //depot/dev/client3/rdock/2013.1/src/exe/rbdock.cxx#4 $)

>  <Rbt.Library>
libRbt.so (2013.1, Build901 2013/11/27)

>  <Rbt.Parameter_File>
/export/apps/rDock/src/rDock_2013.1_src/data/scripts/dock_solv.prm

>  <Rbt.Receptor>
prm/pocket_docking_7.prm

>  <SCORE>
-22.6707

>  <SCORE.INTER>
-21.5481

>  <SCORE.INTER.CONST>
1

>  <SCORE.INTER.POLAR>
0

>  <SCORE.INTER.ROT>
6

>  <SCORE.INTER.SOLV>
26.7899

>  <SCORE.INTER.VDW>
-30.8954

>  <SCORE.INTER.norm>
-0.828775

>  <SCORE.INTRA>
-1.12251

>  <SCORE.INTRA.DIHEDRAL>
-1.64467

>  <SCORE.INTRA.DIHEDRAL.0>
9.33621

>  <SCORE.INTRA.POLAR>
0

>  <SCORE.INTRA.POLAR.0>
0

>  <SCORE.INTRA.REPUL>
0

>  <SCORE.INTRA.REPUL.0>
0

>  <SCORE.INTRA.SOLV>
1.15085

>  <SCORE.INTRA.SOLV.lig_0>
-65.9238

>  <SCORE.INTRA.VDW>
-0.875604

>  <SCORE.INTRA.VDW.0>
-0.405582

>  <SCORE.INTRA.norm>
-0.0431734

>  <SCORE.RESTR>
0

>  <SCORE.RESTR.CAVITY>
0

>  <SCORE.RESTR.norm>
0

>  <SCORE.SYSTEM>
0

>  <SCORE.SYSTEM.CONST>
0

>  <SCORE.SYSTEM.DIHEDRAL>
0

>  <SCORE.SYSTEM.SOLV>
0

>  <SCORE.SYSTEM.norm>
0

>  <SCORE.heavy>
26

>  <SCORE.norm>
-0.871948

>  <RMSD>
9.759

$$$$
ligand
 OpenBabel11021811443D
libRbt.so/2013.1/901 2013/11/27
 26 28  0  0  0  0  0  0  0  0999 V2000
   30.0517   46.0957   64.2451 C   0  0  0  0  0  0  0  0  0  0  0  0
   24.3764   42.6437   64.9961 C   0  0  0  0  0  0  0  0  0  0  0  0
   18.6314   41.9778   65.2017 P   0  0  1  0  0  0  0  0  0  0  0  0
   17.3833   39.8165   64.5251 P   0  0  1  0  0  0  0  0  0  0  0  0
   26.0765   43.2340   67.1480 C   0  0  0  0  0  0  0  0  0  0  0  0
   26.7924   45.0776   65.5987 C   0  0  0  0  0  0  0  0  0  0  0  0
   27.1297   43.9905   66.3801 C   0  0  0  0  0  0  0  0  0  0  0  0
   28.4714   43.6100   66.4412 C   0  0  0  0  0  0  0  0  0  0  0  0
   28.8620   42.5247   67.2112 N   0  0  0  0  0  0  0  0  0  0  0  0
   29.3696   44.3004   65.7448 N   0  0  0  0  0  0  0  0  0  0  0  0
   29.0044   45.3347   65.0154 C   0  0  0  0  0  0  0  0  0  0  0  0
   27.7456   45.7195   64.9364 N   0  0  0  0  0  0  0  0  0  0  0  0
   17.8678   43.1680   65.6397 O   0  0  0  0  0  0  0  0  0  0  0  0
   17.4221   39.8047   66.0699 O   0  0  0  0  0  0  0  0  0  0  0  0
   22.9160   45.3621   67.4085 S   0  0  0  0  0  0  0  0  0  0  0  0
   24.4754   44.8254   67.9542 C   0  0  0  0  0  0  0  0  0  0  0  0
   18.7747   40.9492   66.4303 O   0  0  0  0  0  0  0  0  0  0  0  0
   15.8838   39.5189   64.0218 O   0  5  0  0  0  0  0  0  0  0  0  0
   24.7958   43.9364   67.0426 N   0  0  0  0  0  0  0  0  0  0  0  0
   17.8545   41.2594   63.9877 O   0  0  0  0  0  0  0  0  0  0  0  0
   18.3346   38.7280   63.9794 O   0  0  0  0  0  0  0  0  0  0  0  0
   23.9935   43.6664   66.0359 C   0  0  2  0  0  0  0  0  0  0  0  0
   22.8088   44.3242   65.9582 C   0  0  2  0  0  0  0  0  0  0  0  0
   21.7111   44.2131   64.9327 C   0  0  0  0  0  0  0  0  0  0  0  0
   20.5013   43.5090   65.5514 C   0  0  0  0  0  0  0  0  0  0  0  0
   20.0953   42.4305   64.7064 O   0  0  0  0  0  0  0  0  0  0  0  0
  1 11  1  0  0  0  0
  3 13  1  1  0  0  0
  3 17  1  0  0  0  0
  3 20  1  0  0  0  0
  3 26  1  0  0  0  0
  4 14  1  0  0  0  0
  4 18  1  6  0  0  0
  4 21  2  0  0  0  0
  4 20  1  0  0  0  0
  5 19  1  0  0  0  0
  5  7  1  0  0  0  0
  6  7  2  0  0  0  0
  6 12  1  0  0  0  0
  7  8  1  0  0  0  0
  8  9  1  0  0  0  0
  8 10  2  0  0  0  0
 10 11  1  0  0  0  0
 11 12  2  0  0  0  0
 14 17  1  0  0  0  0
 15 23  1  0  0  0  0
 15 16  1  0  0  0  0
 16 19  1  0  0  0  0
 19 22  1  0  0  0  0
 22  2  1  1  0  0  0
 22 23  1  0  0  0  0
 23 24  1  6  0  0  0
 24 25  1  0  0  0  0
 25 26  1  0  0  0  0
M  CHG  1  18  -1
M  END
>  <CHROM.1>
-91.50016102,-6.99506248,-71.70915335,-128.55798043,-166.05004350,35.84740779
22.45439159,42.88678444,65.62509184,-0.38556423,-0.06925504,-2.70592704

>  <Name>
ligand

>  <RI>
0

>  <Rbt.Current_Directory>
/home/itssahil/PROJECTS/Mol_Feturizer/New_Systems/rnas/2HOL

>  <Rbt.Executable>
rbdock ($Id: //depot/dev/client3/rdock/2013.1/src/exe/rbdock.cxx#4 $)

>  <Rbt.Library>
libRbt.so (2013.1, Build901 2013/11/27)

>  <Rbt.Parameter_File>
/export/apps/rDock/src/rDock_2013.1_src/data/scripts/dock_solv.prm

>  <Rbt.Receptor>
prm/pocket_docking_8.prm

>  <SCORE>
-19.7867

>  <SCORE.INTER>
-20.3784

>  <SCORE.INTER.CONST>
1

>  <SCORE.INTER.POLAR>
0

>  <SCORE.INTER.ROT>
6

>  <SCORE.INTER.SOLV>
29.096

>  <SCORE.INTER.VDW>
-30.8843

>  <SCORE.INTER.norm>
-0.783786

>  <SCORE.INTRA>
0.591588

>  <SCORE.INTRA.DIHEDRAL>
2.77757

>  <SCORE.INTRA.DIHEDRAL.0>
9.33621

>  <SCORE.INTRA.POLAR>
0

>  <SCORE.INTRA.POLAR.0>
0

>  <SCORE.INTRA.REPUL>
0

>  <SCORE.INTRA.REPUL.0>
0

>  <SCORE.INTRA.SOLV>
-0.634606

>  <SCORE.INTRA.SOLV.lig_0>
-65.9238

>  <SCORE.INTRA.VDW>
-0.479894

>  <SCORE.INTRA.VDW.0>
-0.405582

>  <SCORE.INTRA.norm>
0.0227534

>  <SCORE.RESTR>
0.000168002

>  <SCORE.RESTR.CAVITY>
0.000168002

>  <SCORE.RESTR.norm>
6.46161e-06

>  <SCORE.SYSTEM>
0

>  <SCORE.SYSTEM.CONST>
0

>  <SCORE.SYSTEM.DIHEDRAL>
0

>  <SCORE.SYSTEM.SOLV>
0

>  <SCORE.SYSTEM.norm>
0

>  <SCORE.heavy>
26

>  <SCORE.norm>
-0.761026

>  <RMSD>
9.761

$$$$
ligand
 OpenBabel11021811443D
libRbt.so/2013.1/901 2013/11/27
 26 28  0  0  0  0  0  0  0  0999 V2000
   30.9615   43.4814   66.4504 C   0  0  0  0  0  0  0  0  0  0  0  0
   24.8305   42.6093   64.1504 C   0  0  0  0  0  0  0  0  0  0  0  0
   18.8844   41.9949   65.2463 P   0  0  1  0  0  0  0  0  0  0  0  0
   17.3053   40.1695   64.3182 P   0  0  1  0  0  0  0  0  0  0  0  0
   26.0083   45.1549   64.1956 C   0  0  0  0  0  0  0  0  0  0  0  0
   27.7048   45.1321   66.0485 C   0  0  0  0  0  0  0  0  0  0  0  0
   27.3197   44.7112   64.7912 C   0  0  0  0  0  0  0  0  0  0  0  0
   28.1758   43.8639   64.0856 C   0  0  0  0  0  0  0  0  0  0  0  0
   27.8353   43.4134   62.8189 N   0  0  0  0  0  0  0  0  0  0  0  0
   29.3262   43.4992   64.6440 N   0  0  0  0  0  0  0  0  0  0  0  0
   29.6522   43.9208   65.8486 C   0  0  0  0  0  0  0  0  0  0  0  0
   28.8660   44.7218   66.5409 N   0  0  0  0  0  0  0  0  0  0  0  0
   18.3452   43.3235   65.6146 O   0  0  0  0  0  0  0  0  0  0  0  0
   17.1119   40.1426   65.8512 O   0  0  0  0  0  0  0  0  0  0  0  0
   23.2574   44.9837   66.8392 S   0  0  0  0  0  0  0  0  0  0  0  0
   24.5236   45.7916   65.9666 C   0  0  0  0  0  0  0  0  0  0  0  0
   18.6147   40.9549   66.4437 O   0  0  0  0  0  0  0  0  0  0  0  0
   15.8683   40.2161   63.5949 O   0  5  0  0  0  0  0  0  0  0  0  0
   24.9215   44.8595   65.1319 N   0  0  0  0  0  0  0  0  0  0  0  0
   18.1565   41.4732   63.9078 O   0  0  0  0  0  0  0  0  0  0  0  0
   18.0637   38.8986   63.8742 O   0  0  0  0  0  0  0  0  0  0  0  0
   24.3631   43.6689   65.1162 C   0  0  2  0  0  0  0  0  0  0  0  0
   23.3607   43.4126   65.9948 C   0  0  2  0  0  0  0  0  0  0  0  0
   22.5566   42.1554   66.1986 C   0  0  0  0  0  0  0  0  0  0  0  0
   21.0655   42.4990   66.2220 C   0  0  0  0  0  0  0  0  0  0  0  0
   20.4686   42.1118   64.9827 O   0  0  0  0  0  0  0  0  0  0  0  0
  1 11  1  0  0  0  0
  3 13  1  1  0  0  0
  3 17  1  0  0  0  0
  3 20  1  0  0  0  0
  3 26  1  0  0  0  0
  4 14  1  0  0  0  0
  4 18  1  6  0  0  0
  4 21  2  0  0  0  0
  4 20  1  0  0  0  0
  5 19  1  0  0  0  0
  5  7  1  0  0  0  0
  6  7  2  0  0  0  0
  6 12  1  0  0  0  0
  7  8  1  0  0  0  0
  8  9  1  0  0  0  0
  8 10  2  0  0  0  0
 10 11  1  0  0  0  0
 11 12  2  0  0  0  0
 14 17  1  0  0  0  0
 15 23  1  0  0  0  0
 15 16  1  0  0  0  0
 16 19  1  0  0  0  0
 19 22  1  0  0  0  0
 22  2  1  1  0  0  0
 22 23  1  0  0  0  0
 23 24  1  6  0  0  0
 24 25  1  0  0  0  0
 25 26  1  0  0  0  0
M  CHG  1  18  -1
M  END
>  <CHROM.1>
94.08467335,-53.19563949,49.04110869,104.35943019,160.06178635,63.47067437
22.67819633,42.79081299,65.20950140,-0.28493139,-0.16351516,-2.48060720

>  <Name>
ligand

>  <RI>
0

>  <Rbt.Current_Directory>
/home/itssahil/PROJECTS/Mol_Feturizer/New_Systems/rnas/2HOL

>  <Rbt.Executable>
rbdock ($Id: //depot/dev/client3/rdock/2013.1/src/exe/rbdock.cxx#4 $)

>  <Rbt.Library>
libRbt.so (2013.1, Build901 2013/11/27)

>  <Rbt.Parameter_File>
/export/apps/rDock/src/rDock_2013.1_src/data/scripts/dock_solv.prm

>  <Rbt.Receptor>
prm/pocket_docking_6.prm

>  <SCORE>
-17.0813

>  <SCORE.INTER>
-16.9727

>  <SCORE.INTER.CONST>
1

>  <SCORE.INTER.POLAR>
0

>  <SCORE.INTER.ROT>
6

>  <SCORE.INTER.SOLV>
27.0752

>  <SCORE.INTER.VDW>
-27.9402

>  <SCORE.INTER.norm>
-0.652798

>  <SCORE.INTRA>
-0.108996

>  <SCORE.INTRA.DIHEDRAL>
2.24244

>  <SCORE.INTRA.DIHEDRAL.0>
9.33621

>  <SCORE.INTRA.POLAR>
0

>  <SCORE.INTRA.POLAR.0>
0

>  <SCORE.INTRA.REPUL>
0

>  <SCORE.INTRA.REPUL.0>
0

>  <SCORE.INTRA.SOLV>
0.833336

>  <SCORE.INTRA.SOLV.lig_0>
-65.9238

>  <SCORE.INTRA.VDW>
-1.64689

>  <SCORE.INTRA.VDW.0>
-0.405582

>  <SCORE.INTRA.norm>
-0.00419213

>  <SCORE.RESTR>
0.000412098

>  <SCORE.RESTR.CAVITY>
0.000412098

>  <SCORE.RESTR.norm>
1.58499e-05

>  <SCORE.SYSTEM>
0

>  <SCORE.SYSTEM.CONST>
0

>  <SCORE.SYSTEM.DIHEDRAL>
0

>  <SCORE.SYSTEM.SOLV>
0

>  <SCORE.SYSTEM.norm>
0

>  <SCORE.heavy>
26

>  <SCORE.norm>
-0.656974

>  <RMSD>
9.770

$$$$
ligand
 OpenBabel11021811443D
libRbt.so/2013.1/901 2013/11/27
 26 28  0  0  0  0  0  0  0  0999 V2000
   26.6172   39.0787   79.3822 C   0  0  0  0  0  0  0  0  0  0  0  0
   26.1220   35.4019   72.9144 C   0  0  0  0  0  0  0  0  0  0  0  0
   26.2498   38.2130   67.7979 P   0  0  1  0  0  0  0  0  0  0  0  0
   26.5153   38.4615   65.2378 P   0  0  1  0  0  0  0  0  0  0  0  0
   28.1361   36.3885   74.5995 C   0  0  0  0  0  0  0  0  0  0  0  0
   28.3147   38.3008   76.2190 C   0  0  0  0  0  0  0  0  0  0  0  0
   27.7332   37.0994   75.8657 C   0  0  0  0  0  0  0  0  0  0  0  0
   26.7621   36.5600   76.7112 C   0  0  0  0  0  0  0  0  0  0  0  0
   26.1484   35.3555   76.4016 N   0  0  0  0  0  0  0  0  0  0  0  0
   26.4381   37.2157   77.8218 N   0  0  0  0  0  0  0  0  0  0  0  0
   27.0150   38.3623   78.1181 C   0  0  0  0  0  0  0  0  0  0  0  0
   27.9357   38.8982   77.3409 N   0  0  0  0  0  0  0  0  0  0  0  0
   25.8111   39.3684   68.6129 O   0  0  0  0  0  0  0  0  0  0  0  0
   25.0016   38.2645   65.4790 O   0  0  0  0  0  0  0  0  0  0  0  0
   27.5096   38.8837   71.7770 S   0  0  0  0  0  0  0  0  0  0  0  0
   28.3140   38.3385   73.2168 C   0  0  0  0  0  0  0  0  0  0  0  0
   24.9677   37.5136   67.1234 O   0  0  0  0  0  0  0  0  0  0  0  0
   26.7462   39.7260   64.2692 O   0  5  0  0  0  0  0  0  0  0  0  0
   27.7277   37.1852   73.4405 N   0  0  0  0  0  0  0  0  0  0  0  0
   27.2535   38.7203   66.6452 O   0  0  0  0  0  0  0  0  0  0  0  0
   27.0988   37.1931   64.5758 O   0  0  0  0  0  0  0  0  0  0  0  0
   26.7850   36.7291   72.6448 C   0  0  2  0  0  0  0  0  0  0  0  0
   26.4168   37.4843   71.5786 C   0  0  2  0  0  0  0  0  0  0  0  0
   25.3788   37.2155   70.5207 C   0  0  0  0  0  0  0  0  0  0  0  0
   25.9978   36.3832   69.3954 C   0  0  0  0  0  0  0  0  0  0  0  0
   27.0095   37.1493   68.7384 O   0  0  0  0  0  0  0  0  0  0  0  0
  1 11  1  0  0  0  0
  3 13  1  1  0  0  0
  3 17  1  0  0  0  0
  3 20  1  0  0  0  0
  3 26  1  0  0  0  0
  4 14  1  0  0  0  0
  4 18  1  6  0  0  0
  4 21  2  0  0  0  0
  4 20  1  0  0  0  0
  5 19  1  0  0  0  0
  5  7  1  0  0  0  0
  6  7  2  0  0  0  0
  6 12  1  0  0  0  0
  7  8  1  0  0  0  0
  8  9  1  0  0  0  0
  8 10  2  0  0  0  0
 10 11  1  0  0  0  0
 11 12  2  0  0  0  0
 14 17  1  0  0  0  0
 15 23  1  0  0  0  0
 15 16  1  0  0  0  0
 16 19  1  0  0  0  0
 19 22  1  0  0  0  0
 22  2  1  1  0  0  0
 22 23  1  0  0  0  0
 23 24  1  6  0  0  0
 24 25  1  0  0  0  0
 25 26  1  0  0  0  0
M  CHG  1  18  -1
M  END
>  <CHROM.1>
67.51289320,-66.35342541,93.65893849,-65.24742815,-76.11580712,81.02429115
26.73245742,37.80072834,71.09846374,-1.36293055,-1.17786848,-1.31080312

>  <Name>
ligand

>  <RI>
0

>  <Rbt.Current_Directory>
/home/itssahil/PROJECTS/Mol_Feturizer/New_Systems/rnas/2HOL

>  <Rbt.Executable>
rbdock ($Id: //depot/dev/client3/rdock/2013.1/src/exe/rbdock.cxx#4 $)

>  <Rbt.Library>
libRbt.so (2013.1, Build901 2013/11/27)

>  <Rbt.Parameter_File>
/export/apps/rDock/src/rDock_2013.1_src/data/scripts/dock_solv.prm

>  <Rbt.Receptor>
prm/blind_docking_100.prm

>  <SCORE>
-12.7953

>  <SCORE.INTER>
-11.5265

>  <SCORE.INTER.CONST>
1

>  <SCORE.INTER.POLAR>
0

>  <SCORE.INTER.ROT>
6

>  <SCORE.INTER.SOLV>
17.6559

>  <SCORE.INTER.VDW>
-21.1696

>  <SCORE.INTER.norm>
-0.443326

>  <SCORE.INTRA>
-1.26881

>  <SCORE.INTRA.DIHEDRAL>
-2.57841

>  <SCORE.INTRA.DIHEDRAL.0>
9.33621

>  <SCORE.INTRA.POLAR>
0

>  <SCORE.INTRA.POLAR.0>
0

>  <SCORE.INTRA.REPUL>
0

>  <SCORE.INTRA.REPUL.0>
0

>  <SCORE.INTRA.SOLV>
1.66426

>  <SCORE.INTRA.SOLV.lig_0>
-65.9238

>  <SCORE.INTRA.VDW>
-0.811735

>  <SCORE.INTRA.VDW.0>
-0.405582

>  <SCORE.INTRA.norm>
-0.0488003

>  <SCORE.RESTR>
0

>  <SCORE.RESTR.CAVITY>
0

>  <SCORE.RESTR.norm>
0

>  <SCORE.SYSTEM>
0

>  <SCORE.SYSTEM.CONST>
0

>  <SCORE.SYSTEM.DIHEDRAL>
0

>  <SCORE.SYSTEM.SOLV>
0

>  <SCORE.SYSTEM.norm>
0

>  <SCORE.heavy>
26

>  <SCORE.norm>
-0.492126

>  <RMSD>
9.792

$$$$
ligand
 OpenBabel11021811443D
libRbt.so/2013.1/901 2013/11/27
 26 28  0  0  0  0  0  0  0  0999 V2000
   22.3359   37.5496   69.0615 C   0  0  0  0  0  0  0  0  0  0  0  0
   26.3577   33.1948   73.8917 C   0  0  0  0  0  0  0  0  0  0  0  0
   27.4996   38.4758   77.0349 P   0  0  1  0  0  0  0  0  0  0  0  0
   28.4460   40.4034   78.4755 P   0  0  1  0  0  0  0  0  0  0  0  0
   23.7310   33.8158   73.1273 C   0  0  0  0  0  0  0  0  0  0  0  0
   24.3118   35.6357   71.4957 C   0  0  0  0  0  0  0  0  0  0  0  0
   23.3603   34.8036   72.0513 C   0  0  0  0  0  0  0  0  0  0  0  0
   22.0461   34.9004   71.5907 C   0  0  0  0  0  0  0  0  0  0  0  0
   21.0532   34.0875   72.1168 N   0  0  0  0  0  0  0  0  0  0  0  0
   21.7587   35.7884   70.6435 N   0  0  0  0  0  0  0  0  0  0  0  0
   22.6990   36.5597   70.1375 C   0  0  0  0  0  0  0  0  0  0  0  0
   23.9494   36.4932   70.5509 N   0  0  0  0  0  0  0  0  0  0  0  0
   26.4887   38.7585   75.9909 O   0  0  0  0  0  0  0  0  0  0  0  0
   29.2186   40.4689   77.1387 O   0  0  0  0  0  0  0  0  0  0  0  0
   24.7268   35.9774   76.1141 S   0  0  0  0  0  0  0  0  0  0  0  0
   23.6190   35.4356   74.8907 C   0  0  0  0  0  0  0  0  0  0  0  0
   28.9669   38.8094   76.4663 O   0  0  0  0  0  0  0  0  0  0  0  0
   27.9004   41.8694   78.8545 O   0  5  0  0  0  0  0  0  0  0  0  0
   24.3272   34.5276   74.2599 N   0  0  0  0  0  0  0  0  0  0  0  0
   27.2043   39.3888   78.3282 O   0  0  0  0  0  0  0  0  0  0  0  0
   29.3911   39.9022   79.5904 O   0  0  0  0  0  0  0  0  0  0  0  0
   25.5577   34.2414   74.6255 C   0  0  2  0  0  0  0  0  0  0  0  0
   26.0945   34.9153   75.6744 C   0  0  2  0  0  0  0  0  0  0  0  0
   27.4610   34.7976   76.2969 C   0  0  0  0  0  0  0  0  0  0  0  0
   28.0897   36.1875   76.4192 C   0  0  0  0  0  0  0  0  0  0  0  0
   27.4244   36.9215   77.4491 O   0  0  0  0  0  0  0  0  0  0  0  0
  1 11  1  0  0  0  0
  3 13  1  6  0  0  0
  3 17  1  0  0  0  0
  3 20  1  0  0  0  0
  3 26  1  0  0  0  0
  4 14  1  0  0  0  0
  4 18  1  1  0  0  0
  4 21  2  0  0  0  0
  4 20  1  0  0  0  0
  5 19  1  0  0  0  0
  5  7  1  0  0  0  0
  6  7  2  0  0  0  0
  6 12  1  0  0  0  0
  7  8  1  0  0  0  0
  8  9  1  0  0  0  0
  8 10  2  0  0  0  0
 10 11  1  0  0  0  0
 11 12  2  0  0  0  0
 14 17  1  0  0  0  0
 15 23  1  0  0  0  0
 15 16  1  0  0  0  0
 16 19  1  0  0  0  0
 19 22  1  0  0  0  0
 22  2  1  6  0  0  0
 22 23  1  0  0  0  0
 23 24  1  1  0  0  0
 24 25  1  0  0  0  0
 25 26  1  0  0  0  0
M  CHG  1  18  -1
M  END
>  <CHROM.1>
60.44022676,57.62454639,-50.68032720,71.89689893,-149.65595425,77.93916291
25.83364357,37.01579365,75.15469434,2.80803079,0.92805170,2.94840747

>  <Name>
ligand

>  <RI>
0

>  <Rbt.Current_Directory>
/home/itssahil/PROJECTS/Mol_Feturizer/New_Systems/rnas/2HOL

>  <Rbt.Executable>
rbdock ($Id: //depot/dev/client3/rdock/2013.1/src/exe/rbdock.cxx#4 $)

>  <Rbt.Library>
libRbt.so (2013.1, Build901 2013/11/27)

>  <Rbt.Parameter_File>
/export/apps/rDock/src/rDock_2013.1_src/data/scripts/dock_solv.prm

>  <Rbt.Receptor>
prm/blind_docking_100.prm

>  <SCORE>
-19.2266

>  <SCORE.INTER>
-17.2973

>  <SCORE.INTER.CONST>
1

>  <SCORE.INTER.POLAR>
0

>  <SCORE.INTER.ROT>
6

>  <SCORE.INTER.SOLV>
14.4572

>  <SCORE.INTER.VDW>
-23.9506

>  <SCORE.INTER.norm>
-0.665282

>  <SCORE.INTRA>
-1.92928

>  <SCORE.INTRA.DIHEDRAL>
0.455421

>  <SCORE.INTRA.DIHEDRAL.0>
9.33621

>  <SCORE.INTRA.POLAR>
0

>  <SCORE.INTRA.POLAR.0>
0

>  <SCORE.INTRA.REPUL>
0

>  <SCORE.INTRA.REPUL.0>
0

>  <SCORE.INTRA.SOLV>
-0.258297

>  <SCORE.INTRA.SOLV.lig_0>
-65.9238

>  <SCORE.INTRA.VDW>
-2.02785

>  <SCORE.INTRA.VDW.0>
-0.405582

>  <SCORE.INTRA.norm>
-0.0742032

>  <SCORE.RESTR>
0

>  <SCORE.RESTR.CAVITY>
0

>  <SCORE.RESTR.norm>
0

>  <SCORE.SYSTEM>
0

>  <SCORE.SYSTEM.CONST>
0

>  <SCORE.SYSTEM.DIHEDRAL>
0

>  <SCORE.SYSTEM.SOLV>
0

>  <SCORE.SYSTEM.norm>
0

>  <SCORE.heavy>
26

>  <SCORE.norm>
-0.739486

>  <RMSD>
9.897

$$$$
ligand
 OpenBabel11021811443D
libRbt.so/2013.1/901 2013/11/27
 26 28  0  0  0  0  0  0  0  0999 V2000
   28.3011   35.5142   77.0050 C   0  0  0  0  0  0  0  0  0  0  0  0
   22.5151   33.4812   71.9453 C   0  0  0  0  0  0  0  0  0  0  0  0
   22.5896   38.0806   67.1948 P   0  0  1  0  0  0  0  0  0  0  0  0
   24.7104   38.6400   65.8251 P   0  0  1  0  0  0  0  0  0  0  0  0
   25.2177   33.4306   72.6958 C   0  0  0  0  0  0  0  0  0  0  0  0
   27.2771   34.5372   73.6154 C   0  0  0  0  0  0  0  0  0  0  0  0
   26.0327   33.9816   73.8373 C   0  0  0  0  0  0  0  0  0  0  0  0
   25.5486   33.9436   75.1461 C   0  0  0  0  0  0  0  0  0  0  0  0
   24.3048   33.3955   75.4218 N   0  0  0  0  0  0  0  0  0  0  0  0
   26.3005   34.4357   76.1262 N   0  0  0  0  0  0  0  0  0  0  0  0
   27.4806   34.9613   75.8689 C   0  0  0  0  0  0  0  0  0  0  0  0
   27.9666   35.0122   74.6441 N   0  0  0  0  0  0  0  0  0  0  0  0
   21.2911   38.6924   66.8327 O   0  0  0  0  0  0  0  0  0  0  0  0
   23.9528   37.5771   64.9978 O   0  0  0  0  0  0  0  0  0  0  0  0
   24.5553   36.5200   70.5505 S   0  0  0  0  0  0  0  0  0  0  0  0
   25.5736   35.4702   71.4877 C   0  0  0  0  0  0  0  0  0  0  0  0
   22.8754   36.8201   66.2369 O   0  0  0  0  0  0  0  0  0  0  0  0
   25.1173   39.8731   64.8741 O   0  5  0  0  0  0  0  0  0  0  0  0
   24.7331   34.5342   71.8638 N   0  0  0  0  0  0  0  0  0  0  0  0
   23.7634   39.1685   67.0153 O   0  0  0  0  0  0  0  0  0  0  0  0
   25.9874   38.0095   66.4245 O   0  0  0  0  0  0  0  0  0  0  0  0
   23.4677   34.5646   71.5065 C   0  0  2  0  0  0  0  0  0  0  0  0
   23.0366   35.5981   70.7394 C   0  0  2  0  0  0  0  0  0  0  0  0
   21.6617   35.8856   70.1955 C   0  0  0  0  0  0  0  0  0  0  0  0
   21.7754   36.3866   68.7540 C   0  0  0  0  0  0  0  0  0  0  0  0
   22.5443   37.5908   68.7282 O   0  0  0  0  0  0  0  0  0  0  0  0
  1 11  1  0  0  0  0
  3 13  1  6  0  0  0
  3 17  1  0  0  0  0
  3 20  1  0  0  0  0
  3 26  1  0  0  0  0
  4 14  1  0  0  0  0
  4 18  1  6  0  0  0
  4 21  2  0  0  0  0
  4 20  1  0  0  0  0
  5 19  1  0  0  0  0
  5  7  1  0  0  0  0
  6  7  2  0  0  0  0
  6 12  1  0  0  0  0
  7  8  1  0  0  0  0
  8  9  1  0  0  0  0
  8 10  2  0  0  0  0
 10 11  1  0  0  0  0
 11 12  2  0  0  0  0
 14 17  1  0  0  0  0
 15 23  1  0  0  0  0
 15 16  1  0  0  0  0
 16 19  1  0  0  0  0
 19 22  1  0  0  0  0
 22  2  1  1  0  0  0
 22 23  1  0  0  0  0
 23 24  1  6  0  0  0
 24 25  1  0  0  0  0
 25 26  1  0  0  0  0
M  CHG  1  18  -1
M  END
>  <CHROM.1>
47.78238564,-70.69674541,41.14619564,-60.67574035,-178.51309943,76.17817886
24.42911168,36.32757981,70.19225970,-1.27948704,-0.32302635,-1.04603139

>  <Name>
ligand

>  <RI>
0

>  <Rbt.Current_Directory>
/home/itssahil/PROJECTS/Mol_Feturizer/New_Systems/rnas/2HOL

>  <Rbt.Executable>
rbdock ($Id: //depot/dev/client3/rdock/2013.1/src/exe/rbdock.cxx#4 $)

>  <Rbt.Library>
libRbt.so (2013.1, Build901 2013/11/27)

>  <Rbt.Parameter_File>
/export/apps/rDock/src/rDock_2013.1_src/data/scripts/dock_solv.prm

>  <Rbt.Receptor>
prm/blind_docking_100.prm

>  <SCORE>
-18.9944

>  <SCORE.INTER>
-16.3774

>  <SCORE.INTER.CONST>
1

>  <SCORE.INTER.POLAR>
0

>  <SCORE.INTER.ROT>
6

>  <SCORE.INTER.SOLV>
13.2568

>  <SCORE.INTER.VDW>
-22.9372

>  <SCORE.INTER.norm>
-0.6299

>  <SCORE.INTRA>
-2.61697

>  <SCORE.INTRA.DIHEDRAL>
-3.88909

>  <SCORE.INTRA.DIHEDRAL.0>
9.33621

>  <SCORE.INTRA.POLAR>
0

>  <SCORE.INTRA.POLAR.0>
0

>  <SCORE.INTRA.REPUL>
0

>  <SCORE.INTRA.REPUL.0>
0

>  <SCORE.INTRA.SOLV>
0.523294

>  <SCORE.INTRA.SOLV.lig_0>
-65.9238

>  <SCORE.INTRA.VDW>
-0.934073

>  <SCORE.INTRA.VDW.0>
-0.405582

>  <SCORE.INTRA.norm>
-0.100653

>  <SCORE.RESTR>
0

>  <SCORE.RESTR.CAVITY>
0

>  <SCORE.RESTR.norm>
0

>  <SCORE.SYSTEM>
0

>  <SCORE.SYSTEM.CONST>
0

>  <SCORE.SYSTEM.DIHEDRAL>
0

>  <SCORE.SYSTEM.SOLV>
0

>  <SCORE.SYSTEM.norm>
0

>  <SCORE.heavy>
26

>  <SCORE.norm>
-0.730553

>  <RMSD>
9.922

$$$$
ligand
 OpenBabel11021811443D
libRbt.so/2013.1/901 2013/11/27
 26 28  0  0  0  0  0  0  0  0999 V2000
   21.8895   36.5453   68.9245 C   0  0  0  0  0  0  0  0  0  0  0  0
   24.5201   35.7590   76.2810 C   0  0  0  0  0  0  0  0  0  0  0  0
   27.4961   38.4919   76.9751 P   0  0  1  0  0  0  0  0  0  0  0  0
   28.5352   40.3755   78.4100 P   0  0  1  0  0  0  0  0  0  0  0  0
   22.9228   34.7252   74.2196 C   0  0  0  0  0  0  0  0  0  0  0  0
   23.6357   35.8197   72.0735 C   0  0  0  0  0  0  0  0  0  0  0  0
   22.6479   35.2066   72.8182 C   0  0  0  0  0  0  0  0  0  0  0  0
   21.3879   35.0435   72.2398 C   0  0  0  0  0  0  0  0  0  0  0  0
   20.3616   34.4343   72.9463 N   0  0  0  0  0  0  0  0  0  0  0  0
   21.1842   35.4864   71.0026 N   0  0  0  0  0  0  0  0  0  0  0  0
   22.1569   36.0617   70.3259 C   0  0  0  0  0  0  0  0  0  0  0  0
   23.3579   36.2310   70.8435 N   0  0  0  0  0  0  0  0  0  0  0  0
   26.4318   38.8081   75.9958 O   0  0  0  0  0  0  0  0  0  0  0  0
   29.2339   40.4705   77.0349 O   0  0  0  0  0  0  0  0  0  0  0  0
   26.4307   33.2352   73.9740 S   0  0  0  0  0  0  0  0  0  0  0  0
   24.7869   33.4308   73.4476 C   0  0  0  0  0  0  0  0  0  0  0  0
   28.9327   38.8306   76.3353 O   0  0  0  0  0  0  0  0  0  0  0  0
   28.0227   41.8347   78.8555 O   0  5  0  0  0  0  0  0  0  0  0  0
   24.3175   34.2903   74.3222 N   0  0  0  0  0  0  0  0  0  0  0  0
   27.2793   39.3732   78.3055 O   0  0  0  0  0  0  0  0  0  0  0  0
   29.5359   39.8396   79.4583 O   0  0  0  0  0  0  0  0  0  0  0  0
   25.0735   34.7713   75.2850 C   0  0  2  0  0  0  0  0  0  0  0  0
   26.3620   34.3524   75.3665 C   0  0  2  0  0  0  0  0  0  0  0  0
   27.4361   34.7279   76.3535 C   0  0  0  0  0  0  0  0  0  0  0  0
   27.8002   36.2039   76.1778 C   0  0  0  0  0  0  0  0  0  0  0  0
   27.4314   36.9280   77.3532 O   0  0  0  0  0  0  0  0  0  0  0  0
  1 11  1  0  0  0  0
  3 13  1  6  0  0  0
  3 17  1  0  0  0  0
  3 20  1  0  0  0  0
  3 26  1  0  0  0  0
  4 14  1  0  0  0  0
  4 18  1  1  0  0  0
  4 21  2  0  0  0  0
  4 20  1  0  0  0  0
  5 19  1  0  0  0  0
  5  7  1  0  0  0  0
  6  7  2  0  0  0  0
  6 12  1  0  0  0  0
  7  8  1  0  0  0  0
  8  9  1  0  0  0  0
  8 10  2  0  0  0  0
 10 11  1  0  0  0  0
 11 12  2  0  0  0  0
 14 17  1  0  0  0  0
 15 23  1  0  0  0  0
 15 16  1  0  0  0  0
 16 19  1  0  0  0  0
 19 22  1  0  0  0  0
 22  2  1  1  0  0  0
 22 23  1  0  0  0  0
 23 24  1  6  0  0  0
 24 25  1  0  0  0  0
 25 26  1  0  0  0  0
M  CHG  1  18  -1
M  END
>  <CHROM.1>
-51.86907696,-32.45689797,113.62536594,114.59972227,-166.29796762,67.40574597
25.75174241,36.82113979,75.15743888,2.57583051,0.77577816,-3.06325743

>  <Name>
ligand

>  <RI>
0

>  <Rbt.Current_Directory>
/home/itssahil/PROJECTS/Mol_Feturizer/New_Systems/rnas/2HOL

>  <Rbt.Executable>
rbdock ($Id: //depot/dev/client3/rdock/2013.1/src/exe/rbdock.cxx#4 $)

>  <Rbt.Library>
libRbt.so (2013.1, Build901 2013/11/27)

>  <Rbt.Parameter_File>
/export/apps/rDock/src/rDock_2013.1_src/data/scripts/dock_solv.prm

>  <Rbt.Receptor>
prm/blind_docking_100.prm

>  <SCORE>
-18.4383

>  <SCORE.INTER>
-18.2102

>  <SCORE.INTER.CONST>
1

>  <SCORE.INTER.POLAR>
0

>  <SCORE.INTER.ROT>
6

>  <SCORE.INTER.SOLV>
15.8984

>  <SCORE.INTER.VDW>
-25.0396

>  <SCORE.INTER.norm>
-0.700394

>  <SCORE.INTRA>
-0.228057

>  <SCORE.INTRA.DIHEDRAL>
1.6254

>  <SCORE.INTRA.DIHEDRAL.0>
9.33621

>  <SCORE.INTRA.POLAR>
0

>  <SCORE.INTRA.POLAR.0>
0

>  <SCORE.INTRA.REPUL>
0

>  <SCORE.INTRA.REPUL.0>
0

>  <SCORE.INTRA.SOLV>
-0.020374

>  <SCORE.INTRA.SOLV.lig_0>
-65.9238

>  <SCORE.INTRA.VDW>
-1.03057

>  <SCORE.INTRA.VDW.0>
-0.405582

>  <SCORE.INTRA.norm>
-0.00877141

>  <SCORE.RESTR>
0

>  <SCORE.RESTR.CAVITY>
0

>  <SCORE.RESTR.norm>
0

>  <SCORE.SYSTEM>
0

>  <SCORE.SYSTEM.CONST>
0

>  <SCORE.SYSTEM.DIHEDRAL>
0

>  <SCORE.SYSTEM.SOLV>
0

>  <SCORE.SYSTEM.norm>
0

>  <SCORE.heavy>
26

>  <SCORE.norm>
-0.709165

>  <RMSD>
9.941

$$$$
ligand
 OpenBabel11021811443D
libRbt.so/2013.1/901 2013/11/27
 26 28  0  0  0  0  0  0  0  0999 V2000
   26.9241   38.2231   77.3132 C   0  0  0  0  0  0  0  0  0  0  0  0
   21.5225   34.9709   72.8148 C   0  0  0  0  0  0  0  0  0  0  0  0
   21.1844   39.0173   67.6182 P   0  0  1  0  0  0  0  0  0  0  0  0
   22.0999   39.3159   65.2183 P   0  0  1  0  0  0  0  0  0  0  0  0
   23.9876   34.5619   74.0896 C   0  0  0  0  0  0  0  0  0  0  0  0
   25.2781   36.6940   74.4072 C   0  0  0  0  0  0  0  0  0  0  0  0
   24.7648   35.5301   74.9440 C   0  0  0  0  0  0  0  0  0  0  0  0
   24.9836   35.2729   76.2985 C   0  0  0  0  0  0  0  0  0  0  0  0
   24.4893   34.1177   76.8855 N   0  0  0  0  0  0  0  0  0  0  0  0
   25.6786   36.1498   77.0171 N   0  0  0  0  0  0  0  0  0  0  0  0
   26.1464   37.2506   76.4653 C   0  0  0  0  0  0  0  0  0  0  0  0
   25.9573   37.5227   75.1889 N   0  0  0  0  0  0  0  0  0  0  0  0
   21.4432   40.0529   68.6440 O   0  0  0  0  0  0  0  0  0  0  0  0
   20.8216   40.1819   65.2836 O   0  0  0  0  0  0  0  0  0  0  0  0
   24.5925   35.7830   70.5220 S   0  0  0  0  0  0  0  0  0  0  0  0
   25.1164   35.2520   72.0907 C   0  0  0  0  0  0  0  0  0  0  0  0
   19.9462   39.4711   66.6970 O   0  0  0  0  0  0  0  0  0  0  0  0
   23.3057   40.1816   64.5962 O   0  5  0  0  0  0  0  0  0  0  0  0
   23.9758   35.0341   72.7033 N   0  0  0  0  0  0  0  0  0  0  0  0
   22.4956   38.8310   66.7019 O   0  0  0  0  0  0  0  0  0  0  0  0
   21.8388   38.0819   64.3258 O   0  0  0  0  0  0  0  0  0  0  0  0
   22.8242   35.2270   72.0980 C   0  0  2  0  0  0  0  0  0  0  0  0
   22.8337   35.6695   70.8148 C   0  0  2  0  0  0  0  0  0  0  0  0
   21.6824   35.9757   69.8932 C   0  0  0  0  0  0  0  0  0  0  0  0
   21.9844   37.2506   69.1022 C   0  0  0  0  0  0  0  0  0  0  0  0
   20.8338   37.6212   68.3401 O   0  0  0  0  0  0  0  0  0  0  0  0
  1 11  1  0  0  0  0
  3 13  1  1  0  0  0
  3 17  1  0  0  0  0
  3 20  1  0  0  0  0
  3 26  1  0  0  0  0
  4 14  1  0  0  0  0
  4 18  1  6  0  0  0
  4 21  2  0  0  0  0
  4 20  1  0  0  0  0
  5 19  1  0  0  0  0
  5  7  1  0  0  0  0
  6  7  2  0  0  0  0
  6 12  1  0  0  0  0
  7  8  1  0  0  0  0
  8  9  1  0  0  0  0
  8 10  2  0  0  0  0
 10 11  1  0  0  0  0
 11 12  2  0  0  0  0
 14 17  1  0  0  0  0
 15 23  1  0  0  0  0
 15 16  1  0  0  0  0
 16 19  1  0  0  0  0
 19 22  1  0  0  0  0
 22  2  1  1  0  0  0
 22 23  1  0  0  0  0
 23 24  1  6  0  0  0
 24 25  1  0  0  0  0
 25 26  1  0  0  0  0
M  CHG  1  18  -1
M  END
>  <CHROM.1>
56.59316741,3.32339598,-41.11863160,-173.62633735,176.13864734,-61.89398307
23.15483569,37.27480996,70.51359719,-1.00343697,-0.89916077,-0.77518445

>  <Name>
ligand

>  <RI>
0

>  <Rbt.Current_Directory>
/home/itssahil/PROJECTS/Mol_Feturizer/New_Systems/rnas/2HOL

>  <Rbt.Executable>
rbdock ($Id: //depot/dev/client3/rdock/2013.1/src/exe/rbdock.cxx#4 $)

>  <Rbt.Library>
libRbt.so (2013.1, Build901 2013/11/27)

>  <Rbt.Parameter_File>
/export/apps/rDock/src/rDock_2013.1_src/data/scripts/dock_solv.prm

>  <Rbt.Receptor>
prm/blind_docking_100.prm

>  <SCORE>
-17.0512

>  <SCORE.INTER>
-14.7532

>  <SCORE.INTER.CONST>
1

>  <SCORE.INTER.POLAR>
0

>  <SCORE.INTER.ROT>
6

>  <SCORE.INTER.SOLV>
20.4155

>  <SCORE.INTER.VDW>
-24.2406

>  <SCORE.INTER.norm>
-0.56743

>  <SCORE.INTRA>
-2.29802

>  <SCORE.INTRA.DIHEDRAL>
-4.09075

>  <SCORE.INTRA.DIHEDRAL.0>
9.33621

>  <SCORE.INTRA.POLAR>
0

>  <SCORE.INTRA.POLAR.0>
0

>  <SCORE.INTRA.REPUL>
0

>  <SCORE.INTRA.REPUL.0>
0

>  <SCORE.INTRA.SOLV>
-0.513136

>  <SCORE.INTRA.SOLV.lig_0>
-65.9238

>  <SCORE.INTRA.VDW>
0.00392823

>  <SCORE.INTRA.VDW.0>
-0.405582

>  <SCORE.INTRA.norm>
-0.0883852

>  <SCORE.RESTR>
0

>  <SCORE.RESTR.CAVITY>
0

>  <SCORE.RESTR.norm>
0

>  <SCORE.SYSTEM>
0

>  <SCORE.SYSTEM.CONST>
0

>  <SCORE.SYSTEM.DIHEDRAL>
0

>  <SCORE.SYSTEM.SOLV>
0

>  <SCORE.SYSTEM.norm>
0

>  <SCORE.heavy>
26

>  <SCORE.norm>
-0.655815

>  <RMSD>
10.074

$$$$
ligand
 OpenBabel11021811443D
libRbt.so/2013.1/901 2013/11/27
 26 28  0  0  0  0  0  0  0  0999 V2000
   22.5502   36.3102   69.8044 C   0  0  0  0  0  0  0  0  0  0  0  0
   27.2620   38.8158   74.8346 C   0  0  0  0  0  0  0  0  0  0  0  0
   24.0728   35.5881   77.3724 P   0  0  1  0  0  0  0  0  0  0  0  0
   22.5841   34.2255   75.7557 P   0  0  1  0  0  0  0  0  0  0  0  0
   27.4941   37.5888   72.3226 C   0  0  0  0  0  0  0  0  0  0  0  0
   25.1904   36.5866   72.3431 C   0  0  0  0  0  0  0  0  0  0  0  0
   26.1861   37.2509   71.6548 C   0  0  0  0  0  0  0  0  0  0  0  0
   25.9501   37.6021   70.3245 C   0  0  0  0  0  0  0  0  0  0  0  0
   26.9182   38.2698   69.5895 N   0  0  0  0  0  0  0  0  0  0  0  0
   24.7847   37.2815   69.7701 N   0  0  0  0  0  0  0  0  0  0  0  0
   23.8603   36.6512   70.4653 C   0  0  0  0  0  0  0  0  0  0  0  0
   24.0520   36.3053   71.7234 N   0  0  0  0  0  0  0  0  0  0  0  0
   23.5821   35.9205   78.7290 O   0  0  0  0  0  0  0  0  0  0  0  0
   23.2198   33.1865   76.7068 O   0  0  0  0  0  0  0  0  0  0  0  0
   28.0003   34.9758   75.0616 S   0  0  0  0  0  0  0  0  0  0  0  0
   27.9013   35.4891   73.4050 C   0  0  0  0  0  0  0  0  0  0  0  0
   24.6457   34.0849   77.3616 O   0  0  0  0  0  0  0  0  0  0  0  0
   20.9973   33.9720   75.6643 O   0  5  0  0  0  0  0  0  0  0  0  0
   27.6526   36.7724   73.5282 N   0  0  0  0  0  0  0  0  0  0  0  0
   22.8602   35.7083   76.3194 O   0  0  0  0  0  0  0  0  0  0  0  0
   23.2093   34.0844   74.3497 O   0  0  0  0  0  0  0  0  0  0  0  0
   27.5466   37.3403   74.7097 C   0  0  2  0  0  0  0  0  0  0  0  0
   27.6917   36.5661   75.8152 C   0  0  2  0  0  0  0  0  0  0  0  0
   27.6174   36.9433   77.2715 C   0  0  0  0  0  0  0  0  0  0  0  0
   26.3196   36.4019   77.8754 C   0  0  0  0  0  0  0  0  0  0  0  0
   25.2441   36.6126   76.9584 O   0  0  0  0  0  0  0  0  0  0  0  0
  1 11  1  0  0  0  0
  3 13  1  1  0  0  0
  3 17  1  0  0  0  0
  3 20  1  0  0  0  0
  3 26  1  0  0  0  0
  4 14  1  0  0  0  0
  4 18  1  6  0  0  0
  4 21  2  0  0  0  0
  4 20  1  0  0  0  0
  5 19  1  0  0  0  0
  5  7  1  0  0  0  0
  6  7  2  0  0  0  0
  6 12  1  0  0  0  0
  7  8  1  0  0  0  0
  8  9  1  0  0  0  0
  8 10  2  0  0  0  0
 10 11  1  0  0  0  0
 11 12  2  0  0  0  0
 14 17  1  0  0  0  0
 15 23  1  0  0  0  0
 15 16  1  0  0  0  0
 16 19  1  0  0  0  0
 19 22  1  0  0  0  0
 22  2  1  1  0  0  0
 22 23  1  0  0  0  0
 23 24  1  1  0  0  0
 24 25  1  0  0  0  0
 25 26  1  0  0  0  0
M  CHG  1  18  -1
M  END
>  <CHROM.1>
71.63962150,17.53364452,-72.65732275,-42.23885041,159.79826081,63.55781602
25.14324532,35.96040558,74.56775776,1.23279892,-0.38614148,-1.33978044

>  <Name>
ligand

>  <RI>
0

>  <Rbt.Current_Directory>
/home/itssahil/PROJECTS/Mol_Feturizer/New_Systems/rnas/2HOL

>  <Rbt.Executable>
rbdock ($Id: //depot/dev/client3/rdock/2013.1/src/exe/rbdock.cxx#4 $)

>  <Rbt.Library>
libRbt.so (2013.1, Build901 2013/11/27)

>  <Rbt.Parameter_File>
/export/apps/rDock/src/rDock_2013.1_src/data/scripts/dock_solv.prm

>  <Rbt.Receptor>
prm/blind_docking_100.prm

>  <SCORE>
-15.9075

>  <SCORE.INTER>
-13.1653

>  <SCORE.INTER.CONST>
1

>  <SCORE.INTER.POLAR>
0

>  <SCORE.INTER.ROT>
6

>  <SCORE.INTER.SOLV>
11.8996

>  <SCORE.INTER.VDW>
-20.3434

>  <SCORE.INTER.norm>
-0.506356

>  <SCORE.INTRA>
-2.74362

>  <SCORE.INTRA.DIHEDRAL>
-1.2665

>  <SCORE.INTRA.DIHEDRAL.0>
9.33621

>  <SCORE.INTRA.POLAR>
0

>  <SCORE.INTRA.POLAR.0>
0

>  <SCORE.INTRA.REPUL>
0

>  <SCORE.INTRA.REPUL.0>
0

>  <SCORE.INTRA.SOLV>
-0.223938

>  <SCORE.INTRA.SOLV.lig_0>
-65.9238

>  <SCORE.INTRA.VDW>
-1.9984

>  <SCORE.INTRA.VDW.0>
-0.405582

>  <SCORE.INTRA.norm>
-0.105524

>  <SCORE.RESTR>
0.00141487

>  <SCORE.RESTR.CAVITY>
0.00141487

>  <SCORE.RESTR.norm>
5.44182e-05

>  <SCORE.SYSTEM>
0

>  <SCORE.SYSTEM.CONST>
0

>  <SCORE.SYSTEM.DIHEDRAL>
0

>  <SCORE.SYSTEM.SOLV>
0

>  <SCORE.SYSTEM.norm>
0

>  <SCORE.heavy>
26

>  <SCORE.norm>
-0.611825

>  <RMSD>
10.500

$$$$
ligand
 OpenBabel11021811443D
libRbt.so/2013.1/901 2013/11/27
 26 28  0  0  0  0  0  0  0  0999 V2000
   26.1126   39.1127   79.9695 C   0  0  0  0  0  0  0  0  0  0  0  0
   28.8745   38.4822   72.6448 C   0  0  0  0  0  0  0  0  0  0  0  0
   23.8385   37.8757   67.9602 P   0  0  1  0  0  0  0  0  0  0  0  0
   22.6874   39.8593   66.7656 P   0  0  1  0  0  0  0  0  0  0  0  0
   28.4658   37.2492   75.1312 C   0  0  0  0  0  0  0  0  0  0  0  0
   27.9255   39.0706   76.7751 C   0  0  0  0  0  0  0  0  0  0  0  0
   27.8426   37.7411   76.4122 C   0  0  0  0  0  0  0  0  0  0  0  0
   27.1663   36.8639   77.2618 C   0  0  0  0  0  0  0  0  0  0  0  0
   27.0554   35.5187   76.9428 N   0  0  0  0  0  0  0  0  0  0  0  0
   26.6345   37.3362   78.3853 N   0  0  0  0  0  0  0  0  0  0  0  0
   26.7332   38.6138   78.6906 C   0  0  0  0  0  0  0  0  0  0  0  0
   27.3655   39.4680   77.9099 N   0  0  0  0  0  0  0  0  0  0  0  0
   23.0227   36.8596   68.6627 O   0  0  0  0  0  0  0  0  0  0  0  0
   22.5638   38.6639   65.7940 O   0  0  0  0  0  0  0  0  0  0  0  0
   25.4550   36.5862   72.8773 S   0  0  0  0  0  0  0  0  0  0  0  0
   26.3412   36.4466   74.3647 C   0  0  0  0  0  0  0  0  0  0  0  0
   23.8609   37.5514   66.3847 O   0  0  0  0  0  0  0  0  0  0  0  0
   21.2517   40.5670   66.9340 O   0  5  0  0  0  0  0  0  0  0  0  0
   27.4326   37.1268   74.1005 N   0  0  0  0  0  0  0  0  0  0  0  0
   23.1998   39.3347   68.1991 O   0  0  0  0  0  0  0  0  0  0  0  0
   23.7002   40.8791   66.1984 O   0  0  0  0  0  0  0  0  0  0  0  0
   27.6160   37.7031   72.9325 C   0  0  2  0  0  0  0  0  0  0  0  0
   26.6492   37.5741   71.9885 C   0  0  2  0  0  0  0  0  0  0  0  0
   26.5961   38.1163   70.5842 C   0  0  0  0  0  0  0  0  0  0  0  0
   25.2380   37.7887   69.9595 C   0  0  0  0  0  0  0  0  0  0  0  0
   25.3423   37.8496   68.5356 O   0  0  0  0  0  0  0  0  0  0  0  0
  1 11  1  0  0  0  0
  3 13  1  1  0  0  0
  3 17  1  0  0  0  0
  3 20  1  0  0  0  0
  3 26  1  0  0  0  0
  4 14  1  0  0  0  0
  4 18  1  1  0  0  0
  4 21  2  0  0  0  0
  4 20  1  0  0  0  0
  5 19  1  0  0  0  0
  5  7  1  0  0  0  0
  6  7  2  0  0  0  0
  6 12  1  0  0  0  0
  7  8  1  0  0  0  0
  8  9  1  0  0  0  0
  8 10  2  0  0  0  0
 10 11  1  0  0  0  0
 11 12  2  0  0  0  0
 14 17  1  0  0  0  0
 15 23  1  0  0  0  0
 15 16  1  0  0  0  0
 16 19  1  0  0  0  0
 19 22  1  0  0  0  0
 22  2  1  6  0  0  0
 22 23  1  0  0  0  0
 23 24  1  1  0  0  0
 24 25  1  0  0  0  0
 25 26  1  0  0  0  0
M  CHG  1  18  -1
M  END
>  <CHROM.1>
-51.81075920,-99.72810922,4.37613813,-159.13738589,-165.74314049,-44.95626734
25.39618491,38.12486385,71.75471765,1.00275688,-0.80876760,1.25995680

>  <Name>
ligand

>  <RI>
0

>  <Rbt.Current_Directory>
/home/itssahil/PROJECTS/Mol_Feturizer/New_Systems/rnas/2HOL

>  <Rbt.Executable>
rbdock ($Id: //depot/dev/client3/rdock/2013.1/src/exe/rbdock.cxx#4 $)

>  <Rbt.Library>
libRbt.so (2013.1, Build901 2013/11/27)

>  <Rbt.Parameter_File>
/export/apps/rDock/src/rDock_2013.1_src/data/scripts/dock_solv.prm

>  <Rbt.Receptor>
prm/blind_docking_100.prm

>  <SCORE>
-12.1535

>  <SCORE.INTER>
-11.2795

>  <SCORE.INTER.CONST>
1

>  <SCORE.INTER.POLAR>
0

>  <SCORE.INTER.ROT>
6

>  <SCORE.INTER.SOLV>
13.4049

>  <SCORE.INTER.VDW>
-19.588

>  <SCORE.INTER.norm>
-0.433826

>  <SCORE.INTRA>
-0.874005

>  <SCORE.INTRA.DIHEDRAL>
-1.96594

>  <SCORE.INTRA.DIHEDRAL.0>
9.33621

>  <SCORE.INTRA.POLAR>
0

>  <SCORE.INTRA.POLAR.0>
0

>  <SCORE.INTRA.REPUL>
0

>  <SCORE.INTRA.REPUL.0>
0

>  <SCORE.INTRA.SOLV>
1.0297

>  <SCORE.INTRA.SOLV.lig_0>
-65.9238

>  <SCORE.INTRA.VDW>
-0.405884

>  <SCORE.INTRA.VDW.0>
-0.405582

>  <SCORE.INTRA.norm>
-0.0336156

>  <SCORE.RESTR>
0

>  <SCORE.RESTR.CAVITY>
0

>  <SCORE.RESTR.norm>
0

>  <SCORE.SYSTEM>
0

>  <SCORE.SYSTEM.CONST>
0

>  <SCORE.SYSTEM.DIHEDRAL>
0

>  <SCORE.SYSTEM.SOLV>
0

>  <SCORE.SYSTEM.norm>
0

>  <SCORE.heavy>
26

>  <SCORE.norm>
-0.467442

>  <RMSD>
10.502

$$$$
ligand
 OpenBabel11021811443D
libRbt.so/2013.1/901 2013/11/27
 26 28  0  0  0  0  0  0  0  0999 V2000
   23.3086   33.0108   70.1341 C   0  0  0  0  0  0  0  0  0  0  0  0
   27.1484   35.9523   76.0563 C   0  0  0  0  0  0  0  0  0  0  0  0
   28.5058   40.2015   78.5352 P   0  0  1  0  0  0  0  0  0  0  0  0
   27.3863   40.7416   80.8027 P   0  0  1  0  0  0  0  0  0  0  0  0
   27.5199   34.6974   73.5750 C   0  0  0  0  0  0  0  0  0  0  0  0
   26.3953   34.6026   71.3304 C   0  0  0  0  0  0  0  0  0  0  0  0
   26.4045   34.2504   72.6654 C   0  0  0  0  0  0  0  0  0  0  0  0
   25.3545   33.4692   73.1512 C   0  0  0  0  0  0  0  0  0  0  0  0
   25.3171   33.0892   74.4845 N   0  0  0  0  0  0  0  0  0  0  0  0
   24.3868   33.0994   72.3175 N   0  0  0  0  0  0  0  0  0  0  0  0
   24.4201   33.4540   71.0494 C   0  0  0  0  0  0  0  0  0  0  0  0
   25.3974   34.1915   70.5594 N   0  0  0  0  0  0  0  0  0  0  0  0
   29.8424   39.5660   78.5017 O   0  0  0  0  0  0  0  0  0  0  0  0
   27.1374   39.2347   80.5677 O   0  0  0  0  0  0  0  0  0  0  0  0
   27.6743   38.4856   73.1155 S   0  0  0  0  0  0  0  0  0  0  0  0
   27.7300   36.8483   72.5379 C   0  0  0  0  0  0  0  0  0  0  0  0
   27.3823   39.0772   78.7832 O   0  0  0  0  0  0  0  0  0  0  0  0
   27.9576   40.9675   82.2903 O   0  5  0  0  0  0  0  0  0  0  0  0
   27.5408   36.1604   73.6401 N   0  0  0  0  0  0  0  0  0  0  0  0
   28.4560   41.2827   79.7277 O   0  0  0  0  0  0  0  0  0  0  0  0
   26.0572   41.5128   80.6396 O   0  0  0  0  0  0  0  0  0  0  0  0
   27.3661   36.7565   74.7993 C   0  0  2  0  0  0  0  0  0  0  0  0
   27.3937   38.1130   74.8401 C   0  0  2  0  0  0  0  0  0  0  0  0
   27.2294   39.0447   76.0122 C   0  0  0  0  0  0  0  0  0  0  0  0
   28.4444   39.9706   76.1049 C   0  0  0  0  0  0  0  0  0  0  0  0
   28.2263   40.9401   77.1318 O   0  0  0  0  0  0  0  0  0  0  0  0
  1 11  1  0  0  0  0
  3 13  1  6  0  0  0
  3 17  1  0  0  0  0
  3 20  1  0  0  0  0
  3 26  1  0  0  0  0
  4 14  1  0  0  0  0
  4 18  1  1  0  0  0
  4 21  2  0  0  0  0
  4 20  1  0  0  0  0
  5 19  1  0  0  0  0
  5  7  1  0  0  0  0
  6  7  2  0  0  0  0
  6 12  1  0  0  0  0
  7  8  1  0  0  0  0
  8  9  1  0  0  0  0
  8 10  2  0  0  0  0
 10 11  1  0  0  0  0
 11 12  2  0  0  0  0
 14 17  1  0  0  0  0
 15 23  1  0  0  0  0
 15 16  1  0  0  0  0
 16 19  1  0  0  0  0
 19 22  1  0  0  0  0
 22  2  1  1  0  0  0
 22 23  1  0  0  0  0
 23 24  1  6  0  0  0
 24 25  1  0  0  0  0
 25 26  1  0  0  0  0
M  CHG  1  18  -1
M  END
>  <CHROM.1>
-60.31639342,61.76278814,-55.88414958,174.22497188,78.31014329,53.11622173
27.07735091,37.72583358,75.96062977,1.94875949,-0.92508176,-1.94019622

>  <Name>
ligand

>  <RI>
0

>  <Rbt.Current_Directory>
/home/itssahil/PROJECTS/Mol_Feturizer/New_Systems/rnas/2HOL

>  <Rbt.Executable>
rbdock ($Id: //depot/dev/client3/rdock/2013.1/src/exe/rbdock.cxx#4 $)

>  <Rbt.Library>
libRbt.so (2013.1, Build901 2013/11/27)

>  <Rbt.Parameter_File>
/export/apps/rDock/src/rDock_2013.1_src/data/scripts/dock_solv.prm

>  <Rbt.Receptor>
prm/blind_docking_100.prm

>  <SCORE>
-15.3483

>  <SCORE.INTER>
-14.6169

>  <SCORE.INTER.CONST>
1

>  <SCORE.INTER.POLAR>
0

>  <SCORE.INTER.ROT>
6

>  <SCORE.INTER.SOLV>
10.0054

>  <SCORE.INTER.VDW>
-20.6797

>  <SCORE.INTER.norm>
-0.562187

>  <SCORE.INTRA>
-0.731417

>  <SCORE.INTRA.DIHEDRAL>
-2.45089

>  <SCORE.INTRA.DIHEDRAL.0>
9.33621

>  <SCORE.INTRA.POLAR>
0

>  <SCORE.INTRA.POLAR.0>
0

>  <SCORE.INTRA.REPUL>
0

>  <SCORE.INTRA.REPUL.0>
0

>  <SCORE.INTRA.SOLV>
0.810619

>  <SCORE.INTRA.SOLV.lig_0>
-65.9238

>  <SCORE.INTRA.VDW>
0.0887168

>  <SCORE.INTRA.VDW.0>
-0.405582

>  <SCORE.INTRA.norm>
-0.0281314

>  <SCORE.RESTR>
0

>  <SCORE.RESTR.CAVITY>
0

>  <SCORE.RESTR.norm>
0

>  <SCORE.SYSTEM>
0

>  <SCORE.SYSTEM.CONST>
0

>  <SCORE.SYSTEM.DIHEDRAL>
0

>  <SCORE.SYSTEM.SOLV>
0

>  <SCORE.SYSTEM.norm>
0

>  <SCORE.heavy>
26

>  <SCORE.norm>
-0.590318

>  <RMSD>
11.336

$$$$
ligand
 OpenBabel11021811443D
libRbt.so/2013.1/901 2013/11/27
 26 28  0  0  0  0  0  0  0  0999 V2000
   28.6497   41.7058   76.1093 C   0  0  0  0  0  0  0  0  0  0  0  0
   28.0524   35.5932   76.8793 C   0  0  0  0  0  0  0  0  0  0  0  0
   24.2702   34.4475   71.8154 P   0  0  1  0  0  0  0  0  0  0  0  0
   25.2516   36.4633   70.5271 P   0  0  1  0  0  0  0  0  0  0  0  0
   26.3391   37.0930   78.5179 C   0  0  0  0  0  0  0  0  0  0  0  0
   27.0694   38.4142   76.5097 C   0  0  0  0  0  0  0  0  0  0  0  0
   26.9510   38.3145   77.8817 C   0  0  0  0  0  0  0  0  0  0  0  0
   27.4121   39.3742   78.6647 C   0  0  0  0  0  0  0  0  0  0  0  0
   27.3164   39.3226   80.0474 N   0  0  0  0  0  0  0  0  0  0  0  0
   27.9502   40.4322   78.0653 N   0  0  0  0  0  0  0  0  0  0  0  0
   28.0393   40.4879   76.7523 C   0  0  0  0  0  0  0  0  0  0  0  0
   27.6134   39.5039   75.9845 N   0  0  0  0  0  0  0  0  0  0  0  0
   22.8690   34.0305   71.5825 O   0  0  0  0  0  0  0  0  0  0  0  0
   25.3176   35.2729   69.5439 O   0  0  0  0  0  0  0  0  0  0  0  0
   24.2653   35.0814   76.0202 S   0  0  0  0  0  0  0  0  0  0  0  0
   24.4545   36.1980   77.3374 C   0  0  0  0  0  0  0  0  0  0  0  0
   25.2089   33.8497   70.6538 O   0  0  0  0  0  0  0  0  0  0  0  0
   24.5890   37.7327   69.7921 O   0  5  0  0  0  0  0  0  0  0  0  0
   25.7592   36.2393   77.4787 N   0  0  0  0  0  0  0  0  0  0  0  0
   24.3599   36.0554   71.8043 O   0  0  0  0  0  0  0  0  0  0  0  0
   26.6803   36.8256   70.9911 O   0  0  0  0  0  0  0  0  0  0  0  0
   26.5557   35.5340   76.7054 C   0  0  2  0  0  0  0  0  0  0  0  0
   25.9992   34.7449   75.7513 C   0  0  2  0  0  0  0  0  0  0  0  0
   26.6596   33.8407   74.7439 C   0  0  0  0  0  0  0  0  0  0  0  0
   26.1606   34.1876   73.3393 C   0  0  0  0  0  0  0  0  0  0  0  0
   24.7653   33.8942   73.2444 O   0  0  0  0  0  0  0  0  0  0  0  0
  1 11  1  0  0  0  0
  3 13  1  6  0  0  0
  3 17  1  0  0  0  0
  3 20  1  0  0  0  0
  3 26  1  0  0  0  0
  4 14  1  0  0  0  0
  4 18  1  6  0  0  0
  4 21  2  0  0  0  0
  4 20  1  0  0  0  0
  5 19  1  0  0  0  0
  5  7  1  0  0  0  0
  6  7  2  0  0  0  0
  6 12  1  0  0  0  0
  7  8  1  0  0  0  0
  8  9  1  0  0  0  0
  8 10  2  0  0  0  0
 10 11  1  0  0  0  0
 11 12  2  0  0  0  0
 14 17  1  0  0  0  0
 15 23  1  0  0  0  0
 15 16  1  0  0  0  0
 16 19  1  0  0  0  0
 19 22  1  0  0  0  0
 22  2  1  1  0  0  0
 22 23  1  0  0  0  0
 23 24  1  6  0  0  0
 24 25  1  0  0  0  0
 25 26  1  0  0  0  0
M  CHG  1  18  -1
M  END
>  <CHROM.1>
-105.55426906,-8.61882693,53.10488827,-65.26129860,173.18146093,173.19180311
25.86138548,36.47976836,74.43157186,-0.75231478,-1.12355340,-1.31067739

>  <Name>
ligand

>  <RI>
0

>  <Rbt.Current_Directory>
/home/itssahil/PROJECTS/Mol_Feturizer/New_Systems/rnas/2HOL

>  <Rbt.Executable>
rbdock ($Id: //depot/dev/client3/rdock/2013.1/src/exe/rbdock.cxx#4 $)

>  <Rbt.Library>
libRbt.so (2013.1, Build901 2013/11/27)

>  <Rbt.Parameter_File>
/export/apps/rDock/src/rDock_2013.1_src/data/scripts/dock_solv.prm

>  <Rbt.Receptor>
prm/blind_docking_100.prm

>  <SCORE>
-16.4188

>  <SCORE.INTER>
-13.6181

>  <SCORE.INTER.CONST>
1

>  <SCORE.INTER.POLAR>
0

>  <SCORE.INTER.ROT>
6

>  <SCORE.INTER.SOLV>
13.8972

>  <SCORE.INTER.VDW>
-21.3111

>  <SCORE.INTER.norm>
-0.523772

>  <SCORE.INTRA>
-2.80075

>  <SCORE.INTRA.DIHEDRAL>
-3.78744

>  <SCORE.INTRA.DIHEDRAL.0>
9.33621

>  <SCORE.INTRA.POLAR>
0

>  <SCORE.INTRA.POLAR.0>
0

>  <SCORE.INTRA.REPUL>
0

>  <SCORE.INTRA.REPUL.0>
0

>  <SCORE.INTRA.SOLV>
0.122453

>  <SCORE.INTRA.SOLV.lig_0>
-65.9238

>  <SCORE.INTRA.VDW>
-0.968252

>  <SCORE.INTRA.VDW.0>
-0.405582

>  <SCORE.INTRA.norm>
-0.107721

>  <SCORE.RESTR>
0

>  <SCORE.RESTR.CAVITY>
0

>  <SCORE.RESTR.norm>
0

>  <SCORE.SYSTEM>
0

>  <SCORE.SYSTEM.CONST>
0

>  <SCORE.SYSTEM.DIHEDRAL>
0

>  <SCORE.SYSTEM.SOLV>
0

>  <SCORE.SYSTEM.norm>
0

>  <SCORE.heavy>
26

>  <SCORE.norm>
-0.631493

>  <RMSD>
11.507

$$$$
ligand
 OpenBabel11021811443D
libRbt.so/2013.1/901 2013/11/27
 26 28  0  0  0  0  0  0  0  0999 V2000
   23.1060   32.4189   73.0961 C   0  0  0  0  0  0  0  0  0  0  0  0
   28.3647   37.7273   73.7306 C   0  0  0  0  0  0  0  0  0  0  0  0
   29.9448   40.2129   79.3879 P   0  0  1  0  0  0  0  0  0  0  0  0
   30.5294   42.6171   80.1392 P   0  0  1  0  0  0  0  0  0  0  0  0
   28.0649   34.9812   74.2194 C   0  0  0  0  0  0  0  0  0  0  0  0
   26.1544   33.4771   74.8510 C   0  0  0  0  0  0  0  0  0  0  0  0
   26.7524   34.3036   73.9207 C   0  0  0  0  0  0  0  0  0  0  0  0
   26.1101   34.4959   72.6963 C   0  0  0  0  0  0  0  0  0  0  0  0
   26.6697   35.3161   71.7280 N   0  0  0  0  0  0  0  0  0  0  0  0
   24.9557   33.8761   72.4695 N   0  0  0  0  0  0  0  0  0  0  0  0
   24.4179   33.0995   73.3876 C   0  0  0  0  0  0  0  0  0  0  0  0
   24.9992   32.8970   74.5538 N   0  0  0  0  0  0  0  0  0  0  0  0
   31.0069   39.1853   79.2999 O   0  0  0  0  0  0  0  0  0  0  0  0
   30.4326   41.7896   81.4407 O   0  0  0  0  0  0  0  0  0  0  0  0
   27.4905   36.9161   77.4615 S   0  0  0  0  0  0  0  0  0  0  0  0
   27.5964   35.4595   76.5211 C   0  0  0  0  0  0  0  0  0  0  0  0
   29.4621   40.3572   80.9156 O   0  0  0  0  0  0  0  0  0  0  0  0
   31.8934   43.4715   80.1444 O   0  5  0  0  0  0  0  0  0  0  0  0
   27.8881   35.9223   75.3275 N   0  0  0  0  0  0  0  0  0  0  0  0
   30.5210   41.6251   78.8709 O   0  0  0  0  0  0  0  0  0  0  0  0
   29.3217   43.5768   80.0502 O   0  0  0  0  0  0  0  0  0  0  0  0
   28.0282   37.2113   75.1069 C   0  0  2  0  0  0  0  0  0  0  0  0
   27.8555   38.0681   76.1456 C   0  0  2  0  0  0  0  0  0  0  0  0
   27.9494   39.5710   76.1800 C   0  0  0  0  0  0  0  0  0  0  0  0
   29.0881   39.9920   77.1117 C   0  0  0  0  0  0  0  0  0  0  0  0
   28.6967   39.7760   78.4690 O   0  0  0  0  0  0  0  0  0  0  0  0
  1 11  1  0  0  0  0
  3 13  1  6  0  0  0
  3 17  1  0  0  0  0
  3 20  1  0  0  0  0
  3 26  1  0  0  0  0
  4 14  1  0  0  0  0
  4 18  1  1  0  0  0
  4 21  2  0  0  0  0
  4 20  1  0  0  0  0
  5 19  1  0  0  0  0
  5  7  1  0  0  0  0
  6  7  2  0  0  0  0
  6 12  1  0  0  0  0
  7  8  1  0  0  0  0
  8  9  1  0  0  0  0
  8 10  2  0  0  0  0
 10 11  1  0  0  0  0
 11 12  2  0  0  0  0
 14 17  1  0  0  0  0
 15 23  1  0  0  0  0
 15 16  1  0  0  0  0
 16 19  1  0  0  0  0
 19 22  1  0  0  0  0
 22  2  1  6  0  0  0
 22 23  1  0  0  0  0
 23 24  1  1  0  0  0
 24 25  1  0  0  0  0
 25 26  1  0  0  0  0
M  CHG  1  18  -1
M  END
>  <CHROM.1>
65.99628329,-64.48049016,62.63551891,-73.14581664,179.00369127,-74.28592771
28.24140282,38.10077843,76.90587160,2.55136062,-1.04109004,-1.54494161

>  <Name>
ligand

>  <RI>
0

>  <Rbt.Current_Directory>
/home/itssahil/PROJECTS/Mol_Feturizer/New_Systems/rnas/2HOL

>  <Rbt.Executable>
rbdock ($Id: //depot/dev/client3/rdock/2013.1/src/exe/rbdock.cxx#4 $)

>  <Rbt.Library>
libRbt.so (2013.1, Build901 2013/11/27)

>  <Rbt.Parameter_File>
/export/apps/rDock/src/rDock_2013.1_src/data/scripts/dock_solv.prm

>  <Rbt.Receptor>
prm/blind_docking_100.prm

>  <SCORE>
-17.9019

>  <SCORE.INTER>
-15.1903

>  <SCORE.INTER.CONST>
1

>  <SCORE.INTER.POLAR>
0

>  <SCORE.INTER.ROT>
6

>  <SCORE.INTER.SOLV>
14.7002

>  <SCORE.INTER.VDW>
-22.627

>  <SCORE.INTER.norm>
-0.584244

>  <SCORE.INTRA>
-2.75434

>  <SCORE.INTRA.DIHEDRAL>
-3.22345

>  <SCORE.INTRA.DIHEDRAL.0>
9.33621

>  <SCORE.INTRA.POLAR>
0

>  <SCORE.INTRA.POLAR.0>
0

>  <SCORE.INTRA.REPUL>
0

>  <SCORE.INTRA.REPUL.0>
0

>  <SCORE.INTRA.SOLV>
1.12893

>  <SCORE.INTRA.SOLV.lig_0>
-65.9238

>  <SCORE.INTRA.VDW>
-1.70708

>  <SCORE.INTRA.VDW.0>
-0.405582

>  <SCORE.INTRA.norm>
-0.105936

>  <SCORE.RESTR>
0.042783

>  <SCORE.RESTR.CAVITY>
0.042783

>  <SCORE.RESTR.norm>
0.0016455

>  <SCORE.SYSTEM>
0

>  <SCORE.SYSTEM.CONST>
0

>  <SCORE.SYSTEM.DIHEDRAL>
0

>  <SCORE.SYSTEM.SOLV>
0

>  <SCORE.SYSTEM.norm>
0

>  <SCORE.heavy>
26

>  <SCORE.norm>
-0.688535

>  <RMSD>
11.867

$$$$
ligand
 OpenBabel11021811443D
libRbt.so/2013.1/901 2013/11/27
 26 28  0  0  0  0  0  0  0  0999 V2000
   22.4674   35.3713   71.2187 C   0  0  0  0  0  0  0  0  0  0  0  0
   27.2938   35.9287   76.5415 C   0  0  0  0  0  0  0  0  0  0  0  0
   27.3929   40.0565   80.7348 P   0  0  1  0  0  0  0  0  0  0  0  0
   28.3784   40.7371   78.4430 P   0  0  1  0  0  0  0  0  0  0  0  0
   25.4267   33.9459   75.8694 C   0  0  0  0  0  0  0  0  0  0  0  0
   24.4861   35.6446   74.2752 C   0  0  0  0  0  0  0  0  0  0  0  0
   24.6431   34.3218   74.6382 C   0  0  0  0  0  0  0  0  0  0  0  0
   24.0577   33.3411   73.8355 C   0  0  0  0  0  0  0  0  0  0  0  0
   24.1858   31.9981   74.1571 N   0  0  0  0  0  0  0  0  0  0  0  0
   23.3700   33.7141   72.7602 N   0  0  0  0  0  0  0  0  0  0  0  0
   23.2492   34.9880   72.4480 C   0  0  0  0  0  0  0  0  0  0  0  0
   23.7897   35.9385   73.1853 N   0  0  0  0  0  0  0  0  0  0  0  0
   27.8705   40.7152   81.9716 O   0  0  0  0  0  0  0  0  0  0  0  0
   27.3314   41.8222   78.7812 O   0  0  0  0  0  0  0  0  0  0  0  0
   24.0566   36.0557   78.7430 S   0  0  0  0  0  0  0  0  0  0  0  0
   23.9659   34.7643   77.5848 C   0  0  0  0  0  0  0  0  0  0  0  0
   26.3014   40.9932   80.0144 O   0  0  0  0  0  0  0  0  0  0  0  0
   29.7569   41.4387   77.9982 O   0  5  0  0  0  0  0  0  0  0  0  0
   25.1113   34.8790   76.9533 N   0  0  0  0  0  0  0  0  0  0  0  0
   28.6367   39.8182   79.7399 O   0  0  0  0  0  0  0  0  0  0  0  0
   27.8517   39.8586   77.2861 O   0  0  0  0  0  0  0  0  0  0  0  0
   25.9819   35.8107   77.2754 C   0  0  2  0  0  0  0  0  0  0  0  0
   25.6693   36.6691   78.2793 C   0  0  2  0  0  0  0  0  0  0  0  0
   26.4627   37.8168   78.8471 C   0  0  0  0  0  0  0  0  0  0  0  0
   25.7564   38.3625   80.0903 C   0  0  0  0  0  0  0  0  0  0  0  0
   26.7245   38.6389   81.1044 O   0  0  0  0  0  0  0  0  0  0  0  0
  1 11  1  0  0  0  0
  3 13  1  1  0  0  0
  3 17  1  0  0  0  0
  3 20  1  0  0  0  0
  3 26  1  0  0  0  0
  4 14  1  0  0  0  0
  4 18  1  6  0  0  0
  4 21  2  0  0  0  0
  4 20  1  0  0  0  0
  5 19  1  0  0  0  0
  5  7  1  0  0  0  0
  6  7  2  0  0  0  0
  6 12  1  0  0  0  0
  7  8  1  0  0  0  0
  8  9  1  0  0  0  0
  8 10  2  0  0  0  0
 10 11  1  0  0  0  0
 11 12  2  0  0  0  0
 14 17  1  0  0  0  0
 15 23  1  0  0  0  0
 15 16  1  0  0  0  0
 16 19  1  0  0  0  0
 19 22  1  0  0  0  0
 22  2  1  6  0  0  0
 22 23  1  0  0  0  0
 23 24  1  1  0  0  0
 24 25  1  0  0  0  0
 25 26  1  0  0  0  0
M  CHG  1  18  -1
M  END
>  <CHROM.1>
75.80473202,40.91869484,7.19067667,137.99425709,79.78472615,152.58445609
25.97685712,37.46263936,77.43226432,-2.50817720,1.03084868,1.63165734

>  <Name>
ligand

>  <RI>
0

>  <Rbt.Current_Directory>
/home/itssahil/PROJECTS/Mol_Feturizer/New_Systems/rnas/2HOL

>  <Rbt.Executable>
rbdock ($Id: //depot/dev/client3/rdock/2013.1/src/exe/rbdock.cxx#4 $)

>  <Rbt.Library>
libRbt.so (2013.1, Build901 2013/11/27)

>  <Rbt.Parameter_File>
/export/apps/rDock/src/rDock_2013.1_src/data/scripts/dock_solv.prm

>  <Rbt.Receptor>
prm/blind_docking_100.prm

>  <SCORE>
-10.9279

>  <SCORE.INTER>
-12.6977

>  <SCORE.INTER.CONST>
1

>  <SCORE.INTER.POLAR>
0

>  <SCORE.INTER.ROT>
6

>  <SCORE.INTER.SOLV>
10.8573

>  <SCORE.INTER.VDW>
-19.6842

>  <SCORE.INTER.norm>
-0.488371

>  <SCORE.INTRA>
1.76979

>  <SCORE.INTRA.DIHEDRAL>
2.442

>  <SCORE.INTRA.DIHEDRAL.0>
9.33621

>  <SCORE.INTRA.POLAR>
0

>  <SCORE.INTRA.POLAR.0>
0

>  <SCORE.INTRA.REPUL>
0

>  <SCORE.INTRA.REPUL.0>
0

>  <SCORE.INTRA.SOLV>
1.84135

>  <SCORE.INTRA.SOLV.lig_0>
-65.9238

>  <SCORE.INTRA.VDW>
-0.371885

>  <SCORE.INTRA.VDW.0>
-0.405582

>  <SCORE.INTRA.norm>
0.0680688

>  <SCORE.RESTR>
0

>  <SCORE.RESTR.CAVITY>
0

>  <SCORE.RESTR.norm>
0

>  <SCORE.SYSTEM>
0

>  <SCORE.SYSTEM.CONST>
0

>  <SCORE.SYSTEM.DIHEDRAL>
0

>  <SCORE.SYSTEM.SOLV>
0

>  <SCORE.SYSTEM.norm>
0

>  <SCORE.heavy>
26

>  <SCORE.norm>
-0.420303

>  <RMSD>
11.967

$$$$
ligand
 OpenBabel11021811443D
libRbt.so/2013.1/901 2013/11/27
 26 28  0  0  0  0  0  0  0  0999 V2000
   28.6643   42.3201   76.6868 C   0  0  0  0  0  0  0  0  0  0  0  0
   24.4353   35.5761   77.5224 C   0  0  0  0  0  0  0  0  0  0  0  0
   23.1731   34.9040   73.0813 P   0  0  1  0  0  0  0  0  0  0  0  0
   24.5429   35.4058   70.9462 P   0  0  1  0  0  0  0  0  0  0  0  0
   26.3348   37.4277   78.4351 C   0  0  0  0  0  0  0  0  0  0  0  0
   27.1323   38.9821   76.6297 C   0  0  0  0  0  0  0  0  0  0  0  0
   26.9516   38.7231   77.9737 C   0  0  0  0  0  0  0  0  0  0  0  0
   27.3544   39.6918   78.8946 C   0  0  0  0  0  0  0  0  0  0  0  0
   27.1950   39.4797   80.2559 N   0  0  0  0  0  0  0  0  0  0  0  0
   27.8990   40.8195   78.4474 N   0  0  0  0  0  0  0  0  0  0  0  0
   28.0485   41.0276   77.1554 C   0  0  0  0  0  0  0  0  0  0  0  0
   27.6787   40.1328   76.2600 N   0  0  0  0  0  0  0  0  0  0  0  0
   21.7993   35.4372   73.2225 O   0  0  0  0  0  0  0  0  0  0  0  0
   23.5935   34.2475   70.5653 O   0  0  0  0  0  0  0  0  0  0  0  0
   28.0507   34.8465   76.2038 S   0  0  0  0  0  0  0  0  0  0  0  0
   28.0365   36.2546   77.2210 C   0  0  0  0  0  0  0  0  0  0  0  0
   23.1425   33.5716   72.1805 O   0  0  0  0  0  0  0  0  0  0  0  0
   24.4606   36.5597   69.8272 O   0  5  0  0  0  0  0  0  0  0  0  0
   26.7702   36.3392   77.5573 N   0  0  0  0  0  0  0  0  0  0  0  0
   24.1070   36.0091   72.3740 O   0  0  0  0  0  0  0  0  0  0  0  0
   25.9915   34.8749   71.0321 O   0  0  0  0  0  0  0  0  0  0  0  0
   25.8860   35.4662   77.1261 C   0  0  2  0  0  0  0  0  0  0  0  0
   26.3080   34.4674   76.3095 C   0  0  2  0  0  0  0  0  0  0  0  0
   25.5256   33.3487   75.6729 C   0  0  0  0  0  0  0  0  0  0  0  0
   24.9701   33.8143   74.3251 C   0  0  0  0  0  0  0  0  0  0  0  0
   23.7666   34.5550   74.5371 O   0  0  0  0  0  0  0  0  0  0  0  0
  1 11  1  0  0  0  0
  3 13  1  1  0  0  0
  3 17  1  0  0  0  0
  3 20  1  0  0  0  0
  3 26  1  0  0  0  0
  4 14  1  0  0  0  0
  4 18  1  6  0  0  0
  4 21  2  0  0  0  0
  4 20  1  0  0  0  0
  5 19  1  0  0  0  0
  5  7  1  0  0  0  0
  6  7  2  0  0  0  0
  6 12  1  0  0  0  0
  7  8  1  0  0  0  0
  8  9  1  0  0  0  0
  8 10  2  0  0  0  0
 10 11  1  0  0  0  0
 11 12  2  0  0  0  0
 14 17  1  0  0  0  0
 15 23  1  0  0  0  0
 15 16  1  0  0  0  0
 16 19  1  0  0  0  0
 19 22  1  0  0  0  0
 22  2  1  6  0  0  0
 22 23  1  0  0  0  0
 23 24  1  1  0  0  0
 24 25  1  0  0  0  0
 25 26  1  0  0  0  0
M  CHG  1  18  -1
M  END
>  <CHROM.1>
45.11343335,36.07771594,-91.85512060,-82.12843574,-175.30224559,169.03725740
25.66836268,36.41588061,74.99077790,-0.13247000,-1.11283758,-0.78777184

>  <Name>
ligand

>  <RI>
0

>  <Rbt.Current_Directory>
/home/itssahil/PROJECTS/Mol_Feturizer/New_Systems/rnas/2HOL

>  <Rbt.Executable>
rbdock ($Id: //depot/dev/client3/rdock/2013.1/src/exe/rbdock.cxx#4 $)

>  <Rbt.Library>
libRbt.so (2013.1, Build901 2013/11/27)

>  <Rbt.Parameter_File>
/export/apps/rDock/src/rDock_2013.1_src/data/scripts/dock_solv.prm

>  <Rbt.Receptor>
prm/blind_docking_100.prm

>  <SCORE>
-19.6288

>  <SCORE.INTER>
-17.1214

>  <SCORE.INTER.CONST>
1

>  <SCORE.INTER.POLAR>
0

>  <SCORE.INTER.ROT>
6

>  <SCORE.INTER.SOLV>
13.9206

>  <SCORE.INTER.VDW>
-23.6545

>  <SCORE.INTER.norm>
-0.658516

>  <SCORE.INTRA>
-2.50738

>  <SCORE.INTRA.DIHEDRAL>
-2.54148

>  <SCORE.INTRA.DIHEDRAL.0>
9.33621

>  <SCORE.INTRA.POLAR>
0

>  <SCORE.INTRA.POLAR.0>
0

>  <SCORE.INTRA.REPUL>
0

>  <SCORE.INTRA.REPUL.0>
0

>  <SCORE.INTRA.SOLV>
0.33583

>  <SCORE.INTRA.SOLV.lig_0>
-65.9238

>  <SCORE.INTRA.VDW>
-1.40456

>  <SCORE.INTRA.VDW.0>
-0.405582

>  <SCORE.INTRA.norm>
-0.0964378

>  <SCORE.RESTR>
0

>  <SCORE.RESTR.CAVITY>
0

>  <SCORE.RESTR.norm>
0

>  <SCORE.SYSTEM>
0

>  <SCORE.SYSTEM.CONST>
0

>  <SCORE.SYSTEM.DIHEDRAL>
0

>  <SCORE.SYSTEM.SOLV>
0

>  <SCORE.SYSTEM.norm>
0

>  <SCORE.heavy>
26

>  <SCORE.norm>
-0.754954

>  <RMSD>
12.035

$$$$
ligand
 OpenBabel11021811443D
libRbt.so/2013.1/901 2013/11/27
 26 28  0  0  0  0  0  0  0  0999 V2000
   25.5544   35.1577   70.5501 C   0  0  0  0  0  0  0  0  0  0  0  0
   23.6856   35.7773   78.7833 C   0  0  0  0  0  0  0  0  0  0  0  0
   27.7978   40.7866   80.0213 P   0  0  1  0  0  0  0  0  0  0  0  0
   26.1520   42.6783   80.6533 P   0  0  1  0  0  0  0  0  0  0  0  0
   24.1411   35.2561   76.0647 C   0  0  0  0  0  0  0  0  0  0  0  0
   24.5082   36.3847   73.8504 C   0  0  0  0  0  0  0  0  0  0  0  0
   24.5153   35.2286   74.6051 C   0  0  0  0  0  0  0  0  0  0  0  0
   24.8784   34.0334   73.9819 C   0  0  0  0  0  0  0  0  0  0  0  0
   24.9008   32.8446   74.6960 N   0  0  0  0  0  0  0  0  0  0  0  0
   25.1970   34.0504   72.6910 N   0  0  0  0  0  0  0  0  0  0  0  0
   25.1815   35.1775   72.0095 C   0  0  0  0  0  0  0  0  0  0  0  0
   24.8430   36.3229   72.5685 N   0  0  0  0  0  0  0  0  0  0  0  0
   29.1105   41.1164   79.4216 O   0  0  0  0  0  0  0  0  0  0  0  0
   27.1768   42.6192   81.8085 O   0  0  0  0  0  0  0  0  0  0  0  0
   26.9737   37.4221   77.4322 S   0  0  0  0  0  0  0  0  0  0  0  0
   26.1590   36.5454   76.1732 C   0  0  0  0  0  0  0  0  0  0  0  0
   27.8771   40.9631   81.6183 O   0  0  0  0  0  0  0  0  0  0  0  0
   25.9800   44.2018   80.1635 O   0  5  0  0  0  0  0  0  0  0  0  0
   25.1067   36.0744   76.8015 N   0  0  0  0  0  0  0  0  0  0  0  0
   26.6735   41.7747   79.4269 O   0  0  0  0  0  0  0  0  0  0  0  0
   24.7904   42.1400   81.1471 O   0  0  0  0  0  0  0  0  0  0  0  0
   24.8998   36.3245   78.0760 C   0  0  2  0  0  0  0  0  0  0  0  0
   25.8086   37.0807   78.7430 C   0  0  2  0  0  0  0  0  0  0  0  0
   25.8275   37.5145   80.1853 C   0  0  0  0  0  0  0  0  0  0  0  0
   26.1399   39.0104   80.2663 C   0  0  0  0  0  0  0  0  0  0  0  0
   27.4125   39.2637   79.6674 O   0  0  0  0  0  0  0  0  0  0  0  0
  1 11  1  0  0  0  0
  3 13  1  6  0  0  0
  3 17  1  0  0  0  0
  3 20  1  0  0  0  0
  3 26  1  0  0  0  0
  4 14  1  0  0  0  0
  4 18  1  6  0  0  0
  4 21  2  0  0  0  0
  4 20  1  0  0  0  0
  5 19  1  0  0  0  0
  5  7  1  0  0  0  0
  6  7  2  0  0  0  0
  6 12  1  0  0  0  0
  7  8  1  0  0  0  0
  8  9  1  0  0  0  0
  8 10  2  0  0  0  0
 10 11  1  0  0  0  0
 11 12  2  0  0  0  0
 14 17  1  0  0  0  0
 15 23  1  0  0  0  0
 15 16  1  0  0  0  0
 16 19  1  0  0  0  0
 19 22  1  0  0  0  0
 22  2  1  1  0  0  0
 22 23  1  0  0  0  0
 23 24  1  6  0  0  0
 24 25  1  0  0  0  0
 25 26  1  0  0  0  0
M  CHG  1  18  -1
M  END
>  <CHROM.1>
-5.59438081,-63.53921427,46.90188778,-59.53941972,-169.91431941,-179.75030402
26.01888385,38.38685965,77.76392883,-2.22525168,1.26099343,1.41580529

>  <Name>
ligand

>  <RI>
0

>  <Rbt.Current_Directory>
/home/itssahil/PROJECTS/Mol_Feturizer/New_Systems/rnas/2HOL

>  <Rbt.Executable>
rbdock ($Id: //depot/dev/client3/rdock/2013.1/src/exe/rbdock.cxx#4 $)

>  <Rbt.Library>
libRbt.so (2013.1, Build901 2013/11/27)

>  <Rbt.Parameter_File>
/export/apps/rDock/src/rDock_2013.1_src/data/scripts/dock_solv.prm

>  <Rbt.Receptor>
prm/blind_docking_100.prm

>  <SCORE>
-14.7777

>  <SCORE.INTER>
-12.7998

>  <SCORE.INTER.CONST>
1

>  <SCORE.INTER.POLAR>
0

>  <SCORE.INTER.ROT>
6

>  <SCORE.INTER.SOLV>
12.3964

>  <SCORE.INTER.VDW>
-20.2654

>  <SCORE.INTER.norm>
-0.492301

>  <SCORE.INTRA>
-1.97785

>  <SCORE.INTRA.DIHEDRAL>
-3.7436

>  <SCORE.INTRA.DIHEDRAL.0>
9.33621

>  <SCORE.INTRA.POLAR>
0

>  <SCORE.INTRA.POLAR.0>
0

>  <SCORE.INTRA.REPUL>
0

>  <SCORE.INTRA.REPUL.0>
0

>  <SCORE.INTRA.SOLV>
0.323399

>  <SCORE.INTRA.SOLV.lig_0>
-65.9238

>  <SCORE.INTRA.VDW>
-0.267746

>  <SCORE.INTRA.VDW.0>
-0.405582

>  <SCORE.INTRA.norm>
-0.0760711

>  <SCORE.RESTR>
0

>  <SCORE.RESTR.CAVITY>
0

>  <SCORE.RESTR.norm>
0

>  <SCORE.SYSTEM>
0

>  <SCORE.SYSTEM.CONST>
0

>  <SCORE.SYSTEM.DIHEDRAL>
0

>  <SCORE.SYSTEM.SOLV>
0

>  <SCORE.SYSTEM.norm>
0

>  <SCORE.heavy>
26

>  <SCORE.norm>
-0.568372

>  <RMSD>
12.557

$$$$
ligand
 OpenBabel11021811443D
libRbt.so/2013.1/901 2013/11/27
 26 28  0  0  0  0  0  0  0  0999 V2000
   25.8456   41.7442   60.9341 C   0  0  0  0  0  0  0  0  0  0  0  0
   28.4281   41.2276   53.1343 C   0  0  0  0  0  0  0  0  0  0  0  0
   32.1054   35.9453   54.4284 P   0  0  1  0  0  0  0  0  0  0  0  0
   33.0343   34.9897   56.6444 P   0  0  1  0  0  0  0  0  0  0  0  0
   26.6696   41.2818   55.3193 C   0  0  0  0  0  0  0  0  0  0  0  0
   27.5116   41.6127   57.6631 C   0  0  0  0  0  0  0  0  0  0  0  0
   26.4500   41.4039   56.8053 C   0  0  0  0  0  0  0  0  0  0  0  0
   25.1680   41.3092   57.3493 C   0  0  0  0  0  0  0  0  0  0  0  0
   24.0685   41.0993   56.5304 N   0  0  0  0  0  0  0  0  0  0  0  0
   25.0169   41.4173   58.6661 N   0  0  0  0  0  0  0  0  0  0  0  0
   26.0574   41.6210   59.4477 C   0  0  0  0  0  0  0  0  0  0  0  0
   27.2811   41.7149   58.9652 N   0  0  0  0  0  0  0  0  0  0  0  0
   32.7544   35.6006   53.1432 O   0  0  0  0  0  0  0  0  0  0  0  0
   32.1862   33.8543   56.0281 O   0  0  0  0  0  0  0  0  0  0  0  0
   28.2918   37.8325   55.0828 S   0  0  0  0  0  0  0  0  0  0  0  0
   27.2294   39.0020   55.8044 C   0  0  0  0  0  0  0  0  0  0  0  0
   31.1237   34.7506   54.8720 O   0  0  0  0  0  0  0  0  0  0  0  0
   34.4715   34.4120   57.0813 O   0  5  0  0  0  0  0  0  0  0  0  0
   27.4087   40.0500   55.0340 N   0  0  0  0  0  0  0  0  0  0  0  0
   33.2333   36.1610   55.5575 O   0  0  0  0  0  0  0  0  0  0  0  0
   32.3089   35.5565   57.8853 O   0  0  0  0  0  0  0  0  0  0  0  0
   28.2341   40.0159   54.0106 C   0  0  2  0  0  0  0  0  0  0  0  0
   28.9137   38.8668   53.7654 C   0  0  2  0  0  0  0  0  0  0  0  0
   29.9112   38.5504   52.6821 C   0  0  0  0  0  0  0  0  0  0  0  0
   30.5964   37.2171   52.9900 C   0  0  0  0  0  0  0  0  0  0  0  0
   31.2561   37.3024   54.2548 O   0  0  0  0  0  0  0  0  0  0  0  0
  1 11  1  0  0  0  0
  3 13  1  6  0  0  0
  3 17  1  0  0  0  0
  3 20  1  0  0  0  0
  3 26  1  0  0  0  0
  4 14  1  0  0  0  0
  4 18  1  1  0  0  0
  4 21  2  0  0  0  0
  4 20  1  0  0  0  0
  5 19  1  0  0  0  0
  5  7  1  0  0  0  0
  6  7  2  0  0  0  0
  6 12  1  0  0  0  0
  7  8  1  0  0  0  0
  8  9  1  0  0  0  0
  8 10  2  0  0  0  0
 10 11  1  0  0  0  0
 11 12  2  0  0  0  0
 14 17  1  0  0  0  0
 15 23  1  0  0  0  0
 15 16  1  0  0  0  0
 16 19  1  0  0  0  0
 19 22  1  0  0  0  0
 22  2  1  1  0  0  0
 22 23  1  0  0  0  0
 23 24  1  6  0  0  0
 24 25  1  0  0  0  0
 25 26  1  0  0  0  0
M  CHG  1  18  -1
M  END
>  <CHROM.1>
32.13934656,67.40398809,-11.16604682,-59.21238816,-172.93298852,41.47440227
29.48207770,38.18586111,55.83449212,-2.93841739,0.74783527,-1.53012670

>  <Name>
ligand

>  <RI>
0

>  <Rbt.Current_Directory>
/home/itssahil/PROJECTS/Mol_Feturizer/New_Systems/rnas/2HOL

>  <Rbt.Executable>
rbdock ($Id: //depot/dev/client3/rdock/2013.1/src/exe/rbdock.cxx#4 $)

>  <Rbt.Library>
libRbt.so (2013.1, Build901 2013/11/27)

>  <Rbt.Parameter_File>
/export/apps/rDock/src/rDock_2013.1_src/data/scripts/dock_solv.prm

>  <Rbt.Receptor>
prm/blind_docking_80.prm

>  <SCORE>
-8.57385

>  <SCORE.INTER>
-7.95523

>  <SCORE.INTER.CONST>
1

>  <SCORE.INTER.POLAR>
0

>  <SCORE.INTER.ROT>
6

>  <SCORE.INTER.SOLV>
34.8108

>  <SCORE.INTER.VDW>
-24.5071

>  <SCORE.INTER.norm>
-0.30597

>  <SCORE.INTRA>
-2.31306

>  <SCORE.INTRA.DIHEDRAL>
-3.96835

>  <SCORE.INTRA.DIHEDRAL.0>
9.33621

>  <SCORE.INTRA.POLAR>
0

>  <SCORE.INTRA.POLAR.0>
0

>  <SCORE.INTRA.REPUL>
0

>  <SCORE.INTRA.REPUL.0>
0

>  <SCORE.INTRA.SOLV>
-0.30002

>  <SCORE.INTRA.SOLV.lig_0>
-65.9238

>  <SCORE.INTRA.VDW>
-0.178874

>  <SCORE.INTRA.VDW.0>
-0.405582

>  <SCORE.INTRA.norm>
-0.0889638

>  <SCORE.RESTR>
1.69444

>  <SCORE.RESTR.CAVITY>
1.69444

>  <SCORE.RESTR.norm>
0.0651708

>  <SCORE.SYSTEM>
0

>  <SCORE.SYSTEM.CONST>
0

>  <SCORE.SYSTEM.DIHEDRAL>
0

>  <SCORE.SYSTEM.SOLV>
0

>  <SCORE.SYSTEM.norm>
0

>  <SCORE.heavy>
26

>  <SCORE.norm>
-0.329763

>  <RMSD>
12.621

$$$$
ligand
 OpenBabel11021811443D
libRbt.so/2013.1/901 2013/11/27
 26 28  0  0  0  0  0  0  0  0999 V2000
   25.1985   41.6313   56.6309 C   0  0  0  0  0  0  0  0  0  0  0  0
   31.7764   38.4103   53.0672 C   0  0  0  0  0  0  0  0  0  0  0  0
   33.6197   35.3689   57.5328 P   0  0  1  0  0  0  0  0  0  0  0  0
   33.8498   36.5018   59.8459 P   0  0  1  0  0  0  0  0  0  0  0  0
   29.1425   39.3659   53.2058 C   0  0  0  0  0  0  0  0  0  0  0  0
   27.7257   39.3332   55.2802 C   0  0  0  0  0  0  0  0  0  0  0  0
   28.0984   39.9666   54.1114 C   0  0  0  0  0  0  0  0  0  0  0  0
   27.4837   41.1780   53.7899 C   0  0  0  0  0  0  0  0  0  0  0  0
   27.8224   41.8535   52.6270 N   0  0  0  0  0  0  0  0  0  0  0  0
   26.5635   41.6723   54.6128 N   0  0  0  0  0  0  0  0  0  0  0  0
   26.2414   41.0368   55.7207 C   0  0  0  0  0  0  0  0  0  0  0  0
   26.8031   39.8909   56.0529 N   0  0  0  0  0  0  0  0  0  0  0  0
   34.4994   34.2338   57.1731 O   0  0  0  0  0  0  0  0  0  0  0  0
   33.0194   35.2222   60.0934 O   0  0  0  0  0  0  0  0  0  0  0  0
   29.2438   35.7471   54.4221 S   0  0  0  0  0  0  0  0  0  0  0  0
   28.4336   37.2389   54.0540 C   0  0  0  0  0  0  0  0  0  0  0  0
   32.4007   34.8380   58.4384 O   0  0  0  0  0  0  0  0  0  0  0  0
   35.0447   36.5846   60.9209 O   0  5  0  0  0  0  0  0  0  0  0  0
   29.4211   37.9908   53.6258 N   0  0  0  0  0  0  0  0  0  0  0  0
   34.4660   36.4621   58.3588 O   0  0  0  0  0  0  0  0  0  0  0  0
   32.9388   37.7412   59.9929 O   0  0  0  0  0  0  0  0  0  0  0  0
   30.6531   37.5347   53.5626 C   0  0  2  0  0  0  0  0  0  0  0  0
   30.8921   36.2593   53.9610 C   0  0  2  0  0  0  0  0  0  0  0  0
   32.1859   35.4890   53.9997 C   0  0  0  0  0  0  0  0  0  0  0  0
   32.4454   34.9946   55.4246 C   0  0  0  0  0  0  0  0  0  0  0  0
   33.0383   36.0445   56.1917 O   0  0  0  0  0  0  0  0  0  0  0  0
  1 11  1  0  0  0  0
  3 13  1  6  0  0  0
  3 17  1  0  0  0  0
  3 20  1  0  0  0  0
  3 26  1  0  0  0  0
  4 14  1  0  0  0  0
  4 18  1  1  0  0  0
  4 21  2  0  0  0  0
  4 20  1  0  0  0  0
  5 19  1  0  0  0  0
  5  7  1  0  0  0  0
  6  7  2  0  0  0  0
  6 12  1  0  0  0  0
  7  8  1  0  0  0  0
  8  9  1  0  0  0  0
  8 10  2  0  0  0  0
 10 11  1  0  0  0  0
 11 12  2  0  0  0  0
 14 17  1  0  0  0  0
 15 23  1  0  0  0  0
 15 16  1  0  0  0  0
 16 19  1  0  0  0  0
 19 22  1  0  0  0  0
 22  2  1  1  0  0  0
 22 23  1  0  0  0  0
 23 24  1  6  0  0  0
 24 25  1  0  0  0  0
 25 26  1  0  0  0  0
M  CHG  1  18  -1
M  END
>  <CHROM.1>
37.61566287,11.38383216,-57.39313080,-82.43452615,-166.02203528,52.96478973
30.86974875,37.46170766,56.17986531,2.87431836,0.73802685,-1.95703311

>  <Name>
ligand

>  <RI>
0

>  <Rbt.Current_Directory>
/home/itssahil/PROJECTS/Mol_Feturizer/New_Systems/rnas/2HOL

>  <Rbt.Executable>
rbdock ($Id: //depot/dev/client3/rdock/2013.1/src/exe/rbdock.cxx#4 $)

>  <Rbt.Library>
libRbt.so (2013.1, Build901 2013/11/27)

>  <Rbt.Parameter_File>
/export/apps/rDock/src/rDock_2013.1_src/data/scripts/dock_solv.prm

>  <Rbt.Receptor>
prm/blind_docking_80.prm

>  <SCORE>
-13.6981

>  <SCORE.INTER>
-15.0213

>  <SCORE.INTER.CONST>
1

>  <SCORE.INTER.POLAR>
0

>  <SCORE.INTER.ROT>
6

>  <SCORE.INTER.SOLV>
19.5916

>  <SCORE.INTER.VDW>
-24.1447

>  <SCORE.INTER.norm>
-0.577743

>  <SCORE.INTRA>
0.92366

>  <SCORE.INTRA.DIHEDRAL>
-1.488

>  <SCORE.INTRA.DIHEDRAL.0>
9.33621

>  <SCORE.INTRA.POLAR>
0

>  <SCORE.INTRA.POLAR.0>
0

>  <SCORE.INTRA.REPUL>
0

>  <SCORE.INTRA.REPUL.0>
0

>  <SCORE.INTRA.SOLV>
-0.623277

>  <SCORE.INTRA.SOLV.lig_0>
-65.9238

>  <SCORE.INTRA.VDW>
1.9793

>  <SCORE.INTRA.VDW.0>
-0.405582

>  <SCORE.INTRA.norm>
0.0355254

>  <SCORE.RESTR>
0.399553

>  <SCORE.RESTR.CAVITY>
0.399553

>  <SCORE.RESTR.norm>
0.0153674

>  <SCORE.SYSTEM>
0

>  <SCORE.SYSTEM.CONST>
0

>  <SCORE.SYSTEM.DIHEDRAL>
0

>  <SCORE.SYSTEM.SOLV>
0

>  <SCORE.SYSTEM.norm>
0

>  <SCORE.heavy>
26

>  <SCORE.norm>
-0.52685

>  <RMSD>
13.174

$$$$
ligand
 OpenBabel11021811443D
libRbt.so/2013.1/901 2013/11/27
 26 28  0  0  0  0  0  0  0  0999 V2000
   25.2355   41.7441   56.5140 C   0  0  0  0  0  0  0  0  0  0  0  0
   31.8204   38.4690   53.1642 C   0  0  0  0  0  0  0  0  0  0  0  0
   33.2622   34.5000   57.6228 P   0  0  1  0  0  0  0  0  0  0  0  0
   33.8065   36.1386   59.5476 P   0  0  1  0  0  0  0  0  0  0  0  0
   29.1686   39.3839   53.1407 C   0  0  0  0  0  0  0  0  0  0  0  0
   27.7384   39.3952   55.2062 C   0  0  0  0  0  0  0  0  0  0  0  0
   28.1274   40.0097   54.0326 C   0  0  0  0  0  0  0  0  0  0  0  0
   27.5319   41.2258   53.6932 C   0  0  0  0  0  0  0  0  0  0  0  0
   27.8876   41.8830   52.5249 N   0  0  0  0  0  0  0  0  0  0  0  0
   26.6136   41.7426   54.5044 N   0  0  0  0  0  0  0  0  0  0  0  0
   26.2756   41.1245   55.6174 C   0  0  0  0  0  0  0  0  0  0  0  0
   26.8189   39.9747   55.9664 N   0  0  0  0  0  0  0  0  0  0  0  0
   34.2634   33.4946   57.2003 O   0  0  0  0  0  0  0  0  0  0  0  0
   33.3998   34.8153   60.2343 O   0  0  0  0  0  0  0  0  0  0  0  0
   29.2561   35.7827   54.4092 S   0  0  0  0  0  0  0  0  0  0  0  0
   28.4453   37.2566   53.9759 C   0  0  0  0  0  0  0  0  0  0  0  0
   32.4835   33.9679   58.9260 O   0  0  0  0  0  0  0  0  0  0  0  0
   35.1836   36.6749   60.1850 O   0  5  0  0  0  0  0  0  0  0  0  0
   29.4439   38.0188   53.5942 N   0  0  0  0  0  0  0  0  0  0  0  0
   34.0069   35.8850   57.9702 O   0  0  0  0  0  0  0  0  0  0  0  0
   32.6958   37.1911   59.7630 O   0  0  0  0  0  0  0  0  0  0  0  0
   30.6843   37.5818   53.6069 C   0  0  2  0  0  0  0  0  0  0  0  0
   30.9199   36.3154   54.0352 C   0  0  2  0  0  0  0  0  0  0  0  0
   32.2210   35.5665   54.1574 C   0  0  0  0  0  0  0  0  0  0  0  0
   32.7785   35.7353   55.5726 C   0  0  0  0  0  0  0  0  0  0  0  0
   32.2087   34.7439   56.4296 O   0  0  0  0  0  0  0  0  0  0  0  0
  1 11  1  0  0  0  0
  3 13  1  6  0  0  0
  3 17  1  0  0  0  0
  3 20  1  0  0  0  0
  3 26  1  0  0  0  0
  4 14  1  0  0  0  0
  4 18  1  1  0  0  0
  4 21  2  0  0  0  0
  4 20  1  0  0  0  0
  5 19  1  0  0  0  0
  5  7  1  0  0  0  0
  6  7  2  0  0  0  0
  6 12  1  0  0  0  0
  7  8  1  0  0  0  0
  8  9  1  0  0  0  0
  8 10  2  0  0  0  0
 10 11  1  0  0  0  0
 11 12  2  0  0  0  0
 14 17  1  0  0  0  0
 15 23  1  0  0  0  0
 15 16  1  0  0  0  0
 16 19  1  0  0  0  0
 19 22  1  0  0  0  0
 22  2  1  1  0  0  0
 22 23  1  0  0  0  0
 23 24  1  6  0  0  0
 24 25  1  0  0  0  0
 25 26  1  0  0  0  0
M  CHG  1  18  -1
M  END
>  <CHROM.1>
41.16872195,10.29528910,-87.19335617,85.97955378,153.89307886,-85.80176861
30.82329325,37.25833548,56.13318848,2.90373124,0.80006783,-1.93498805

>  <Name>
ligand

>  <RI>
0

>  <Rbt.Current_Directory>
/home/itssahil/PROJECTS/Mol_Feturizer/New_Systems/rnas/2HOL

>  <Rbt.Executable>
rbdock ($Id: //depot/dev/client3/rdock/2013.1/src/exe/rbdock.cxx#4 $)

>  <Rbt.Library>
libRbt.so (2013.1, Build901 2013/11/27)

>  <Rbt.Parameter_File>
/export/apps/rDock/src/rDock_2013.1_src/data/scripts/dock_solv.prm

>  <Rbt.Receptor>
prm/blind_docking_80.prm

>  <SCORE>
-9.22942

>  <SCORE.INTER>
-11.9734

>  <SCORE.INTER.CONST>
1

>  <SCORE.INTER.POLAR>
0

>  <SCORE.INTER.ROT>
6

>  <SCORE.INTER.SOLV>
20.6935

>  <SCORE.INTER.VDW>
-22.4801

>  <SCORE.INTER.norm>
-0.460515

>  <SCORE.INTRA>
2.30071

>  <SCORE.INTRA.DIHEDRAL>
1.57014

>  <SCORE.INTRA.DIHEDRAL.0>
9.33621

>  <SCORE.INTRA.POLAR>
0

>  <SCORE.INTRA.POLAR.0>
0

>  <SCORE.INTRA.REPUL>
0

>  <SCORE.INTRA.REPUL.0>
0

>  <SCORE.INTRA.SOLV>
-0.202812

>  <SCORE.INTRA.SOLV.lig_0>
-65.9238

>  <SCORE.INTRA.VDW>
1.61704

>  <SCORE.INTRA.VDW.0>
-0.405582

>  <SCORE.INTRA.norm>
0.0884887

>  <SCORE.RESTR>
0.443266

>  <SCORE.RESTR.CAVITY>
0.443266

>  <SCORE.RESTR.norm>
0.0170487

>  <SCORE.SYSTEM>
0

>  <SCORE.SYSTEM.CONST>
0

>  <SCORE.SYSTEM.DIHEDRAL>
0

>  <SCORE.SYSTEM.SOLV>
0

>  <SCORE.SYSTEM.norm>
0

>  <SCORE.heavy>
26

>  <SCORE.norm>
-0.354978

>  <RMSD>
13.252

$$$$
ligand
 OpenBabel11021811443D
libRbt.so/2013.1/901 2013/11/27
 26 28  0  0  0  0  0  0  0  0999 V2000
   25.2271   41.6861   56.7606 C   0  0  0  0  0  0  0  0  0  0  0  0
   31.7167   38.6811   53.0275 C   0  0  0  0  0  0  0  0  0  0  0  0
   33.1669   34.3330   57.3344 P   0  0  1  0  0  0  0  0  0  0  0  0
   34.0142   35.9643   59.1530 P   0  0  1  0  0  0  0  0  0  0  0  0
   29.0345   39.4955   53.1378 C   0  0  0  0  0  0  0  0  0  0  0  0
   27.6972   39.4169   55.2632 C   0  0  0  0  0  0  0  0  0  0  0  0
   28.0265   40.0765   54.0958 C   0  0  0  0  0  0  0  0  0  0  0  0
   27.4023   41.2955   53.8255 C   0  0  0  0  0  0  0  0  0  0  0  0
   27.6980   41.9970   52.6662 N   0  0  0  0  0  0  0  0  0  0  0  0
   26.5148   41.7718   54.6937 N   0  0  0  0  0  0  0  0  0  0  0  0
   26.2337   41.1115   55.7982 C   0  0  0  0  0  0  0  0  0  0  0  0
   26.8055   39.9578   56.0827 N   0  0  0  0  0  0  0  0  0  0  0  0
   33.9564   33.1278   56.9942 O   0  0  0  0  0  0  0  0  0  0  0  0
   33.3596   34.7937   59.9206 O   0  0  0  0  0  0  0  0  0  0  0  0
   29.3134   35.8836   54.3468 S   0  0  0  0  0  0  0  0  0  0  0  0
   28.4296   37.3315   53.9728 C   0  0  0  0  0  0  0  0  0  0  0  0
   32.2988   34.0506   58.6590 O   0  0  0  0  0  0  0  0  0  0  0  0
   35.4681   36.2686   59.7728 O   0  5  0  0  0  0  0  0  0  0  0  0
   29.3807   38.1359   53.5578 N   0  0  0  0  0  0  0  0  0  0  0  0
   34.1638   35.5698   57.5991 O   0  0  0  0  0  0  0  0  0  0  0  0
   33.1266   37.2226   59.2818 O   0  0  0  0  0  0  0  0  0  0  0  0
   30.6358   37.7458   53.5078 C   0  0  2  0  0  0  0  0  0  0  0  0
   30.9375   36.4837   53.9059 C   0  0  2  0  0  0  0  0  0  0  0  0
   32.2698   35.7829   53.9578 C   0  0  0  0  0  0  0  0  0  0  0  0
   32.7871   35.7717   55.3980 C   0  0  0  0  0  0  0  0  0  0  0  0
   32.1814   34.6926   56.1126 O   0  0  0  0  0  0  0  0  0  0  0  0
  1 11  1  0  0  0  0
  3 13  1  6  0  0  0
  3 17  1  0  0  0  0
  3 20  1  0  0  0  0
  3 26  1  0  0  0  0
  4 14  1  0  0  0  0
  4 18  1  1  0  0  0
  4 21  2  0  0  0  0
  4 20  1  0  0  0  0
  5 19  1  0  0  0  0
  5  7  1  0  0  0  0
  6  7  2  0  0  0  0
  6 12  1  0  0  0  0
  7  8  1  0  0  0  0
  8  9  1  0  0  0  0
  8 10  2  0  0  0  0
 10 11  1  0  0  0  0
 11 12  2  0  0  0  0
 14 17  1  0  0  0  0
 15 23  1  0  0  0  0
 15 16  1  0  0  0  0
 16 19  1  0  0  0  0
 19 22  1  0  0  0  0
 22  2  1  1  0  0  0
 22 23  1  0  0  0  0
 23 24  1  6  0  0  0
 24 25  1  0  0  0  0
 25 26  1  0  0  0  0
M  CHG  1  18  -1
M  END
>  <CHROM.1>
41.92148492,8.34207472,-78.74848751,82.38424967,156.25939953,-101.34194052
30.81881743,37.24251546,55.99807780,2.94032214,0.78861913,-1.90535961

>  <Name>
ligand

>  <RI>
0

>  <Rbt.Current_Directory>
/home/itssahil/PROJECTS/Mol_Feturizer/New_Systems/rnas/2HOL

>  <Rbt.Executable>
rbdock ($Id: //depot/dev/client3/rdock/2013.1/src/exe/rbdock.cxx#4 $)

>  <Rbt.Library>
libRbt.so (2013.1, Build901 2013/11/27)

>  <Rbt.Parameter_File>
/export/apps/rDock/src/rDock_2013.1_src/data/scripts/dock_solv.prm

>  <Rbt.Receptor>
prm/blind_docking_80.prm

>  <SCORE>
-10.209

>  <SCORE.INTER>
-13.9565

>  <SCORE.INTER.CONST>
1

>  <SCORE.INTER.POLAR>
0

>  <SCORE.INTER.ROT>
6

>  <SCORE.INTER.SOLV>
21.2615

>  <SCORE.INTER.VDW>
-23.9915

>  <SCORE.INTER.norm>
-0.536789

>  <SCORE.INTRA>
3.17873

>  <SCORE.INTRA.DIHEDRAL>
1.69885

>  <SCORE.INTRA.DIHEDRAL.0>
9.33621

>  <SCORE.INTRA.POLAR>
0

>  <SCORE.INTRA.POLAR.0>
0

>  <SCORE.INTRA.REPUL>
0

>  <SCORE.INTRA.REPUL.0>
0

>  <SCORE.INTRA.SOLV>
-0.0587676

>  <SCORE.INTRA.SOLV.lig_0>
-65.9238

>  <SCORE.INTRA.VDW>
2.35869

>  <SCORE.INTRA.VDW.0>
-0.405582

>  <SCORE.INTRA.norm>
0.122259

>  <SCORE.RESTR>
0.568776

>  <SCORE.RESTR.CAVITY>
0.568776

>  <SCORE.RESTR.norm>
0.021876

>  <SCORE.SYSTEM>
0

>  <SCORE.SYSTEM.CONST>
0

>  <SCORE.SYSTEM.DIHEDRAL>
0

>  <SCORE.SYSTEM.SOLV>
0

>  <SCORE.SYSTEM.norm>
0

>  <SCORE.heavy>
26

>  <SCORE.norm>
-0.392654

>  <RMSD>
13.312

$$$$
ligand
 OpenBabel11021811443D
libRbt.so/2013.1/901 2013/11/27
 26 28  0  0  0  0  0  0  0  0999 V2000
   26.5099   41.0270   56.4503 C   0  0  0  0  0  0  0  0  0  0  0  0
   32.0108   38.0071   53.6452 C   0  0  0  0  0  0  0  0  0  0  0  0
   33.5585   36.3435   58.9754 P   0  0  1  0  0  0  0  0  0  0  0  0
   34.2982   34.0872   59.9994 P   0  0  1  0  0  0  0  0  0  0  0  0
   29.3410   37.6141   52.8789 C   0  0  0  0  0  0  0  0  0  0  0  0
   28.1417   38.0526   55.0425 C   0  0  0  0  0  0  0  0  0  0  0  0
   28.5917   38.5185   53.8232 C   0  0  0  0  0  0  0  0  0  0  0  0
   28.3353   39.8490   53.4874 C   0  0  0  0  0  0  0  0  0  0  0  0
   28.7657   40.3653   52.2743 N   0  0  0  0  0  0  0  0  0  0  0  0
   27.6666   40.6132   54.3459 N   0  0  0  0  0  0  0  0  0  0  0  0
   27.2595   40.1288   55.5012 C   0  0  0  0  0  0  0  0  0  0  0  0
   27.4854   38.8767   55.8481 N   0  0  0  0  0  0  0  0  0  0  0  0
   33.1074   37.4444   59.8563 O   0  0  0  0  0  0  0  0  0  0  0  0
   35.5113   35.0310   60.1596 O   0  0  0  0  0  0  0  0  0  0  0  0
   30.5627   34.5651   54.8274 S   0  0  0  0  0  0  0  0  0  0  0  0
   29.3680   35.4687   53.9479 C   0  0  0  0  0  0  0  0  0  0  0  0
   35.1663   36.3138   58.9329 O   0  0  0  0  0  0  0  0  0  0  0  0
   33.9940   33.3585   61.4019 O   0  5  0  0  0  0  0  0  0  0  0  0
   30.0214   36.5659   53.6427 N   0  0  0  0  0  0  0  0  0  0  0  0
   33.0103   34.9410   59.5466 O   0  0  0  0  0  0  0  0  0  0  0  0
   34.6143   33.0229   58.9247 O   0  0  0  0  0  0  0  0  0  0  0  0
   31.2735   36.7418   54.0046 C   0  0  2  0  0  0  0  0  0  0  0  0
   31.8853   35.7611   54.7162 C   0  0  2  0  0  0  0  0  0  0  0  0
   33.2894   35.6971   55.2578 C   0  0  0  0  0  0  0  0  0  0  0  0
   33.2474   35.3782   56.7539 C   0  0  0  0  0  0  0  0  0  0  0  0
   32.9858   36.5757   57.4884 O   0  0  0  0  0  0  0  0  0  0  0  0
  1 11  1  0  0  0  0
  3 13  1  1  0  0  0
  3 17  1  0  0  0  0
  3 20  1  0  0  0  0
  3 26  1  0  0  0  0
  4 14  1  0  0  0  0
  4 18  1  1  0  0  0
  4 21  2  0  0  0  0
  4 20  1  0  0  0  0
  5 19  1  0  0  0  0
  5  7  1  0  0  0  0
  6  7  2  0  0  0  0
  6 12  1  0  0  0  0
  7  8  1  0  0  0  0
  8  9  1  0  0  0  0
  8 10  2  0  0  0  0
 10 11  1  0  0  0  0
 11 12  2  0  0  0  0
 14 17  1  0  0  0  0
 15 23  1  0  0  0  0
 15 16  1  0  0  0  0
 16 19  1  0  0  0  0
 19 22  1  0  0  0  0
 22  2  1  1  0  0  0
 22 23  1  0  0  0  0
 23 24  1  6  0  0  0
 24 25  1  0  0  0  0
 25 26  1  0  0  0  0
M  CHG  1  18  -1
M  END
>  <CHROM.1>
86.20286938,-26.87901392,-53.13734144,-81.39963792,-156.35265069,-169.89186470
31.50417197,36.62205115,56.59007213,2.80189127,0.81692522,-2.02646435

>  <Name>
ligand

>  <RI>
0

>  <Rbt.Current_Directory>
/home/itssahil/PROJECTS/Mol_Feturizer/New_Systems/rnas/2HOL

>  <Rbt.Executable>
rbdock ($Id: //depot/dev/client3/rdock/2013.1/src/exe/rbdock.cxx#4 $)

>  <Rbt.Library>
libRbt.so (2013.1, Build901 2013/11/27)

>  <Rbt.Parameter_File>
/export/apps/rDock/src/rDock_2013.1_src/data/scripts/dock_solv.prm

>  <Rbt.Receptor>
prm/blind_docking_80.prm

>  <SCORE>
7.93454

>  <SCORE.INTER>
8.76871

>  <SCORE.INTER.CONST>
1

>  <SCORE.INTER.POLAR>
0

>  <SCORE.INTER.ROT>
6

>  <SCORE.INTER.SOLV>
22.9435

>  <SCORE.INTER.VDW>
-9.40203

>  <SCORE.INTER.norm>
0.337258

>  <SCORE.INTRA>
-1.47384

>  <SCORE.INTRA.DIHEDRAL>
-0.047271

>  <SCORE.INTRA.DIHEDRAL.0>
9.33621

>  <SCORE.INTRA.POLAR>
0

>  <SCORE.INTRA.POLAR.0>
0

>  <SCORE.INTRA.REPUL>
0

>  <SCORE.INTRA.REPUL.0>
0

>  <SCORE.INTRA.SOLV>
0.83628

>  <SCORE.INTRA.SOLV.lig_0>
-65.9238

>  <SCORE.INTRA.VDW>
-1.86834

>  <SCORE.INTRA.VDW.0>
-0.405582

>  <SCORE.INTRA.norm>
-0.0566861

>  <SCORE.RESTR>
0.639669

>  <SCORE.RESTR.CAVITY>
0.639669

>  <SCORE.RESTR.norm>
0.0246027

>  <SCORE.SYSTEM>
0

>  <SCORE.SYSTEM.CONST>
0

>  <SCORE.SYSTEM.DIHEDRAL>
0

>  <SCORE.SYSTEM.SOLV>
0

>  <SCORE.SYSTEM.norm>
0

>  <SCORE.heavy>
26

>  <SCORE.norm>
0.305175

>  <RMSD>
13.391

$$$$
ligand
 OpenBabel11021811443D
libRbt.so/2013.1/901 2013/11/27
 26 28  0  0  0  0  0  0  0  0999 V2000
   26.7487   40.9346   55.5598 C   0  0  0  0  0  0  0  0  0  0  0  0
   32.5224   36.2070   54.2358 C   0  0  0  0  0  0  0  0  0  0  0  0
   33.7187   35.3869   59.4076 P   0  0  1  0  0  0  0  0  0  0  0  0
   34.6242   34.2536   61.5483 P   0  0  1  0  0  0  0  0  0  0  0  0
   29.9987   36.8884   53.2179 C   0  0  0  0  0  0  0  0  0  0  0  0
   28.4830   37.7400   55.0315 C   0  0  0  0  0  0  0  0  0  0  0  0
   29.1387   37.9603   53.8366 C   0  0  0  0  0  0  0  0  0  0  0  0
   28.9852   39.2013   53.2162 C   0  0  0  0  0  0  0  0  0  0  0  0
   29.6223   39.4722   52.0145 N   0  0  0  0  0  0  0  0  0  0  0  0
   28.2137   40.1188   53.7918 N   0  0  0  0  0  0  0  0  0  0  0  0
   27.6099   39.8680   54.9353 C   0  0  0  0  0  0  0  0  0  0  0  0
   27.7342   38.7061   55.5466 N   0  0  0  0  0  0  0  0  0  0  0  0
   33.7273   36.8626   59.2904 O   0  0  0  0  0  0  0  0  0  0  0  0
   35.8724   34.6087   60.7092 O   0  0  0  0  0  0  0  0  0  0  0  0
   29.6559   33.8834   55.5499 S   0  0  0  0  0  0  0  0  0  0  0  0
   29.0274   35.0885   54.4681 C   0  0  0  0  0  0  0  0  0  0  0  0
   35.1782   34.8112   59.0521 O   0  0  0  0  0  0  0  0  0  0  0  0
   34.8314   34.7592   63.0622 O   0  5  0  0  0  0  0  0  0  0  0  0
   30.1092   35.7570   54.1412 N   0  0  0  0  0  0  0  0  0  0  0  0
   33.3297   34.9711   60.9141 O   0  0  0  0  0  0  0  0  0  0  0  0
   34.4195   32.7221   61.5410 O   0  0  0  0  0  0  0  0  0  0  0  0
   31.2890   35.4302   54.6219 C   0  0  2  0  0  0  0  0  0  0  0  0
   31.3703   34.3816   55.4800 C   0  0  2  0  0  0  0  0  0  0  0  0
   32.5717   33.7980   56.1764 C   0  0  0  0  0  0  0  0  0  0  0  0
   33.2058   34.8585   57.0793 C   0  0  0  0  0  0  0  0  0  0  0  0
   32.6354   34.7727   58.3867 O   0  0  0  0  0  0  0  0  0  0  0  0
  1 11  1  0  0  0  0
  3 13  1  6  0  0  0
  3 17  1  0  0  0  0
  3 20  1  0  0  0  0
  3 26  1  0  0  0  0
  4 14  1  0  0  0  0
  4 18  1  1  0  0  0
  4 21  2  0  0  0  0
  4 20  1  0  0  0  0
  5 19  1  0  0  0  0
  5  7  1  0  0  0  0
  6  7  2  0  0  0  0
  6 12  1  0  0  0  0
  7  8  1  0  0  0  0
  8  9  1  0  0  0  0
  8 10  2  0  0  0  0
 10 11  1  0  0  0  0
 11 12  2  0  0  0  0
 14 17  1  0  0  0  0
 15 23  1  0  0  0  0
 15 16  1  0  0  0  0
 16 19  1  0  0  0  0
 19 22  1  0  0  0  0
 22  2  1  1  0  0  0
 22 23  1  0  0  0  0
 23 24  1  6  0  0  0
 24 25  1  0  0  0  0
 25 26  1  0  0  0  0
M  CHG  1  18  -1
M  END
>  <CHROM.1>
63.03081399,-6.44311459,-119.22167839,91.05517252,155.42391261,75.17489373
31.64399850,35.99760575,57.09865265,2.92584424,0.91359920,-2.35128739

>  <Name>
ligand

>  <RI>
0

>  <Rbt.Current_Directory>
/home/itssahil/PROJECTS/Mol_Feturizer/New_Systems/rnas/2HOL

>  <Rbt.Executable>
rbdock ($Id: //depot/dev/client3/rdock/2013.1/src/exe/rbdock.cxx#4 $)

>  <Rbt.Library>
libRbt.so (2013.1, Build901 2013/11/27)

>  <Rbt.Parameter_File>
/export/apps/rDock/src/rDock_2013.1_src/data/scripts/dock_solv.prm

>  <Rbt.Receptor>
prm/blind_docking_80.prm

>  <SCORE>
-13.059

>  <SCORE.INTER>
-14.5499

>  <SCORE.INTER.CONST>
1

>  <SCORE.INTER.POLAR>
0

>  <SCORE.INTER.ROT>
6

>  <SCORE.INTER.SOLV>
19.6225

>  <SCORE.INTER.VDW>
-23.8407

>  <SCORE.INTER.norm>
-0.55961

>  <SCORE.INTRA>
0.29965

>  <SCORE.INTRA.DIHEDRAL>
1.08656

>  <SCORE.INTRA.DIHEDRAL.0>
9.33621

>  <SCORE.INTRA.POLAR>
0

>  <SCORE.INTRA.POLAR.0>
0

>  <SCORE.INTRA.REPUL>
0

>  <SCORE.INTRA.REPUL.0>
0

>  <SCORE.INTRA.SOLV>
-0.713119

>  <SCORE.INTRA.SOLV.lig_0>
-65.9238

>  <SCORE.INTRA.VDW>
0.112929

>  <SCORE.INTRA.VDW.0>
-0.405582

>  <SCORE.INTRA.norm>
0.011525

>  <SCORE.RESTR>
1.19124

>  <SCORE.RESTR.CAVITY>
1.19124

>  <SCORE.RESTR.norm>
0.045817

>  <SCORE.SYSTEM>
0

>  <SCORE.SYSTEM.CONST>
0

>  <SCORE.SYSTEM.DIHEDRAL>
0

>  <SCORE.SYSTEM.SOLV>
0

>  <SCORE.SYSTEM.norm>
0

>  <SCORE.heavy>
26

>  <SCORE.norm>
-0.502268

>  <RMSD>
13.430

$$$$
ligand
 OpenBabel11021811443D
libRbt.so/2013.1/901 2013/11/27
 26 28  0  0  0  0  0  0  0  0999 V2000
   26.9960   42.3629   56.8773 C   0  0  0  0  0  0  0  0  0  0  0  0
   29.2114   36.1638   54.2537 C   0  0  0  0  0  0  0  0  0  0  0  0
   34.1987   35.1633   57.7519 P   0  0  1  0  0  0  0  0  0  0  0  0
   34.2500   36.9189   59.6497 P   0  0  1  0  0  0  0  0  0  0  0  0
   28.5586   38.5562   52.9422 C   0  0  0  0  0  0  0  0  0  0  0  0
   27.7322   39.1601   55.2366 C   0  0  0  0  0  0  0  0  0  0  0  0
   28.1452   39.5649   53.9828 C   0  0  0  0  0  0  0  0  0  0  0  0
   28.1706   40.9324   53.7036 C   0  0  0  0  0  0  0  0  0  0  0  0
   28.5771   41.3903   52.4592 N   0  0  0  0  0  0  0  0  0  0  0  0
   27.7933   41.7901   54.6472 N   0  0  0  0  0  0  0  0  0  0  0  0
   27.4106   41.3605   55.8321 C   0  0  0  0  0  0  0  0  0  0  0  0
   27.3752   40.0757   56.1273 N   0  0  0  0  0  0  0  0  0  0  0  0
   35.4630   34.7015   57.1355 O   0  0  0  0  0  0  0  0  0  0  0  0
   34.5873   35.5705   60.3251 O   0  0  0  0  0  0  0  0  0  0  0  0
   32.3573   38.2077   53.1277 S   0  0  0  0  0  0  0  0  0  0  0  0
   30.8939   39.0301   52.6811 C   0  0  0  0  0  0  0  0  0  0  0  0
   33.9522   34.3713   59.1302 O   0  0  0  0  0  0  0  0  0  0  0  0
   35.3253   38.0295   60.0979 O   0  5  0  0  0  0  0  0  0  0  0  0
   29.9699   38.2118   53.1288 N   0  0  0  0  0  0  0  0  0  0  0  0
   34.2934   36.7432   58.0498 O   0  0  0  0  0  0  0  0  0  0  0  0
   32.8359   37.3690   60.0802 O   0  0  0  0  0  0  0  0  0  0  0  0
   30.2843   37.0926   53.7439 C   0  0  2  0  0  0  0  0  0  0  0  0
   31.5976   36.7885   53.9029 C   0  0  2  0  0  0  0  0  0  0  0  0
   32.2366   35.5904   54.5547 C   0  0  0  0  0  0  0  0  0  0  0  0
   32.8890   36.0116   55.8734 C   0  0  0  0  0  0  0  0  0  0  0  0
   32.9749   34.8816   56.7439 O   0  0  0  0  0  0  0  0  0  0  0  0
  1 11  1  0  0  0  0
  3 13  1  6  0  0  0
  3 17  1  0  0  0  0
  3 20  1  0  0  0  0
  3 26  1  0  0  0  0
  4 14  1  0  0  0  0
  4 18  1  1  0  0  0
  4 21  2  0  0  0  0
  4 20  1  0  0  0  0
  5 19  1  0  0  0  0
  5  7  1  0  0  0  0
  6  7  2  0  0  0  0
  6 12  1  0  0  0  0
  7  8  1  0  0  0  0
  8  9  1  0  0  0  0
  8 10  2  0  0  0  0
 10 11  1  0  0  0  0
 11 12  2  0  0  0  0
 14 17  1  0  0  0  0
 15 23  1  0  0  0  0
 15 16  1  0  0  0  0
 16 19  1  0  0  0  0
 19 22  1  0  0  0  0
 22  2  1  6  0  0  0
 22 23  1  0  0  0  0
 23 24  1  1  0  0  0
 24 25  1  0  0  0  0
 25 26  1  0  0  0  0
M  CHG  1  18  -1
M  END
>  <CHROM.1>
-79.38565084,-85.21593204,70.65026111,155.21450407,154.58072252,-86.70193505
31.54341648,37.68423927,56.11498492,2.80212476,0.75450188,-1.91386861

>  <Name>
ligand

>  <RI>
0

>  <Rbt.Current_Directory>
/home/itssahil/PROJECTS/Mol_Feturizer/New_Systems/rnas/2HOL

>  <Rbt.Executable>
rbdock ($Id: //depot/dev/client3/rdock/2013.1/src/exe/rbdock.cxx#4 $)

>  <Rbt.Library>
libRbt.so (2013.1, Build901 2013/11/27)

>  <Rbt.Parameter_File>
/export/apps/rDock/src/rDock_2013.1_src/data/scripts/dock_solv.prm

>  <Rbt.Receptor>
prm/blind_docking_80.prm

>  <SCORE>
-9.77659

>  <SCORE.INTER>
-10.0507

>  <SCORE.INTER.CONST>
1

>  <SCORE.INTER.POLAR>
0

>  <SCORE.INTER.ROT>
6

>  <SCORE.INTER.SOLV>
18.6495

>  <SCORE.INTER.VDW>
-20.5169

>  <SCORE.INTER.norm>
-0.386564

>  <SCORE.INTRA>
-0.179858

>  <SCORE.INTRA.DIHEDRAL>
1.52354

>  <SCORE.INTRA.DIHEDRAL.0>
9.33621

>  <SCORE.INTRA.POLAR>
0

>  <SCORE.INTRA.POLAR.0>
0

>  <SCORE.INTRA.REPUL>
0

>  <SCORE.INTRA.REPUL.0>
0

>  <SCORE.INTRA.SOLV>
0.741968

>  <SCORE.INTRA.SOLV.lig_0>
-65.9238

>  <SCORE.INTRA.VDW>
-1.31261

>  <SCORE.INTRA.VDW.0>
-0.405582

>  <SCORE.INTRA.norm>
-0.00691762

>  <SCORE.RESTR>
0.45394

>  <SCORE.RESTR.CAVITY>
0.45394

>  <SCORE.RESTR.norm>
0.0174592

>  <SCORE.SYSTEM>
0

>  <SCORE.SYSTEM.CONST>
0

>  <SCORE.SYSTEM.DIHEDRAL>
0

>  <SCORE.SYSTEM.SOLV>
0

>  <SCORE.SYSTEM.norm>
0

>  <SCORE.heavy>
26

>  <SCORE.norm>
-0.376023

>  <RMSD>
13.528

$$$$
ligand
 OpenBabel11021811443D
libRbt.so/2013.1/901 2013/11/27
 26 28  0  0  0  0  0  0  0  0999 V2000
   26.8108   40.9392   55.4586 C   0  0  0  0  0  0  0  0  0  0  0  0
   32.5644   36.1728   54.3722 C   0  0  0  0  0  0  0  0  0  0  0  0
   33.4630   35.8364   59.3749 P   0  0  1  0  0  0  0  0  0  0  0  0
   35.9543   36.4400   59.0347 P   0  0  1  0  0  0  0  0  0  0  0  0
   30.0961   36.8582   53.2290 C   0  0  0  0  0  0  0  0  0  0  0  0
   28.5250   37.7249   54.9875 C   0  0  0  0  0  0  0  0  0  0  0  0
   29.2268   37.9393   53.8180 C   0  0  0  0  0  0  0  0  0  0  0  0
   29.1110   39.1831   53.1950 C   0  0  0  0  0  0  0  0  0  0  0  0
   29.7951   39.4484   52.0181 N   0  0  0  0  0  0  0  0  0  0  0  0
   28.3299   40.1088   53.7439 N   0  0  0  0  0  0  0  0  0  0  0  0
   27.6816   39.8633   54.8639 C   0  0  0  0  0  0  0  0  0  0  0  0
   27.7695   38.6990   55.4768 N   0  0  0  0  0  0  0  0  0  0  0  0
   32.8492   35.9529   60.7170 O   0  0  0  0  0  0  0  0  0  0  0  0
   35.2000   37.7887   59.0442 O   0  0  0  0  0  0  0  0  0  0  0  0
   29.6342   33.8464   55.5314 S   0  0  0  0  0  0  0  0  0  0  0  0
   29.0619   35.0549   54.4226 C   0  0  0  0  0  0  0  0  0  0  0  0
   33.5034   37.2842   58.6750 O   0  0  0  0  0  0  0  0  0  0  0  0
   37.2166   36.5219   60.0299 O   0  5  0  0  0  0  0  0  0  0  0  0
   30.1591   35.7240   54.1533 N   0  0  0  0  0  0  0  0  0  0  0  0
   34.9628   35.2674   59.5190 O   0  0  0  0  0  0  0  0  0  0  0  0
   36.4478   36.1380   57.6019 O   0  0  0  0  0  0  0  0  0  0  0  0
   31.3128   35.3953   54.6925 C   0  0  2  0  0  0  0  0  0  0  0  0
   31.3500   34.3441   55.5506 C   0  0  2  0  0  0  0  0  0  0  0  0
   32.5142   33.7580   56.3055 C   0  0  0  0  0  0  0  0  0  0  0  0
   33.1676   34.8439   57.1633 C   0  0  0  0  0  0  0  0  0  0  0  0
   32.5926   34.8268   58.4714 O   0  0  0  0  0  0  0  0  0  0  0  0
  1 11  1  0  0  0  0
  3 13  1  1  0  0  0
  3 17  1  0  0  0  0
  3 20  1  0  0  0  0
  3 26  1  0  0  0  0
  4 14  1  0  0  0  0
  4 18  1  1  0  0  0
  4 21  2  0  0  0  0
  4 20  1  0  0  0  0
  5 19  1  0  0  0  0
  5  7  1  0  0  0  0
  6  7  2  0  0  0  0
  6 12  1  0  0  0  0
  7  8  1  0  0  0  0
  8  9  1  0  0  0  0
  8 10  2  0  0  0  0
 10 11  1  0  0  0  0
 11 12  2  0  0  0  0
 14 17  1  0  0  0  0
 15 23  1  0  0  0  0
 15 16  1  0  0  0  0
 16 19  1  0  0  0  0
 19 22  1  0  0  0  0
 22  2  1  1  0  0  0
 22 23  1  0  0  0  0
 23 24  1  6  0  0  0
 24 25  1  0  0  0  0
 25 26  1  0  0  0  0
M  CHG  1  18  -1
M  END
>  <CHROM.1>
64.09067352,-6.44467152,-123.47721511,92.64903300,172.00093319,175.25238313
31.85501174,36.57180596,56.57197235,-2.99129562,0.69602750,-2.96009785

>  <Name>
ligand

>  <RI>
0

>  <Rbt.Current_Directory>
/home/itssahil/PROJECTS/Mol_Feturizer/New_Systems/rnas/2HOL

>  <Rbt.Executable>
rbdock ($Id: //depot/dev/client3/rdock/2013.1/src/exe/rbdock.cxx#4 $)

>  <Rbt.Library>
libRbt.so (2013.1, Build901 2013/11/27)

>  <Rbt.Parameter_File>
/export/apps/rDock/src/rDock_2013.1_src/data/scripts/dock_solv.prm

>  <Rbt.Receptor>
prm/blind_docking_80.prm

>  <SCORE>
-16.9413

>  <SCORE.INTER>
-16.5071

>  <SCORE.INTER.CONST>
1

>  <SCORE.INTER.POLAR>
0

>  <SCORE.INTER.ROT>
6

>  <SCORE.INTER.SOLV>
21.3792

>  <SCORE.INTER.VDW>
-25.7311

>  <SCORE.INTER.norm>
-0.634887

>  <SCORE.INTRA>
-0.955758

>  <SCORE.INTRA.DIHEDRAL>
-1.28149

>  <SCORE.INTRA.DIHEDRAL.0>
9.33621

>  <SCORE.INTRA.POLAR>
0

>  <SCORE.INTRA.POLAR.0>
0

>  <SCORE.INTRA.REPUL>
0

>  <SCORE.INTRA.REPUL.0>
0

>  <SCORE.INTRA.SOLV>
0.10482

>  <SCORE.INTRA.SOLV.lig_0>
-65.9238

>  <SCORE.INTRA.VDW>
-0.367423

>  <SCORE.INTRA.VDW.0>
-0.405582

>  <SCORE.INTRA.norm>
-0.0367599

>  <SCORE.RESTR>
0.52155

>  <SCORE.RESTR.CAVITY>
0.52155

>  <SCORE.RESTR.norm>
0.0200596

>  <SCORE.SYSTEM>
0

>  <SCORE.SYSTEM.CONST>
0

>  <SCORE.SYSTEM.DIHEDRAL>
0

>  <SCORE.SYSTEM.SOLV>
0

>  <SCORE.SYSTEM.norm>
0

>  <SCORE.heavy>
26

>  <SCORE.norm>
-0.651587

>  <RMSD>
13.531

$$$$
ligand
 OpenBabel11021811443D
libRbt.so/2013.1/901 2013/11/27
 26 28  0  0  0  0  0  0  0  0999 V2000
   26.7966   41.0871   56.5537 C   0  0  0  0  0  0  0  0  0  0  0  0
   29.0046   35.2649   54.5085 C   0  0  0  0  0  0  0  0  0  0  0  0
   34.2467   35.5230   58.1677 P   0  0  1  0  0  0  0  0  0  0  0  0
   34.6677   35.6040   60.7177 P   0  0  1  0  0  0  0  0  0  0  0  0
   29.2477   37.5185   52.8557 C   0  0  0  0  0  0  0  0  0  0  0  0
   28.1333   38.0128   55.0524 C   0  0  0  0  0  0  0  0  0  0  0  0
   28.5991   38.4642   53.8335 C   0  0  0  0  0  0  0  0  0  0  0  0
   28.4542   39.8190   53.5300 C   0  0  0  0  0  0  0  0  0  0  0  0
   28.9050   40.3221   52.3188 N   0  0  0  0  0  0  0  0  0  0  0  0
   27.8719   40.6198   54.4176 N   0  0  0  0  0  0  0  0  0  0  0  0
   27.4460   40.1477   55.5712 C   0  0  0  0  0  0  0  0  0  0  0  0
   27.5675   38.8735   55.8881 N   0  0  0  0  0  0  0  0  0  0  0  0
   35.2112   36.1521   57.2373 O   0  0  0  0  0  0  0  0  0  0  0  0
   35.5599   34.4589   60.1880 O   0  0  0  0  0  0  0  0  0  0  0  0
   32.7034   36.4930   54.1174 S   0  0  0  0  0  0  0  0  0  0  0  0
   31.6184   37.5013   53.2099 C   0  0  0  0  0  0  0  0  0  0  0  0
   34.7867   34.0707   58.6003 O   0  0  0  0  0  0  0  0  0  0  0  0
   35.5391   36.5725   61.6629 O   0  5  0  0  0  0  0  0  0  0  0  0
   30.4545   36.9461   53.4565 N   0  0  0  0  0  0  0  0  0  0  0  0
   34.0836   36.4471   59.4765 O   0  0  0  0  0  0  0  0  0  0  0  0
   33.4972   35.0081   61.5317 O   0  0  0  0  0  0  0  0  0  0  0  0
   30.3489   35.8903   54.2337 C   0  0  2  0  0  0  0  0  0  0  0  0
   31.4792   35.3714   54.7773 C   0  0  2  0  0  0  0  0  0  0  0  0
   31.6528   34.1833   55.6869 C   0  0  0  0  0  0  0  0  0  0  0  0
   32.9577   34.3265   56.4735 C   0  0  0  0  0  0  0  0  0  0  0  0
   32.8186   35.3703   57.4395 O   0  0  0  0  0  0  0  0  0  0  0  0
  1 11  1  0  0  0  0
  3 13  1  6  0  0  0
  3 17  1  0  0  0  0
  3 20  1  0  0  0  0
  3 26  1  0  0  0  0
  4 14  1  0  0  0  0
  4 18  1  1  0  0  0
  4 21  2  0  0  0  0
  4 20  1  0  0  0  0
  5 19  1  0  0  0  0
  5  7  1  0  0  0  0
  6  7  2  0  0  0  0
  6 12  1  0  0  0  0
  7  8  1  0  0  0  0
  8  9  1  0  0  0  0
  8 10  2  0  0  0  0
 10 11  1  0  0  0  0
 11 12  2  0  0  0  0
 14 17  1  0  0  0  0
 15 23  1  0  0  0  0
 15 16  1  0  0  0  0
 16 19  1  0  0  0  0
 19 22  1  0  0  0  0
 22  2  1  6  0  0  0
 22 23  1  0  0  0  0
 23 24  1  1  0  0  0
 24 25  1  0  0  0  0
 25 26  1  0  0  0  0
M  CHG  1  18  -1
M  END
>  <CHROM.1>
-95.24389136,-61.74365658,22.97670395,70.91321391,-176.79421297,72.31050303
31.76388295,36.72009662,56.55127750,2.67835841,0.71726774,-1.92384246

>  <Name>
ligand

>  <RI>
0

>  <Rbt.Current_Directory>
/home/itssahil/PROJECTS/Mol_Feturizer/New_Systems/rnas/2HOL

>  <Rbt.Executable>
rbdock ($Id: //depot/dev/client3/rdock/2013.1/src/exe/rbdock.cxx#4 $)

>  <Rbt.Library>
libRbt.so (2013.1, Build901 2013/11/27)

>  <Rbt.Parameter_File>
/export/apps/rDock/src/rDock_2013.1_src/data/scripts/dock_solv.prm

>  <Rbt.Receptor>
prm/blind_docking_80.prm

>  <SCORE>
-4.10405

>  <SCORE.INTER>
-1.99088

>  <SCORE.INTER.CONST>
1

>  <SCORE.INTER.POLAR>
0

>  <SCORE.INTER.ROT>
6

>  <SCORE.INTER.SOLV>
16.9991

>  <SCORE.INTER.VDW>
-14.5936

>  <SCORE.INTER.norm>
-0.0765723

>  <SCORE.INTRA>
-2.8323

>  <SCORE.INTRA.DIHEDRAL>
-3.85053

>  <SCORE.INTRA.DIHEDRAL.0>
9.33621

>  <SCORE.INTRA.POLAR>
0

>  <SCORE.INTRA.POLAR.0>
0

>  <SCORE.INTRA.REPUL>
0

>  <SCORE.INTRA.REPUL.0>
0

>  <SCORE.INTRA.SOLV>
-0.595925

>  <SCORE.INTRA.SOLV.lig_0>
-65.9238

>  <SCORE.INTRA.VDW>
-0.609076

>  <SCORE.INTRA.VDW.0>
-0.405582

>  <SCORE.INTRA.norm>
-0.108935

>  <SCORE.RESTR>
0.71913

>  <SCORE.RESTR.CAVITY>
0.71913

>  <SCORE.RESTR.norm>
0.0276589

>  <SCORE.SYSTEM>
0

>  <SCORE.SYSTEM.CONST>
0

>  <SCORE.SYSTEM.DIHEDRAL>
0

>  <SCORE.SYSTEM.SOLV>
0

>  <SCORE.SYSTEM.norm>
0

>  <SCORE.heavy>
26

>  <SCORE.norm>
-0.157848

>  <RMSD>
13.546

$$$$
ligand
 OpenBabel11021811443D
libRbt.so/2013.1/901 2013/11/27
 26 28  0  0  0  0  0  0  0  0999 V2000
   26.8094   41.1741   56.5270 C   0  0  0  0  0  0  0  0  0  0  0  0
   29.0744   35.3199   54.5131 C   0  0  0  0  0  0  0  0  0  0  0  0
   33.6392   36.1351   58.4028 P   0  0  1  0  0  0  0  0  0  0  0  0
   34.4888   34.1830   59.8705 P   0  0  1  0  0  0  0  0  0  0  0  0
   29.1631   37.5526   52.8170 C   0  0  0  0  0  0  0  0  0  0  0  0
   28.1175   38.0808   55.0395 C   0  0  0  0  0  0  0  0  0  0  0  0
   28.5402   38.5123   53.7980 C   0  0  0  0  0  0  0  0  0  0  0  0
   28.3763   39.8603   53.4745 C   0  0  0  0  0  0  0  0  0  0  0  0
   28.7839   40.3436   52.2401 N   0  0  0  0  0  0  0  0  0  0  0  0
   27.8177   40.6738   54.3658 N   0  0  0  0  0  0  0  0  0  0  0  0
   27.4328   40.2207   55.5412 C   0  0  0  0  0  0  0  0  0  0  0  0
   27.5734   38.9533   55.8774 N   0  0  0  0  0  0  0  0  0  0  0  0
   33.4836   37.4869   58.9857 O   0  0  0  0  0  0  0  0  0  0  0  0
   35.7526   34.9729   59.4618 O   0  0  0  0  0  0  0  0  0  0  0  0
   32.7063   36.6677   53.9341 S   0  0  0  0  0  0  0  0  0  0  0  0
   31.5466   37.6228   53.0623 C   0  0  0  0  0  0  0  0  0  0  0  0
   35.1810   35.8921   58.0134 O   0  0  0  0  0  0  0  0  0  0  0  0
   34.5069   33.9222   61.4586 O   0  5  0  0  0  0  0  0  0  0  0  0
   30.4152   37.0321   53.3704 N   0  0  0  0  0  0  0  0  0  0  0  0
   33.1767   35.0305   59.4796 O   0  0  0  0  0  0  0  0  0  0  0  0
   34.4674   32.8286   59.1271 O   0  0  0  0  0  0  0  0  0  0  0  0
   30.3821   35.9865   54.1675 C   0  0  2  0  0  0  0  0  0  0  0  0
   31.5534   35.5158   54.6664 C   0  0  2  0  0  0  0  0  0  0  0  0
   31.8097   34.3498   55.5848 C   0  0  0  0  0  0  0  0  0  0  0  0
   32.9407   34.7001   56.5544 C   0  0  0  0  0  0  0  0  0  0  0  0
   32.7255   36.0104   57.0826 O   0  0  0  0  0  0  0  0  0  0  0  0
  1 11  1  0  0  0  0
  3 13  1  1  0  0  0
  3 17  1  0  0  0  0
  3 20  1  0  0  0  0
  3 26  1  0  0  0  0
  4 14  1  0  0  0  0
  4 18  1  1  0  0  0
  4 21  2  0  0  0  0
  4 20  1  0  0  0  0
  5 19  1  0  0  0  0
  5  7  1  0  0  0  0
  6  7  2  0  0  0  0
  6 12  1  0  0  0  0
  7  8  1  0  0  0  0
  8  9  1  0  0  0  0
  8 10  2  0  0  0  0
 10 11  1  0  0  0  0
 11 12  2  0  0  0  0
 14 17  1  0  0  0  0
 15 23  1  0  0  0  0
 15 16  1  0  0  0  0
 16 19  1  0  0  0  0
 19 22  1  0  0  0  0
 22  2  1  6  0  0  0
 22 23  1  0  0  0  0
 23 24  1  1  0  0  0
 24 25  1  0  0  0  0
 25 26  1  0  0  0  0
M  CHG  1  18  -1
M  END
>  <CHROM.1>
-94.15100537,-63.56731192,36.98767271,45.62303508,162.35669835,178.80727005
31.61571228,36.64897322,56.37164582,2.67794718,0.75189667,-1.80449291

>  <Name>
ligand

>  <RI>
0

>  <Rbt.Current_Directory>
/home/itssahil/PROJECTS/Mol_Feturizer/New_Systems/rnas/2HOL

>  <Rbt.Executable>
rbdock ($Id: //depot/dev/client3/rdock/2013.1/src/exe/rbdock.cxx#4 $)

>  <Rbt.Library>
libRbt.so (2013.1, Build901 2013/11/27)

>  <Rbt.Parameter_File>
/export/apps/rDock/src/rDock_2013.1_src/data/scripts/dock_solv.prm

>  <Rbt.Receptor>
prm/blind_docking_80.prm

>  <SCORE>
-6.10045

>  <SCORE.INTER>
-4.60095

>  <SCORE.INTER.CONST>
1

>  <SCORE.INTER.POLAR>
0

>  <SCORE.INTER.ROT>
6

>  <SCORE.INTER.SOLV>
21.7135

>  <SCORE.INTER.VDW>
-17.9051

>  <SCORE.INTER.norm>
-0.17696

>  <SCORE.INTRA>
-2.11085

>  <SCORE.INTRA.DIHEDRAL>
-2.18529

>  <SCORE.INTRA.DIHEDRAL.0>
9.33621

>  <SCORE.INTRA.POLAR>
0

>  <SCORE.INTRA.POLAR.0>
0

>  <SCORE.INTRA.REPUL>
0

>  <SCORE.INTRA.REPUL.0>
0

>  <SCORE.INTRA.SOLV>
0.397543

>  <SCORE.INTRA.SOLV.lig_0>
-65.9238

>  <SCORE.INTRA.VDW>
-1.21697

>  <SCORE.INTRA.VDW.0>
-0.405582

>  <SCORE.INTRA.norm>
-0.0811864

>  <SCORE.RESTR>
0.611348

>  <SCORE.RESTR.CAVITY>
0.611348

>  <SCORE.RESTR.norm>
0.0235134

>  <SCORE.SYSTEM>
0

>  <SCORE.SYSTEM.CONST>
0

>  <SCORE.SYSTEM.DIHEDRAL>
0

>  <SCORE.SYSTEM.SOLV>
0

>  <SCORE.SYSTEM.norm>
0

>  <SCORE.heavy>
26

>  <SCORE.norm>
-0.234633

>  <RMSD>
13.577

$$$$
ligand
 OpenBabel11021811443D
libRbt.so/2013.1/901 2013/11/27
 26 28  0  0  0  0  0  0  0  0999 V2000
   26.8631   41.2425   56.4239 C   0  0  0  0  0  0  0  0  0  0  0  0
   29.0742   35.2093   54.5211 C   0  0  0  0  0  0  0  0  0  0  0  0
   33.6626   36.0135   58.4676 P   0  0  1  0  0  0  0  0  0  0  0  0
   34.4899   34.0815   59.9740 P   0  0  1  0  0  0  0  0  0  0  0  0
   29.2072   37.4684   52.8632 C   0  0  0  0  0  0  0  0  0  0  0  0
   28.1168   38.0782   55.0428 C   0  0  0  0  0  0  0  0  0  0  0  0
   28.5869   38.4684   53.8046 C   0  0  0  0  0  0  0  0  0  0  0  0
   28.4734   39.8130   53.4470 C   0  0  0  0  0  0  0  0  0  0  0  0
   28.9298   40.2554   52.2144 N   0  0  0  0  0  0  0  0  0  0  0  0
   27.9153   40.6630   54.3039 N   0  0  0  0  0  0  0  0  0  0  0  0
   27.4842   40.2486   55.4776 C   0  0  0  0  0  0  0  0  0  0  0  0
   27.5765   38.9856   55.8453 N   0  0  0  0  0  0  0  0  0  0  0  0
   33.5729   37.3886   59.0087 O   0  0  0  0  0  0  0  0  0  0  0  0
   35.7668   34.8116   59.5001 O   0  0  0  0  0  0  0  0  0  0  0  0
   32.7159   36.5840   54.0849 S   0  0  0  0  0  0  0  0  0  0  0  0
   31.5808   37.5467   53.1893 C   0  0  0  0  0  0  0  0  0  0  0  0
   35.1818   35.7026   58.0396 O   0  0  0  0  0  0  0  0  0  0  0  0
   34.5495   33.8726   61.5688 O   0  5  0  0  0  0  0  0  0  0  0  0
   30.4430   36.9457   53.4503 N   0  0  0  0  0  0  0  0  0  0  0  0
   33.1964   34.9623   59.5950 O   0  0  0  0  0  0  0  0  0  0  0  0
   34.3976   32.7050   59.2781 O   0  0  0  0  0  0  0  0  0  0  0  0
   30.3890   35.8877   54.2297 C   0  0  2  0  0  0  0  0  0  0  0  0
   31.5456   35.4153   54.7604 C   0  0  2  0  0  0  0  0  0  0  0  0
   31.7774   34.2365   55.6691 C   0  0  0  0  0  0  0  0  0  0  0  0
   32.8998   34.5637   56.6566 C   0  0  0  0  0  0  0  0  0  0  0  0
   32.7035   35.8784   57.1811 O   0  0  0  0  0  0  0  0  0  0  0  0
  1 11  1  0  0  0  0
  3 13  1  1  0  0  0
  3 17  1  0  0  0  0
  3 20  1  0  0  0  0
  3 26  1  0  0  0  0
  4 14  1  0  0  0  0
  4 18  1  1  0  0  0
  4 21  2  0  0  0  0
  4 20  1  0  0  0  0
  5 19  1  0  0  0  0
  5  7  1  0  0  0  0
  6  7  2  0  0  0  0
  6 12  1  0  0  0  0
  7  8  1  0  0  0  0
  8  9  1  0  0  0  0
  8 10  2  0  0  0  0
 10 11  1  0  0  0  0
 11 12  2  0  0  0  0
 14 17  1  0  0  0  0
 15 23  1  0  0  0  0
 15 16  1  0  0  0  0
 16 19  1  0  0  0  0
 19 22  1  0  0  0  0
 22  2  1  6  0  0  0
 22 23  1  0  0  0  0
 23 24  1  1  0  0  0
 24 25  1  0  0  0  0
 25 26  1  0  0  0  0
M  CHG  1  18  -1
M  END
>  <CHROM.1>
-90.98936672,-64.82980156,35.45121567,44.74229810,165.52748379,176.32881692
31.63781791,36.56694920,56.42602184,2.69784423,0.77719814,-1.83822403

>  <Name>
ligand

>  <RI>
0

>  <Rbt.Current_Directory>
/home/itssahil/PROJECTS/Mol_Feturizer/New_Systems/rnas/2HOL

>  <Rbt.Executable>
rbdock ($Id: //depot/dev/client3/rdock/2013.1/src/exe/rbdock.cxx#4 $)

>  <Rbt.Library>
libRbt.so (2013.1, Build901 2013/11/27)

>  <Rbt.Parameter_File>
/export/apps/rDock/src/rDock_2013.1_src/data/scripts/dock_solv.prm

>  <Rbt.Receptor>
prm/blind_docking_80.prm

>  <SCORE>
-5.72583

>  <SCORE.INTER>
-3.70552

>  <SCORE.INTER.CONST>
1

>  <SCORE.INTER.POLAR>
0

>  <SCORE.INTER.ROT>
6

>  <SCORE.INTER.SOLV>
21.5123

>  <SCORE.INTER.VDW>
-17.2411

>  <SCORE.INTER.norm>
-0.14252

>  <SCORE.INTRA>
-2.62007

>  <SCORE.INTRA.DIHEDRAL>
-2.5436

>  <SCORE.INTRA.DIHEDRAL.0>
9.33621

>  <SCORE.INTRA.POLAR>
0

>  <SCORE.INTRA.POLAR.0>
0

>  <SCORE.INTRA.REPUL>
0

>  <SCORE.INTRA.REPUL.0>
0

>  <SCORE.INTRA.SOLV>
0.427012

>  <SCORE.INTRA.SOLV.lig_0>
-65.9238

>  <SCORE.INTRA.VDW>
-1.56178

>  <SCORE.INTRA.VDW.0>
-0.405582

>  <SCORE.INTRA.norm>
-0.100772

>  <SCORE.RESTR>
0.599755

>  <SCORE.RESTR.CAVITY>
0.599755

>  <SCORE.RESTR.norm>
0.0230675

>  <SCORE.SYSTEM>
0

>  <SCORE.SYSTEM.CONST>
0

>  <SCORE.SYSTEM.DIHEDRAL>
0

>  <SCORE.SYSTEM.SOLV>
0

>  <SCORE.SYSTEM.norm>
0

>  <SCORE.heavy>
26

>  <SCORE.norm>
-0.220224

>  <RMSD>
13.584

$$$$
ligand
 OpenBabel11021811443D
libRbt.so/2013.1/901 2013/11/27
 26 28  0  0  0  0  0  0  0  0999 V2000
   26.7544   41.0299   56.4005 C   0  0  0  0  0  0  0  0  0  0  0  0
   29.0617   35.0260   54.4937 C   0  0  0  0  0  0  0  0  0  0  0  0
   33.8575   34.6893   58.8624 P   0  0  1  0  0  0  0  0  0  0  0  0
   36.0348   36.0637   59.1002 P   0  0  1  0  0  0  0  0  0  0  0  0
   29.3792   37.3435   52.9452 C   0  0  0  0  0  0  0  0  0  0  0  0
   28.2018   37.9193   55.0885 C   0  0  0  0  0  0  0  0  0  0  0  0
   28.6846   38.3203   53.8587 C   0  0  0  0  0  0  0  0  0  0  0  0
   28.5133   39.6538   53.4831 C   0  0  0  0  0  0  0  0  0  0  0  0
   28.9797   40.1065   52.2579 N   0  0  0  0  0  0  0  0  0  0  0  0
   27.8906   40.4832   54.3154 N   0  0  0  0  0  0  0  0  0  0  0  0
   27.4497   40.0592   55.4820 C   0  0  0  0  0  0  0  0  0  0  0  0
   27.5954   38.8062   55.8663 N   0  0  0  0  0  0  0  0  0  0  0  0
   33.8213   33.2764   59.3031 O   0  0  0  0  0  0  0  0  0  0  0  0
   35.3871   36.0699   60.5032 O   0  0  0  0  0  0  0  0  0  0  0  0
   32.7433   36.3628   54.4639 S   0  0  0  0  0  0  0  0  0  0  0  0
   31.7107   37.3749   53.5011 C   0  0  0  0  0  0  0  0  0  0  0  0
   33.6663   35.6542   60.1352 O   0  0  0  0  0  0  0  0  0  0  0  0
   37.5877   35.6595   59.2257 O   0  5  0  0  0  0  0  0  0  0  0  0
   30.5465   36.7812   53.6278 N   0  0  0  0  0  0  0  0  0  0  0  0
   35.2754   34.9967   58.1635 O   0  0  0  0  0  0  0  0  0  0  0  0
   35.9189   37.4720   58.4751 O   0  0  0  0  0  0  0  0  0  0  0  0
   30.4058   35.6956   54.3569 C   0  0  2  0  0  0  0  0  0  0  0  0
   31.5004   35.1867   54.9778 C   0  0  2  0  0  0  0  0  0  0  0  0
   31.6302   33.9714   55.8581 C   0  0  0  0  0  0  0  0  0  0  0  0
   32.9050   34.0807   56.6977 C   0  0  0  0  0  0  0  0  0  0  0  0
   32.6718   34.9531   57.8052 O   0  0  0  0  0  0  0  0  0  0  0  0
  1 11  1  0  0  0  0
  3 13  1  1  0  0  0
  3 17  1  0  0  0  0
  3 20  1  0  0  0  0
  3 26  1  0  0  0  0
  4 14  1  0  0  0  0
  4 18  1  1  0  0  0
  4 21  2  0  0  0  0
  4 20  1  0  0  0  0
  5 19  1  0  0  0  0
  5  7  1  0  0  0  0
  6  7  2  0  0  0  0
  6 12  1  0  0  0  0
  7  8  1  0  0  0  0
  8  9  1  0  0  0  0
  8 10  2  0  0  0  0
 10 11  1  0  0  0  0
 11 12  2  0  0  0  0
 14 17  1  0  0  0  0
 15 23  1  0  0  0  0
 15 16  1  0  0  0  0
 16 19  1  0  0  0  0
 19 22  1  0  0  0  0
 22  2  1  6  0  0  0
 22 23  1  0  0  0  0
 23 24  1  1  0  0  0
 24 25  1  0  0  0  0
 25 26  1  0  0  0  0
M  CHG  1  18  -1
M  END
>  <CHROM.1>
-90.77999841,-58.80902015,19.57216802,79.29360293,163.51862799,-60.51509518
31.96837791,36.60244105,56.43818511,3.07592478,0.72466063,-2.41089069

>  <Name>
ligand

>  <RI>
0

>  <Rbt.Current_Directory>
/home/itssahil/PROJECTS/Mol_Feturizer/New_Systems/rnas/2HOL

>  <Rbt.Executable>
rbdock ($Id: //depot/dev/client3/rdock/2013.1/src/exe/rbdock.cxx#4 $)

>  <Rbt.Library>
libRbt.so (2013.1, Build901 2013/11/27)

>  <Rbt.Parameter_File>
/export/apps/rDock/src/rDock_2013.1_src/data/scripts/dock_solv.prm

>  <Rbt.Receptor>
prm/blind_docking_80.prm

>  <SCORE>
-3.55594

>  <SCORE.INTER>
-1.88315

>  <SCORE.INTER.CONST>
1

>  <SCORE.INTER.POLAR>
0

>  <SCORE.INTER.ROT>
6

>  <SCORE.INTER.SOLV>
21.2805

>  <SCORE.INTER.VDW>
-15.9489

>  <SCORE.INTER.norm>
-0.0724288

>  <SCORE.INTRA>
-2.34754

>  <SCORE.INTRA.DIHEDRAL>
-2.07509

>  <SCORE.INTRA.DIHEDRAL.0>
9.33621

>  <SCORE.INTRA.POLAR>
0

>  <SCORE.INTRA.POLAR.0>
0

>  <SCORE.INTRA.REPUL>
0

>  <SCORE.INTRA.REPUL.0>
0

>  <SCORE.INTRA.SOLV>
-0.371523

>  <SCORE.INTRA.SOLV.lig_0>
-65.9238

>  <SCORE.INTRA.VDW>
-1.12423

>  <SCORE.INTRA.VDW.0>
-0.405582

>  <SCORE.INTRA.norm>
-0.0902899

>  <SCORE.RESTR>
0.674749

>  <SCORE.RESTR.CAVITY>
0.674749

>  <SCORE.RESTR.norm>
0.0259519

>  <SCORE.SYSTEM>
0

>  <SCORE.SYSTEM.CONST>
0

>  <SCORE.SYSTEM.DIHEDRAL>
0

>  <SCORE.SYSTEM.SOLV>
0

>  <SCORE.SYSTEM.norm>
0

>  <SCORE.heavy>
26

>  <SCORE.norm>
-0.136767

>  <RMSD>
13.592

$$$$
ligand
 OpenBabel11021811443D
libRbt.so/2013.1/901 2013/11/27
 26 28  0  0  0  0  0  0  0  0999 V2000
   26.7468   40.8758   55.4752 C   0  0  0  0  0  0  0  0  0  0  0  0
   32.5780   36.1780   54.3200 C   0  0  0  0  0  0  0  0  0  0  0  0
   33.8559   34.8475   59.6395 P   0  0  1  0  0  0  0  0  0  0  0  0
   36.1871   35.7667   59.0014 P   0  0  1  0  0  0  0  0  0  0  0  0
   30.0804   36.8431   53.2295 C   0  0  0  0  0  0  0  0  0  0  0  0
   28.5181   37.6926   55.0042 C   0  0  0  0  0  0  0  0  0  0  0  0
   29.1983   37.9114   53.8228 C   0  0  0  0  0  0  0  0  0  0  0  0
   29.0486   39.1476   53.1918 C   0  0  0  0  0  0  0  0  0  0  0  0
   29.7100   39.4168   52.0029 N   0  0  0  0  0  0  0  0  0  0  0  0
   28.2571   40.0619   53.7449 N   0  0  0  0  0  0  0  0  0  0  0  0
   27.6302   39.8127   54.8762 C   0  0  0  0  0  0  0  0  0  0  0  0
   27.7504   38.6554   55.4969 N   0  0  0  0  0  0  0  0  0  0  0  0
   33.6124   34.3284   61.0043 O   0  0  0  0  0  0  0  0  0  0  0  0
   35.4904   36.9086   59.7751 O   0  0  0  0  0  0  0  0  0  0  0  0
   29.6891   33.8390   55.5549 S   0  0  0  0  0  0  0  0  0  0  0  0
   29.0846   35.0389   54.4540 C   0  0  0  0  0  0  0  0  0  0  0  0
   33.7455   36.4524   59.6473 O   0  0  0  0  0  0  0  0  0  0  0  0
   37.6651   35.5370   59.5956 O   0  5  0  0  0  0  0  0  0  0  0  0
   30.1712   35.7134   54.1572 N   0  0  0  0  0  0  0  0  0  0  0  0
   35.3291   34.4129   59.1556 O   0  0  0  0  0  0  0  0  0  0  0  0
   36.2868   36.1457   57.5067 O   0  0  0  0  0  0  0  0  0  0  0  0
   31.3387   35.3943   54.6718 C   0  0  2  0  0  0  0  0  0  0  0  0
   31.4017   34.3473   55.5333 C   0  0  2  0  0  0  0  0  0  0  0  0
   32.5862   33.7717   56.2645 C   0  0  0  0  0  0  0  0  0  0  0  0
   33.0587   34.7603   57.3329 C   0  0  0  0  0  0  0  0  0  0  0  0
   32.7598   34.2384   58.6292 O   0  0  0  0  0  0  0  0  0  0  0  0
  1 11  1  0  0  0  0
  3 13  1  1  0  0  0
  3 17  1  0  0  0  0
  3 20  1  0  0  0  0
  3 26  1  0  0  0  0
  4 14  1  0  0  0  0
  4 18  1  1  0  0  0
  4 21  2  0  0  0  0
  4 20  1  0  0  0  0
  5 19  1  0  0  0  0
  5  7  1  0  0  0  0
  6  7  2  0  0  0  0
  6 12  1  0  0  0  0
  7  8  1  0  0  0  0
  8  9  1  0  0  0  0
  8 10  2  0  0  0  0
 10 11  1  0  0  0  0
 11 12  2  0  0  0  0
 14 17  1  0  0  0  0
 15 23  1  0  0  0  0
 15 16  1  0  0  0  0
 16 19  1  0  0  0  0
 19 22  1  0  0  0  0
 22  2  1  1  0  0  0
 22 23  1  0  0  0  0
 23 24  1  6  0  0  0
 24 25  1  0  0  0  0
 25 26  1  0  0  0  0
M  CHG  1  18  -1
M  END
>  <CHROM.1>
63.10892148,-6.00953229,-110.79602969,110.00269059,151.89794283,-179.22751628
31.97601308,36.21394135,56.64299735,-2.84290974,0.68508605,-3.06324124

>  <Name>
ligand

>  <RI>
0

>  <Rbt.Current_Directory>
/home/itssahil/PROJECTS/Mol_Feturizer/New_Systems/rnas/2HOL

>  <Rbt.Executable>
rbdock ($Id: //depot/dev/client3/rdock/2013.1/src/exe/rbdock.cxx#4 $)

>  <Rbt.Library>
libRbt.so (2013.1, Build901 2013/11/27)

>  <Rbt.Parameter_File>
/export/apps/rDock/src/rDock_2013.1_src/data/scripts/dock_solv.prm

>  <Rbt.Receptor>
prm/blind_docking_80.prm

>  <SCORE>
-14.1481

>  <SCORE.INTER>
-15.846

>  <SCORE.INTER.CONST>
1

>  <SCORE.INTER.POLAR>
0

>  <SCORE.INTER.ROT>
6

>  <SCORE.INTER.SOLV>
21.1041

>  <SCORE.INTER.VDW>
-25.1987

>  <SCORE.INTER.norm>
-0.609461

>  <SCORE.INTRA>
1.15557

>  <SCORE.INTRA.DIHEDRAL>
3.65888

>  <SCORE.INTRA.DIHEDRAL.0>
9.33621

>  <SCORE.INTRA.POLAR>
0

>  <SCORE.INTRA.POLAR.0>
0

>  <SCORE.INTRA.REPUL>
0

>  <SCORE.INTRA.REPUL.0>
0

>  <SCORE.INTRA.SOLV>
0.224976

>  <SCORE.INTRA.SOLV.lig_0>
-65.9238

>  <SCORE.INTRA.VDW>
-0.786352

>  <SCORE.INTRA.VDW.0>
-0.405582

>  <SCORE.INTRA.norm>
0.0444452

>  <SCORE.RESTR>
0.542307

>  <SCORE.RESTR.CAVITY>
0.542307

>  <SCORE.RESTR.norm>
0.020858

>  <SCORE.SYSTEM>
0

>  <SCORE.SYSTEM.CONST>
0

>  <SCORE.SYSTEM.DIHEDRAL>
0

>  <SCORE.SYSTEM.SOLV>
0

>  <SCORE.SYSTEM.norm>
0

>  <SCORE.heavy>
26

>  <SCORE.norm>
-0.544158

>  <RMSD>
13.605

$$$$
ligand
 OpenBabel11021811443D
libRbt.so/2013.1/901 2013/11/27
 26 28  0  0  0  0  0  0  0  0999 V2000
   27.6973   41.5409   54.4340 C   0  0  0  0  0  0  0  0  0  0  0  0
   29.8682   33.7690   55.0784 C   0  0  0  0  0  0  0  0  0  0  0  0
   33.9219   34.4793   59.7701 P   0  0  1  0  0  0  0  0  0  0  0  0
   34.6317   34.0563   62.2204 P   0  0  1  0  0  0  0  0  0  0  0  0
   29.4275   36.1675   53.6917 C   0  0  0  0  0  0  0  0  0  0  0  0
   28.2403   37.9527   55.0014 C   0  0  0  0  0  0  0  0  0  0  0  0
   28.9701   37.5901   53.8869 C   0  0  0  0  0  0  0  0  0  0  0  0
   29.2740   38.5750   52.9454 C   0  0  0  0  0  0  0  0  0  0  0  0
   30.0040   38.2620   51.8085 N   0  0  0  0  0  0  0  0  0  0  0  0
   28.8478   39.8176   53.1518 N   0  0  0  0  0  0  0  0  0  0  0  0
   28.1578   40.1209   54.2322 C   0  0  0  0  0  0  0  0  0  0  0  0
   27.8542   39.2140   55.1401 N   0  0  0  0  0  0  0  0  0  0  0  0
   33.2495   35.7457   59.4017 O   0  0  0  0  0  0  0  0  0  0  0  0
   35.7295   34.9653   61.6233 O   0  0  0  0  0  0  0  0  0  0  0  0
   32.9128   36.2271   55.2520 S   0  0  0  0  0  0  0  0  0  0  0  0
   31.6160   36.9146   54.3231 C   0  0  0  0  0  0  0  0  0  0  0  0
   35.5111   34.7170   59.8457 O   0  0  0  0  0  0  0  0  0  0  0  0
   34.1430   34.6575   63.6311 O   0  5  0  0  0  0  0  0  0  0  0  0
   30.7078   35.9678   54.3742 N   0  0  0  0  0  0  0  0  0  0  0  0
   33.3839   33.9845   61.2051 O   0  0  0  0  0  0  0  0  0  0  0  0
   35.2022   32.6366   62.4362 O   0  0  0  0  0  0  0  0  0  0  0  0
   30.9218   34.8466   55.0277 C   0  0  2  0  0  0  0  0  0  0  0  0
   32.1165   34.6781   55.6497 C   0  0  2  0  0  0  0  0  0  0  0  0
   32.6271   33.5117   56.4544 C   0  0  0  0  0  0  0  0  0  0  0  0
   33.7466   33.9826   57.3856 C   0  0  0  0  0  0  0  0  0  0  0  0
   33.5986   33.3568   58.6617 O   0  0  0  0  0  0  0  0  0  0  0  0
  1 11  1  0  0  0  0
  3 13  1  6  0  0  0
  3 17  1  0  0  0  0
  3 20  1  0  0  0  0
  3 26  1  0  0  0  0
  4 14  1  0  0  0  0
  4 18  1  1  0  0  0
  4 21  2  0  0  0  0
  4 20  1  0  0  0  0
  5 19  1  0  0  0  0
  5  7  1  0  0  0  0
  6  7  2  0  0  0  0
  6 12  1  0  0  0  0
  7  8  1  0  0  0  0
  8  9  1  0  0  0  0
  8 10  2  0  0  0  0
 10 11  1  0  0  0  0
 11 12  2  0  0  0  0
 14 17  1  0  0  0  0
 15 23  1  0  0  0  0
 15 16  1  0  0  0  0
 16 19  1  0  0  0  0
 19 22  1  0  0  0  0
 22  2  1  6  0  0  0
 22 23  1  0  0  0  0
 23 24  1  1  0  0  0
 24 25  1  0  0  0  0
 25 26  1  0  0  0  0
M  CHG  1  18  -1
M  END
>  <CHROM.1>
-40.16587062,-86.49931541,22.09541210,138.90688393,-139.26154888,44.28229859
32.03582060,35.83708950,57.27581491,2.67981567,0.93726697,-2.06547711

>  <Name>
ligand

>  <RI>
0

>  <Rbt.Current_Directory>
/home/itssahil/PROJECTS/Mol_Feturizer/New_Systems/rnas/2HOL

>  <Rbt.Executable>
rbdock ($Id: //depot/dev/client3/rdock/2013.1/src/exe/rbdock.cxx#4 $)

>  <Rbt.Library>
libRbt.so (2013.1, Build901 2013/11/27)

>  <Rbt.Parameter_File>
/export/apps/rDock/src/rDock_2013.1_src/data/scripts/dock_solv.prm

>  <Rbt.Receptor>
prm/blind_docking_80.prm

>  <SCORE>
14.3561

>  <SCORE.INTER>
10.463

>  <SCORE.INTER.CONST>
1

>  <SCORE.INTER.POLAR>
0

>  <SCORE.INTER.ROT>
6

>  <SCORE.INTER.SOLV>
23.5737

>  <SCORE.INTER.VDW>
-8.48252

>  <SCORE.INTER.norm>
0.402425

>  <SCORE.INTRA>
2.41516

>  <SCORE.INTRA.DIHEDRAL>
5.5983

>  <SCORE.INTRA.DIHEDRAL.0>
9.33621

>  <SCORE.INTRA.POLAR>
0

>  <SCORE.INTRA.POLAR.0>
0

>  <SCORE.INTRA.REPUL>
0

>  <SCORE.INTRA.REPUL.0>
0

>  <SCORE.INTRA.SOLV>
0.47591

>  <SCORE.INTRA.SOLV.lig_0>
-65.9238

>  <SCORE.INTRA.VDW>
-0.621941

>  <SCORE.INTRA.VDW.0>
-0.405582

>  <SCORE.INTRA.norm>
0.0928909

>  <SCORE.RESTR>
1.47787

>  <SCORE.RESTR.CAVITY>
1.47787

>  <SCORE.RESTR.norm>
0.0568411

>  <SCORE.SYSTEM>
0

>  <SCORE.SYSTEM.CONST>
0

>  <SCORE.SYSTEM.DIHEDRAL>
0

>  <SCORE.SYSTEM.SOLV>
0

>  <SCORE.SYSTEM.norm>
0

>  <SCORE.heavy>
26

>  <SCORE.norm>
0.552157

>  <RMSD>
13.664

$$$$
ligand
 OpenBabel11021811443D
libRbt.so/2013.1/901 2013/11/27
 26 28  0  0  0  0  0  0  0  0999 V2000
   26.8668   41.7306   56.9109 C   0  0  0  0  0  0  0  0  0  0  0  0
   29.3414   36.2929   54.1467 C   0  0  0  0  0  0  0  0  0  0  0  0
   33.8440   35.6801   58.0822 P   0  0  1  0  0  0  0  0  0  0  0  0
   35.8424   34.7833   59.4565 P   0  0  1  0  0  0  0  0  0  0  0  0
   28.7839   38.5583   52.5889 C   0  0  0  0  0  0  0  0  0  0  0  0
   27.9588   38.8251   54.9468 C   0  0  0  0  0  0  0  0  0  0  0  0
   28.2765   39.3992   53.7320 C   0  0  0  0  0  0  0  0  0  0  0  0
   28.1161   40.7785   53.5895 C   0  0  0  0  0  0  0  0  0  0  0  0
   28.4207   41.4033   52.3894 N   0  0  0  0  0  0  0  0  0  0  0  0
   27.6610   41.4845   54.6204 N   0  0  0  0  0  0  0  0  0  0  0  0
   27.3744   40.8965   55.7637 C   0  0  0  0  0  0  0  0  0  0  0  0
   27.5146   39.5959   55.9306 N   0  0  0  0  0  0  0  0  0  0  0  0
   32.7755   36.4578   58.7494 O   0  0  0  0  0  0  0  0  0  0  0  0
   36.1624   36.2705   59.1843 O   0  0  0  0  0  0  0  0  0  0  0  0
   32.5665   38.1158   52.8748 S   0  0  0  0  0  0  0  0  0  0  0  0
   31.1365   38.9324   52.3219 C   0  0  0  0  0  0  0  0  0  0  0  0
   35.0955   36.6423   57.7727 O   0  0  0  0  0  0  0  0  0  0  0  0
   36.0530   34.4647   61.0200 O   0  5  0  0  0  0  0  0  0  0  0  0
   30.1807   38.1922   52.8339 N   0  0  0  0  0  0  0  0  0  0  0  0
   34.3152   34.4795   59.0467 O   0  0  0  0  0  0  0  0  0  0  0  0
   36.7873   33.8933   58.6183 O   0  0  0  0  0  0  0  0  0  0  0  0
   30.4505   37.1322   53.5644 C   0  0  2  0  0  0  0  0  0  0  0  0
   31.7511   36.8063   53.7761 C   0  0  2  0  0  0  0  0  0  0  0  0
   32.3422   35.6618   54.5568 C   0  0  0  0  0  0  0  0  0  0  0  0
   32.8716   36.1756   55.8976 C   0  0  0  0  0  0  0  0  0  0  0  0
   33.2822   35.0685   56.7025 O   0  0  0  0  0  0  0  0  0  0  0  0
  1 11  1  0  0  0  0
  3 13  1  1  0  0  0
  3 17  1  0  0  0  0
  3 20  1  0  0  0  0
  3 26  1  0  0  0  0
  4 14  1  0  0  0  0
  4 18  1  1  0  0  0
  4 21  2  0  0  0  0
  4 20  1  0  0  0  0
  5 19  1  0  0  0  0
  5  7  1  0  0  0  0
  6  7  2  0  0  0  0
  6 12  1  0  0  0  0
  7  8  1  0  0  0  0
  8  9  1  0  0  0  0
  8 10  2  0  0  0  0
 10 11  1  0  0  0  0
 11 12  2  0  0  0  0
 14 17  1  0  0  0  0
 15 23  1  0  0  0  0
 15 16  1  0  0  0  0
 16 19  1  0  0  0  0
 19 22  1  0  0  0  0
 22  2  1  6  0  0  0
 22 23  1  0  0  0  0
 23 24  1  1  0  0  0
 24 25  1  0  0  0  0
 25 26  1  0  0  0  0
M  CHG  1  18  -1
M  END
>  <CHROM.1>
-94.42252726,-75.48678735,75.94799571,172.98416665,179.23014495,59.59278765
31.88029594,37.31945718,56.01465114,2.63679347,0.64402657,-1.62876002

>  <Name>
ligand

>  <RI>
0

>  <Rbt.Current_Directory>
/home/itssahil/PROJECTS/Mol_Feturizer/New_Systems/rnas/2HOL

>  <Rbt.Executable>
rbdock ($Id: //depot/dev/client3/rdock/2013.1/src/exe/rbdock.cxx#4 $)

>  <Rbt.Library>
libRbt.so (2013.1, Build901 2013/11/27)

>  <Rbt.Parameter_File>
/export/apps/rDock/src/rDock_2013.1_src/data/scripts/dock_solv.prm

>  <Rbt.Receptor>
prm/blind_docking_80.prm

>  <SCORE>
-12.8223

>  <SCORE.INTER>
-10.2585

>  <SCORE.INTER.CONST>
1

>  <SCORE.INTER.POLAR>
0

>  <SCORE.INTER.ROT>
6

>  <SCORE.INTER.SOLV>
17.9519

>  <SCORE.INTER.VDW>
-20.423

>  <SCORE.INTER.norm>
-0.394558

>  <SCORE.INTRA>
-3.09607

>  <SCORE.INTRA.DIHEDRAL>
-4.1027

>  <SCORE.INTRA.DIHEDRAL.0>
9.33621

>  <SCORE.INTRA.POLAR>
0

>  <SCORE.INTRA.POLAR.0>
0

>  <SCORE.INTRA.REPUL>
0

>  <SCORE.INTRA.REPUL.0>
0

>  <SCORE.INTRA.SOLV>
-0.20466

>  <SCORE.INTRA.SOLV.lig_0>
-65.9238

>  <SCORE.INTRA.VDW>
-0.942393

>  <SCORE.INTRA.VDW.0>
-0.405582

>  <SCORE.INTRA.norm>
-0.11908

>  <SCORE.RESTR>
0.532327

>  <SCORE.RESTR.CAVITY>
0.532327

>  <SCORE.RESTR.norm>
0.0204741

>  <SCORE.SYSTEM>
0

>  <SCORE.SYSTEM.CONST>
0

>  <SCORE.SYSTEM.DIHEDRAL>
0

>  <SCORE.SYSTEM.SOLV>
0

>  <SCORE.SYSTEM.norm>
0

>  <SCORE.heavy>
26

>  <SCORE.norm>
-0.493164

>  <RMSD>
13.735

$$$$
ligand
 OpenBabel11021811443D
libRbt.so/2013.1/901 2013/11/27
 26 28  0  0  0  0  0  0  0  0999 V2000
   26.7323   40.8939   55.6048 C   0  0  0  0  0  0  0  0  0  0  0  0
   32.5013   36.3281   54.2682 C   0  0  0  0  0  0  0  0  0  0  0  0
   34.0736   33.8829   59.3534 P   0  0  1  0  0  0  0  0  0  0  0  0
   36.2753   35.1181   58.7936 P   0  0  1  0  0  0  0  0  0  0  0  0
   29.9747   36.8875   53.1852 C   0  0  0  0  0  0  0  0  0  0  0  0
   28.4582   37.7058   55.0134 C   0  0  0  0  0  0  0  0  0  0  0  0
   29.1168   37.9488   53.8245 C   0  0  0  0  0  0  0  0  0  0  0  0
   28.9680   39.2029   53.2297 C   0  0  0  0  0  0  0  0  0  0  0  0
   29.6082   39.4968   52.0350 N   0  0  0  0  0  0  0  0  0  0  0  0
   28.1982   40.1105   53.8229 N   0  0  0  0  0  0  0  0  0  0  0  0
   27.5916   39.8379   54.9599 C   0  0  0  0  0  0  0  0  0  0  0  0
   27.7113   38.6632   55.5471 N   0  0  0  0  0  0  0  0  0  0  0  0
   34.1142   32.5614   60.0193 O   0  0  0  0  0  0  0  0  0  0  0  0
   36.0206   35.3873   60.2938 O   0  0  0  0  0  0  0  0  0  0  0  0
   29.7232   33.8506   55.4873 S   0  0  0  0  0  0  0  0  0  0  0  0
   29.0634   35.0304   54.3963 C   0  0  0  0  0  0  0  0  0  0  0  0
   34.2524   35.0440   60.4523 O   0  0  0  0  0  0  0  0  0  0  0  0
   37.7940   34.6280   58.5846 O   0  5  0  0  0  0  0  0  0  0  0  0
   30.1179   35.7559   54.1039 N   0  0  0  0  0  0  0  0  0  0  0  0
   35.2655   33.9764   58.2744 O   0  0  0  0  0  0  0  0  0  0  0  0
   36.0393   36.4177   57.9917 O   0  0  0  0  0  0  0  0  0  0  0  0
   31.2993   35.4861   54.6149 C   0  0  2  0  0  0  0  0  0  0  0  0
   31.4109   34.4364   55.4682 C   0  0  2  0  0  0  0  0  0  0  0  0
   32.6212   33.9095   56.1938 C   0  0  0  0  0  0  0  0  0  0  0  0
   32.9186   34.7961   57.4052 C   0  0  0  0  0  0  0  0  0  0  0  0
   32.6593   34.0646   58.6050 O   0  0  0  0  0  0  0  0  0  0  0  0
  1 11  1  0  0  0  0
  3 13  1  1  0  0  0
  3 17  1  0  0  0  0
  3 20  1  0  0  0  0
  3 26  1  0  0  0  0
  4 14  1  0  0  0  0
  4 18  1  6  0  0  0
  4 21  2  0  0  0  0
  4 20  1  0  0  0  0
  5 19  1  0  0  0  0
  5  7  1  0  0  0  0
  6  7  2  0  0  0  0
  6 12  1  0  0  0  0
  7  8  1  0  0  0  0
  8  9  1  0  0  0  0
  8 10  2  0  0  0  0
 10 11  1  0  0  0  0
 11 12  2  0  0  0  0
 14 17  1  0  0  0  0
 15 23  1  0  0  0  0
 15 16  1  0  0  0  0
 16 19  1  0  0  0  0
 19 22  1  0  0  0  0
 22  2  1  1  0  0  0
 22 23  1  0  0  0  0
 23 24  1  6  0  0  0
 24 25  1  0  0  0  0
 25 26  1  0  0  0  0
M  CHG  1  18  -1
M  END
>  <CHROM.1>
66.69964894,-8.36477398,-102.02987435,111.54485302,114.68802202,-144.34644362
32.02155296,35.89606236,56.56303878,-2.65825328,0.60352156,3.06926626

>  <Name>
ligand

>  <RI>
0

>  <Rbt.Current_Directory>
/home/itssahil/PROJECTS/Mol_Feturizer/New_Systems/rnas/2HOL

>  <Rbt.Executable>
rbdock ($Id: //depot/dev/client3/rdock/2013.1/src/exe/rbdock.cxx#4 $)

>  <Rbt.Library>
libRbt.so (2013.1, Build901 2013/11/27)

>  <Rbt.Parameter_File>
/export/apps/rDock/src/rDock_2013.1_src/data/scripts/dock_solv.prm

>  <Rbt.Receptor>
prm/blind_docking_80.prm

>  <SCORE>
-11.9651

>  <SCORE.INTER>
-17.3064

>  <SCORE.INTER.CONST>
1

>  <SCORE.INTER.POLAR>
0

>  <SCORE.INTER.ROT>
6

>  <SCORE.INTER.SOLV>
23.4821

>  <SCORE.INTER.VDW>
-26.965

>  <SCORE.INTER.norm>
-0.665631

>  <SCORE.INTRA>
4.78807

>  <SCORE.INTRA.DIHEDRAL>
9.22186

>  <SCORE.INTRA.DIHEDRAL.0>
9.33621

>  <SCORE.INTRA.POLAR>
0

>  <SCORE.INTRA.POLAR.0>
0

>  <SCORE.INTRA.REPUL>
0

>  <SCORE.INTRA.REPUL.0>
0

>  <SCORE.INTRA.SOLV>
0.517685

>  <SCORE.INTRA.SOLV.lig_0>
-65.9238

>  <SCORE.INTRA.VDW>
-0.0817009

>  <SCORE.INTRA.VDW.0>
-0.405582

>  <SCORE.INTRA.norm>
0.184157

>  <SCORE.RESTR>
0.553193

>  <SCORE.RESTR.CAVITY>
0.553193

>  <SCORE.RESTR.norm>
0.0212767

>  <SCORE.SYSTEM>
0

>  <SCORE.SYSTEM.CONST>
0

>  <SCORE.SYSTEM.DIHEDRAL>
0

>  <SCORE.SYSTEM.SOLV>
0

>  <SCORE.SYSTEM.norm>
0

>  <SCORE.heavy>
26

>  <SCORE.norm>
-0.460198

>  <RMSD>
13.751

$$$$
ligand
 OpenBabel11021811443D
libRbt.so/2013.1/901 2013/11/27
 26 28  0  0  0  0  0  0  0  0999 V2000
   26.7509   40.8763   55.4799 C   0  0  0  0  0  0  0  0  0  0  0  0
   32.5633   36.2270   54.4032 C   0  0  0  0  0  0  0  0  0  0  0  0
   34.8742   35.3887   58.1553 P   0  0  1  0  0  0  0  0  0  0  0  0
   36.0017   36.6752   60.0944 P   0  0  1  0  0  0  0  0  0  0  0  0
   30.0984   36.8613   53.2234 C   0  0  0  0  0  0  0  0  0  0  0  0
   28.5518   37.7093   55.0124 C   0  0  0  0  0  0  0  0  0  0  0  0
   29.2126   37.9249   53.8195 C   0  0  0  0  0  0  0  0  0  0  0  0
   29.0397   39.1534   53.1795 C   0  0  0  0  0  0  0  0  0  0  0  0
   29.6810   39.4191   51.9789 N   0  0  0  0  0  0  0  0  0  0  0  0
   28.2457   40.0638   53.7355 N   0  0  0  0  0  0  0  0  0  0  0  0
   27.6379   39.8179   54.8780 C   0  0  0  0  0  0  0  0  0  0  0  0
   27.7801   38.6678   55.5073 N   0  0  0  0  0  0  0  0  0  0  0  0
   34.6410   36.0608   56.8570 O   0  0  0  0  0  0  0  0  0  0  0  0
   37.1557   36.2289   59.1686 O   0  0  0  0  0  0  0  0  0  0  0  0
   29.6737   33.8154   55.4878 S   0  0  0  0  0  0  0  0  0  0  0  0
   29.0901   35.0202   54.3810 C   0  0  0  0  0  0  0  0  0  0  0  0
   36.3986   34.8808   58.2312 O   0  0  0  0  0  0  0  0  0  0  0  0
   36.1602   38.2398   60.4367 O   0  5  0  0  0  0  0  0  0  0  0  0
   30.1743   35.7196   54.1376 N   0  0  0  0  0  0  0  0  0  0  0  0
   34.5934   36.4266   59.3543 O   0  0  0  0  0  0  0  0  0  0  0  0
   36.0473   35.8551   61.4032 O   0  0  0  0  0  0  0  0  0  0  0  0
   31.3265   35.4148   54.6938 C   0  0  2  0  0  0  0  0  0  0  0  0
   31.3756   34.3563   55.5421 C   0  0  2  0  0  0  0  0  0  0  0  0
   32.5411   33.7922   56.3117 C   0  0  0  0  0  0  0  0  0  0  0  0
   32.6532   34.5003   57.6637 C   0  0  0  0  0  0  0  0  0  0  0  0
   33.8805   34.1292   58.2946 O   0  0  0  0  0  0  0  0  0  0  0  0
  1 11  1  0  0  0  0
  3 13  1  6  0  0  0
  3 17  1  0  0  0  0
  3 20  1  0  0  0  0
  3 26  1  0  0  0  0
  4 14  1  0  0  0  0
  4 18  1  1  0  0  0
  4 21  2  0  0  0  0
  4 20  1  0  0  0  0
  5 19  1  0  0  0  0
  5  7  1  0  0  0  0
  6  7  2  0  0  0  0
  6 12  1  0  0  0  0
  7  8  1  0  0  0  0
  8  9  1  0  0  0  0
  8 10  2  0  0  0  0
 10 11  1  0  0  0  0
 11 12  2  0  0  0  0
 14 17  1  0  0  0  0
 15 23  1  0  0  0  0
 15 16  1  0  0  0  0
 16 19  1  0  0  0  0
 19 22  1  0  0  0  0
 22  2  1  1  0  0  0
 22 23  1  0  0  0  0
 23 24  1  6  0  0  0
 24 25  1  0  0  0  0
 25 26  1  0  0  0  0
M  CHG  1  18  -1
M  END
>  <CHROM.1>
65.15737295,-3.86985509,-91.79094141,-170.33306746,105.05766596,-35.28657072
32.17432946,36.46138219,56.56172443,-3.05680504,0.67456816,-2.88030875

>  <Name>
ligand

>  <RI>
0

>  <Rbt.Current_Directory>
/home/itssahil/PROJECTS/Mol_Feturizer/New_Systems/rnas/2HOL

>  <Rbt.Executable>
rbdock ($Id: //depot/dev/client3/rdock/2013.1/src/exe/rbdock.cxx#4 $)

>  <Rbt.Library>
libRbt.so (2013.1, Build901 2013/11/27)

>  <Rbt.Parameter_File>
/export/apps/rDock/src/rDock_2013.1_src/data/scripts/dock_solv.prm

>  <Rbt.Receptor>
prm/blind_docking_80.prm

>  <SCORE>
-15.2269

>  <SCORE.INTER>
-18.0548

>  <SCORE.INTER.CONST>
1

>  <SCORE.INTER.POLAR>
0

>  <SCORE.INTER.ROT>
6

>  <SCORE.INTER.SOLV>
13.7452

>  <SCORE.INTER.VDW>
-24.2182

>  <SCORE.INTER.norm>
-0.694414

>  <SCORE.INTRA>
1.54921

>  <SCORE.INTRA.DIHEDRAL>
2.87783

>  <SCORE.INTRA.DIHEDRAL.0>
9.33621

>  <SCORE.INTRA.POLAR>
0

>  <SCORE.INTRA.POLAR.0>
0

>  <SCORE.INTRA.REPUL>
0

>  <SCORE.INTRA.REPUL.0>
0

>  <SCORE.INTRA.SOLV>
0.220145

>  <SCORE.INTRA.SOLV.lig_0>
-65.9238

>  <SCORE.INTRA.VDW>
0.000218829

>  <SCORE.INTRA.VDW.0>
-0.405582

>  <SCORE.INTRA.norm>
0.0595849

>  <SCORE.RESTR>
1.27868

>  <SCORE.RESTR.CAVITY>
1.27868

>  <SCORE.RESTR.norm>
0.0491799

>  <SCORE.SYSTEM>
0

>  <SCORE.SYSTEM.CONST>
0

>  <SCORE.SYSTEM.DIHEDRAL>
0

>  <SCORE.SYSTEM.SOLV>
0

>  <SCORE.SYSTEM.norm>
0

>  <SCORE.heavy>
26

>  <SCORE.norm>
-0.585649

>  <RMSD>
13.760

$$$$
ligand
 OpenBabel11021811443D
libRbt.so/2013.1/901 2013/11/27
 26 28  0  0  0  0  0  0  0  0999 V2000
   26.8489   40.8941   55.3216 C   0  0  0  0  0  0  0  0  0  0  0  0
   32.6243   36.2252   54.4861 C   0  0  0  0  0  0  0  0  0  0  0  0
   34.6756   35.0959   58.3367 P   0  0  1  0  0  0  0  0  0  0  0  0
   36.0247   35.9807   60.3575 P   0  0  1  0  0  0  0  0  0  0  0  0
   30.2237   36.8430   53.1728 C   0  0  0  0  0  0  0  0  0  0  0  0
   28.6294   37.7077   54.9113 C   0  0  0  0  0  0  0  0  0  0  0  0
   29.3307   37.9161   53.7404 C   0  0  0  0  0  0  0  0  0  0  0  0
   29.1919   39.1465   53.0957 C   0  0  0  0  0  0  0  0  0  0  0  0
   29.8744   39.4053   51.9164 N   0  0  0  0  0  0  0  0  0  0  0  0
   28.3903   40.0654   53.6261 N   0  0  0  0  0  0  0  0  0  0  0  0
   27.7433   39.8261   54.7482 C   0  0  0  0  0  0  0  0  0  0  0  0
   27.8526   38.6745   55.3814 N   0  0  0  0  0  0  0  0  0  0  0  0
   35.3824   34.5576   57.1526 O   0  0  0  0  0  0  0  0  0  0  0  0
   36.0090   34.4432   60.5125 O   0  0  0  0  0  0  0  0  0  0  0  0
   29.6974   33.7905   55.4068 S   0  0  0  0  0  0  0  0  0  0  0  0
   29.1668   34.9927   54.2708 C   0  0  0  0  0  0  0  0  0  0  0  0
   34.6040   33.9659   59.4794 O   0  0  0  0  0  0  0  0  0  0  0  0
   37.5302   36.5238   60.5277 O   0  5  0  0  0  0  0  0  0  0  0  0
   30.2575   35.7005   54.0884 N   0  0  0  0  0  0  0  0  0  0  0  0
   35.4711   36.3784   58.8987 O   0  0  0  0  0  0  0  0  0  0  0  0
   35.1236   36.6150   61.4407 O   0  0  0  0  0  0  0  0  0  0  0  0
   31.3795   35.4034   54.7071 C   0  0  2  0  0  0  0  0  0  0  0  0
   31.3896   34.3439   55.5556 C   0  0  2  0  0  0  0  0  0  0  0  0
   32.5151   33.7873   56.3877 C   0  0  0  0  0  0  0  0  0  0  0  0
   32.4156   34.3323   57.8142 C   0  0  0  0  0  0  0  0  0  0  0  0
   33.1831   35.5332   57.9191 O   0  0  0  0  0  0  0  0  0  0  0  0
  1 11  1  0  0  0  0
  3 13  1  6  0  0  0
  3 17  1  0  0  0  0
  3 20  1  0  0  0  0
  3 26  1  0  0  0  0
  4 14  1  0  0  0  0
  4 18  1  1  0  0  0
  4 21  2  0  0  0  0
  4 20  1  0  0  0  0
  5 19  1  0  0  0  0
  5  7  1  0  0  0  0
  6  7  2  0  0  0  0
  6 12  1  0  0  0  0
  7  8  1  0  0  0  0
  8  9  1  0  0  0  0
  8 10  2  0  0  0  0
 10 11  1  0  0  0  0
 11 12  2  0  0  0  0
 14 17  1  0  0  0  0
 15 23  1  0  0  0  0
 15 16  1  0  0  0  0
 16 19  1  0  0  0  0
 19 22  1  0  0  0  0
 22  2  1  1  0  0  0
 22 23  1  0  0  0  0
 23 24  1  6  0  0  0
 24 25  1  0  0  0  0
 25 26  1  0  0  0  0
M  CHG  1  18  -1
M  END
>  <CHROM.1>
66.84189798,-3.86608918,-83.05444887,-91.28171140,-89.28437608,76.92248563
32.13771548,36.23244763,56.64989065,-3.01746574,0.74081013,-2.86476162

>  <Name>
ligand

>  <RI>
0

>  <Rbt.Current_Directory>
/home/itssahil/PROJECTS/Mol_Feturizer/New_Systems/rnas/2HOL

>  <Rbt.Executable>
rbdock ($Id: //depot/dev/client3/rdock/2013.1/src/exe/rbdock.cxx#4 $)

>  <Rbt.Library>
libRbt.so (2013.1, Build901 2013/11/27)

>  <Rbt.Parameter_File>
/export/apps/rDock/src/rDock_2013.1_src/data/scripts/dock_solv.prm

>  <Rbt.Receptor>
prm/blind_docking_80.prm

>  <SCORE>
-15.0861

>  <SCORE.INTER>
-16.2138

>  <SCORE.INTER.CONST>
1

>  <SCORE.INTER.POLAR>
0

>  <SCORE.INTER.ROT>
6

>  <SCORE.INTER.SOLV>
14.0319

>  <SCORE.INTER.VDW>
-23.0865

>  <SCORE.INTER.norm>
-0.623606

>  <SCORE.INTRA>
0.596382

>  <SCORE.INTRA.DIHEDRAL>
2.49281

>  <SCORE.INTRA.DIHEDRAL.0>
9.33621

>  <SCORE.INTRA.POLAR>
0

>  <SCORE.INTRA.POLAR.0>
0

>  <SCORE.INTRA.REPUL>
0

>  <SCORE.INTRA.REPUL.0>
0

>  <SCORE.INTRA.SOLV>
0.138437

>  <SCORE.INTRA.SOLV.lig_0>
-65.9238

>  <SCORE.INTRA.VDW>
-0.719243

>  <SCORE.INTRA.VDW.0>
-0.405582

>  <SCORE.INTRA.norm>
0.0229378

>  <SCORE.RESTR>
0.531266

>  <SCORE.RESTR.CAVITY>
0.531266

>  <SCORE.RESTR.norm>
0.0204333

>  <SCORE.SYSTEM>
0

>  <SCORE.SYSTEM.CONST>
0

>  <SCORE.SYSTEM.DIHEDRAL>
0

>  <SCORE.SYSTEM.SOLV>
0

>  <SCORE.SYSTEM.norm>
0

>  <SCORE.heavy>
26

>  <SCORE.norm>
-0.580235

>  <RMSD>
13.775

$$$$
ligand
 OpenBabel11021811443D
libRbt.so/2013.1/901 2013/11/27
 26 28  0  0  0  0  0  0  0  0999 V2000
   26.8314   41.0408   55.7510 C   0  0  0  0  0  0  0  0  0  0  0  0
   29.4396   34.5273   54.4325 C   0  0  0  0  0  0  0  0  0  0  0  0
   35.0161   34.6079   58.0501 P   0  0  1  0  0  0  0  0  0  0  0  0
   34.4447   36.7165   59.4336 P   0  0  1  0  0  0  0  0  0  0  0  0
   29.7736   36.9626   53.0807 C   0  0  0  0  0  0  0  0  0  0  0  0
   28.3738   37.7943   54.9940 C   0  0  0  0  0  0  0  0  0  0  0  0
   28.9951   38.0430   53.7864 C   0  0  0  0  0  0  0  0  0  0  0  0
   28.8841   39.3209   53.2357 C   0  0  0  0  0  0  0  0  0  0  0  0
   29.4892   39.6214   52.0245 N   0  0  0  0  0  0  0  0  0  0  0  0
   28.1841   40.2451   53.8870 N   0  0  0  0  0  0  0  0  0  0  0  0
   27.6112   39.9659   55.0398 C   0  0  0  0  0  0  0  0  0  0  0  0
   27.6969   38.7689   55.5865 N   0  0  0  0  0  0  0  0  0  0  0  0
   36.4282   34.2042   57.8640 O   0  0  0  0  0  0  0  0  0  0  0  0
   34.7109   35.6018   60.4703 O   0  0  0  0  0  0  0  0  0  0  0  0
   32.8771   36.2462   55.1879 S   0  0  0  0  0  0  0  0  0  0  0  0
   31.9362   37.2044   54.0861 C   0  0  0  0  0  0  0  0  0  0  0  0
   34.4970   34.1005   59.4857 O   0  0  0  0  0  0  0  0  0  0  0  0
   35.2780   38.0341   59.8336 O   0  5  0  0  0  0  0  0  0  0  0  0
   30.8468   36.4835   53.9545 N   0  0  0  0  0  0  0  0  0  0  0  0
   34.9029   36.2126   57.9746 O   0  0  0  0  0  0  0  0  0  0  0  0
   32.9358   37.0487   59.4133 O   0  0  0  0  0  0  0  0  0  0  0  0
   30.6974   35.3433   54.5929 C   0  0  2  0  0  0  0  0  0  0  0  0
   31.7052   34.9136   55.3943 C   0  0  2  0  0  0  0  0  0  0  0  0
   31.8059   33.6634   56.2284 C   0  0  0  0  0  0  0  0  0  0  0  0
   32.7746   33.8988   57.3896 C   0  0  0  0  0  0  0  0  0  0  0  0
   34.1122   33.9529   56.8895 O   0  0  0  0  0  0  0  0  0  0  0  0
  1 11  1  0  0  0  0
  3 13  1  6  0  0  0
  3 17  1  0  0  0  0
  3 20  1  0  0  0  0
  3 26  1  0  0  0  0
  4 14  1  0  0  0  0
  4 18  1  1  0  0  0
  4 21  2  0  0  0  0
  4 20  1  0  0  0  0
  5 19  1  0  0  0  0
  5  7  1  0  0  0  0
  6  7  2  0  0  0  0
  6 12  1  0  0  0  0
  7  8  1  0  0  0  0
  8  9  1  0  0  0  0
  8 10  2  0  0  0  0
 10 11  1  0  0  0  0
 11 12  2  0  0  0  0
 14 17  1  0  0  0  0
 15 23  1  0  0  0  0
 15 16  1  0  0  0  0
 16 19  1  0  0  0  0
 19 22  1  0  0  0  0
 22  2  1  6  0  0  0
 22 23  1  0  0  0  0
 23 24  1  1  0  0  0
 24 25  1  0  0  0  0
 25 26  1  0  0  0  0
M  CHG  1  18  -1
M  END
>  <CHROM.1>
-77.73047533,-58.54852743,25.08252268,-72.03576733,164.17862662,156.89814633
32.01202087,36.54805208,56.39892196,3.08542389,0.75345038,-2.40909687

>  <Name>
ligand

>  <RI>
0

>  <Rbt.Current_Directory>
/home/itssahil/PROJECTS/Mol_Feturizer/New_Systems/rnas/2HOL

>  <Rbt.Executable>
rbdock ($Id: //depot/dev/client3/rdock/2013.1/src/exe/rbdock.cxx#4 $)

>  <Rbt.Library>
libRbt.so (2013.1, Build901 2013/11/27)

>  <Rbt.Parameter_File>
/export/apps/rDock/src/rDock_2013.1_src/data/scripts/dock_solv.prm

>  <Rbt.Receptor>
prm/blind_docking_80.prm

>  <SCORE>
-1.09073

>  <SCORE.INTER>
1.45186

>  <SCORE.INTER.CONST>
1

>  <SCORE.INTER.POLAR>
0

>  <SCORE.INTER.ROT>
6

>  <SCORE.INTER.SOLV>
19.0555

>  <SCORE.INTER.VDW>
-12.9839

>  <SCORE.INTER.norm>
0.0558408

>  <SCORE.INTRA>
-3.08433

>  <SCORE.INTRA.DIHEDRAL>
-2.07044

>  <SCORE.INTRA.DIHEDRAL.0>
9.33621

>  <SCORE.INTRA.POLAR>
0

>  <SCORE.INTRA.POLAR.0>
0

>  <SCORE.INTRA.REPUL>
0

>  <SCORE.INTRA.REPUL.0>
0

>  <SCORE.INTRA.SOLV>
0.150852

>  <SCORE.INTRA.SOLV.lig_0>
-65.9238

>  <SCORE.INTRA.VDW>
-2.12453

>  <SCORE.INTRA.VDW.0>
-0.405582

>  <SCORE.INTRA.norm>
-0.118628

>  <SCORE.RESTR>
0.541736

>  <SCORE.RESTR.CAVITY>
0.541736

>  <SCORE.RESTR.norm>
0.020836

>  <SCORE.SYSTEM>
0

>  <SCORE.SYSTEM.CONST>
0

>  <SCORE.SYSTEM.DIHEDRAL>
0

>  <SCORE.SYSTEM.SOLV>
0

>  <SCORE.SYSTEM.norm>
0

>  <SCORE.heavy>
26

>  <SCORE.norm>
-0.0419512

>  <RMSD>
13.785

$$$$
ligand
 OpenBabel11021811443D
libRbt.so/2013.1/901 2013/11/27
 26 28  0  0  0  0  0  0  0  0999 V2000
   26.7458   40.8991   55.5219 C   0  0  0  0  0  0  0  0  0  0  0  0
   32.5218   36.2101   54.3594 C   0  0  0  0  0  0  0  0  0  0  0  0
   34.8076   35.4798   58.8362 P   0  0  1  0  0  0  0  0  0  0  0  0
   37.2995   35.7402   59.4761 P   0  0  1  0  0  0  0  0  0  0  0  0
   30.0384   36.8600   53.2279 C   0  0  0  0  0  0  0  0  0  0  0  0
   28.5119   37.7162   55.0303 C   0  0  0  0  0  0  0  0  0  0  0  0
   29.1672   37.9300   53.8339 C   0  0  0  0  0  0  0  0  0  0  0  0
   29.0025   39.1627   53.2000 C   0  0  0  0  0  0  0  0  0  0  0  0
   29.6387   39.4269   51.9963 N   0  0  0  0  0  0  0  0  0  0  0  0
   28.2212   40.0787   53.7648 N   0  0  0  0  0  0  0  0  0  0  0  0
   27.6183   39.8343   54.9101 C   0  0  0  0  0  0  0  0  0  0  0  0
   27.7531   38.6803   55.5340 N   0  0  0  0  0  0  0  0  0  0  0  0
   33.7592   36.1144   59.6668 O   0  0  0  0  0  0  0  0  0  0  0  0
   36.9188   37.0529   58.7550 O   0  0  0  0  0  0  0  0  0  0  0  0
   29.6354   33.8271   55.5137 S   0  0  0  0  0  0  0  0  0  0  0  0
   29.0390   35.0322   54.4139 C   0  0  0  0  0  0  0  0  0  0  0  0
   35.4366   36.5729   57.8375 O   0  0  0  0  0  0  0  0  0  0  0  0
   38.0554   36.0829   60.8550 O   0  5  0  0  0  0  0  0  0  0  0  0
   30.1237   35.7215   54.1453 N   0  0  0  0  0  0  0  0  0  0  0  0
   35.9658   34.8943   59.7898 O   0  0  0  0  0  0  0  0  0  0  0  0
   38.2349   34.9092   58.5695 O   0  0  0  0  0  0  0  0  0  0  0  0
   31.2846   35.4094   54.6790 C   0  0  2  0  0  0  0  0  0  0  0  0
   31.3424   34.3540   55.5306 C   0  0  2  0  0  0  0  0  0  0  0  0
   32.5189   33.7834   56.2784 C   0  0  0  0  0  0  0  0  0  0  0  0
   33.0810   34.8399   57.2322 C   0  0  0  0  0  0  0  0  0  0  0  0
   34.1615   34.2786   57.9802 O   0  0  0  0  0  0  0  0  0  0  0  0
  1 11  1  0  0  0  0
  3 13  1  1  0  0  0
  3 17  1  0  0  0  0
  3 20  1  0  0  0  0
  3 26  1  0  0  0  0
  4 14  1  0  0  0  0
  4 18  1  1  0  0  0
  4 21  2  0  0  0  0
  4 20  1  0  0  0  0
  5 19  1  0  0  0  0
  5  7  1  0  0  0  0
  6  7  2  0  0  0  0
  6 12  1  0  0  0  0
  7  8  1  0  0  0  0
  8  9  1  0  0  0  0
  8 10  2  0  0  0  0
 10 11  1  0  0  0  0
 11 12  2  0  0  0  0
 14 17  1  0  0  0  0
 15 23  1  0  0  0  0
 15 16  1  0  0  0  0
 16 19  1  0  0  0  0
 19 22  1  0  0  0  0
 22  2  1  1  0  0  0
 22 23  1  0  0  0  0
 23 24  1  6  0  0  0
 24 25  1  0  0  0  0
 25 26  1  0  0  0  0
M  CHG  1  18  -1
M  END
>  <CHROM.1>
64.82008352,-4.64498721,-118.56106190,177.61624439,173.82325916,55.86326900
32.39977279,36.34020924,56.54703049,-2.93589836,0.59297187,-3.02564872

>  <Name>
ligand

>  <RI>
0

>  <Rbt.Current_Directory>
/home/itssahil/PROJECTS/Mol_Feturizer/New_Systems/rnas/2HOL

>  <Rbt.Executable>
rbdock ($Id: //depot/dev/client3/rdock/2013.1/src/exe/rbdock.cxx#4 $)

>  <Rbt.Library>
libRbt.so (2013.1, Build901 2013/11/27)

>  <Rbt.Parameter_File>
/export/apps/rDock/src/rDock_2013.1_src/data/scripts/dock_solv.prm

>  <Rbt.Receptor>
prm/blind_docking_80.prm

>  <SCORE>
-20.6714

>  <SCORE.INTER>
-19.1681

>  <SCORE.INTER.CONST>
1

>  <SCORE.INTER.POLAR>
0

>  <SCORE.INTER.ROT>
6

>  <SCORE.INTER.SOLV>
19.6078

>  <SCORE.INTER.VDW>
-26.9147

>  <SCORE.INTER.norm>
-0.737236

>  <SCORE.INTRA>
-2.641

>  <SCORE.INTRA.DIHEDRAL>
-4.53596

>  <SCORE.INTRA.DIHEDRAL.0>
9.33621

>  <SCORE.INTRA.POLAR>
0

>  <SCORE.INTRA.POLAR.0>
0

>  <SCORE.INTRA.REPUL>
0

>  <SCORE.INTRA.REPUL.0>
0

>  <SCORE.INTRA.SOLV>
-0.745427

>  <SCORE.INTRA.SOLV.lig_0>
-65.9238

>  <SCORE.INTRA.VDW>
-0.000305111

>  <SCORE.INTRA.VDW.0>
-0.405582

>  <SCORE.INTRA.norm>
-0.101577

>  <SCORE.RESTR>
1.13774

>  <SCORE.RESTR.CAVITY>
1.13774

>  <SCORE.RESTR.norm>
0.0437593

>  <SCORE.SYSTEM>
0

>  <SCORE.SYSTEM.CONST>
0

>  <SCORE.SYSTEM.DIHEDRAL>
0

>  <SCORE.SYSTEM.SOLV>
0

>  <SCORE.SYSTEM.norm>
0

>  <SCORE.heavy>
26

>  <SCORE.norm>
-0.795054

>  <RMSD>
13.798

$$$$
ligand
 OpenBabel11021811443D
libRbt.so/2013.1/901 2013/11/27
 26 28  0  0  0  0  0  0  0  0999 V2000
   26.7824   40.9134   55.4425 C   0  0  0  0  0  0  0  0  0  0  0  0
   32.5722   36.2155   54.3570 C   0  0  0  0  0  0  0  0  0  0  0  0
   34.8160   35.5085   58.8617 P   0  0  1  0  0  0  0  0  0  0  0  0
   37.2957   35.7873   59.5401 P   0  0  1  0  0  0  0  0  0  0  0  0
   30.0989   36.8635   53.2027 C   0  0  0  0  0  0  0  0  0  0  0  0
   28.5671   37.7346   54.9934 C   0  0  0  0  0  0  0  0  0  0  0  0
   29.2213   37.9363   53.7943 C   0  0  0  0  0  0  0  0  0  0  0  0
   29.0495   39.1595   53.1441 C   0  0  0  0  0  0  0  0  0  0  0  0
   29.6843   39.4114   51.9370 N   0  0  0  0  0  0  0  0  0  0  0  0
   28.2628   40.0784   53.6965 N   0  0  0  0  0  0  0  0  0  0  0  0
   27.6611   39.8457   54.8450 C   0  0  0  0  0  0  0  0  0  0  0  0
   27.8025   38.7009   55.4841 N   0  0  0  0  0  0  0  0  0  0  0  0
   33.7494   36.1238   59.6835 O   0  0  0  0  0  0  0  0  0  0  0  0
   36.9120   37.1035   58.8269 O   0  0  0  0  0  0  0  0  0  0  0  0
   29.6729   33.8434   55.5012 S   0  0  0  0  0  0  0  0  0  0  0  0
   29.0872   35.0436   54.3904 C   0  0  0  0  0  0  0  0  0  0  0  0
   35.4481   36.6180   57.8833 O   0  0  0  0  0  0  0  0  0  0  0  0
   38.0283   36.1235   60.9332 O   0  5  0  0  0  0  0  0  0  0  0  0
   30.1751   35.7297   54.1267 N   0  0  0  0  0  0  0  0  0  0  0  0
   35.9663   34.9249   59.8260 O   0  0  0  0  0  0  0  0  0  0  0  0
   38.2525   34.9752   58.6387 O   0  0  0  0  0  0  0  0  0  0  0  0
   31.3312   35.4186   54.6711 C   0  0  2  0  0  0  0  0  0  0  0  0
   31.3807   34.3676   55.5287 C   0  0  2  0  0  0  0  0  0  0  0  0
   32.5503   33.7990   56.2887 C   0  0  0  0  0  0  0  0  0  0  0  0
   33.1303   34.8714   57.2137 C   0  0  0  0  0  0  0  0  0  0  0  0
   34.1946   34.3097   57.9843 O   0  0  0  0  0  0  0  0  0  0  0  0
  1 11  1  0  0  0  0
  3 13  1  1  0  0  0
  3 17  1  0  0  0  0
  3 20  1  0  0  0  0
  3 26  1  0  0  0  0
  4 14  1  0  0  0  0
  4 18  1  1  0  0  0
  4 21  2  0  0  0  0
  4 20  1  0  0  0  0
  5 19  1  0  0  0  0
  5  7  1  0  0  0  0
  6  7  2  0  0  0  0
  6 12  1  0  0  0  0
  7  8  1  0  0  0  0
  8  9  1  0  0  0  0
  8 10  2  0  0  0  0
 10 11  1  0  0  0  0
 11 12  2  0  0  0  0
 14 17  1  0  0  0  0
 15 23  1  0  0  0  0
 15 16  1  0  0  0  0
 16 19  1  0  0  0  0
 19 22  1  0  0  0  0
 22  2  1  1  0  0  0
 22 23  1  0  0  0  0
 23 24  1  6  0  0  0
 24 25  1  0  0  0  0
 25 26  1  0  0  0  0
M  CHG  1  18  -1
M  END
>  <CHROM.1>
64.64799779,-3.83714946,-120.07620922,176.99225876,176.50926028,56.58797102
32.42741809,36.36228644,56.54776044,-2.94110394,0.60430759,-3.02536894

>  <Name>
ligand

>  <RI>
0

>  <Rbt.Current_Directory>
/home/itssahil/PROJECTS/Mol_Feturizer/New_Systems/rnas/2HOL

>  <Rbt.Executable>
rbdock ($Id: //depot/dev/client3/rdock/2013.1/src/exe/rbdock.cxx#4 $)

>  <Rbt.Library>
libRbt.so (2013.1, Build901 2013/11/27)

>  <Rbt.Parameter_File>
/export/apps/rDock/src/rDock_2013.1_src/data/scripts/dock_solv.prm

>  <Rbt.Receptor>
prm/blind_docking_80.prm

>  <SCORE>
-20.5488

>  <SCORE.INTER>
-19.0421

>  <SCORE.INTER.CONST>
1

>  <SCORE.INTER.POLAR>
0

>  <SCORE.INTER.ROT>
6

>  <SCORE.INTER.SOLV>
19.2102

>  <SCORE.INTER.VDW>
-26.6982

>  <SCORE.INTER.norm>
-0.73239

>  <SCORE.INTRA>
-2.63495

>  <SCORE.INTRA.DIHEDRAL>
-4.66088

>  <SCORE.INTRA.DIHEDRAL.0>
9.33621

>  <SCORE.INTRA.POLAR>
0

>  <SCORE.INTRA.POLAR.0>
0

>  <SCORE.INTRA.REPUL>
0

>  <SCORE.INTRA.REPUL.0>
0

>  <SCORE.INTRA.SOLV>
-0.74175

>  <SCORE.INTRA.SOLV.lig_0>
-65.9238

>  <SCORE.INTRA.VDW>
0.0663669

>  <SCORE.INTRA.VDW.0>
-0.405582

>  <SCORE.INTRA.norm>
-0.101344

>  <SCORE.RESTR>
1.1283

>  <SCORE.RESTR.CAVITY>
1.1283

>  <SCORE.RESTR.norm>
0.0433963

>  <SCORE.SYSTEM>
0

>  <SCORE.SYSTEM.CONST>
0

>  <SCORE.SYSTEM.DIHEDRAL>
0

>  <SCORE.SYSTEM.SOLV>
0

>  <SCORE.SYSTEM.norm>
0

>  <SCORE.heavy>
26

>  <SCORE.norm>
-0.790338

>  <RMSD>
13.819

$$$$
ligand
 OpenBabel11021811443D
libRbt.so/2013.1/901 2013/11/27
 26 28  0  0  0  0  0  0  0  0999 V2000
   27.2218   43.4163   55.4193 C   0  0  0  0  0  0  0  0  0  0  0  0
   29.5004   35.9261   54.0993 C   0  0  0  0  0  0  0  0  0  0  0  0
   33.8937   35.8149   57.6377 P   0  0  1  0  0  0  0  0  0  0  0  0
   34.9663   33.6367   58.5275 P   0  0  1  0  0  0  0  0  0  0  0  0
   28.4733   38.3526   53.1366 C   0  0  0  0  0  0  0  0  0  0  0  0
   28.3390   40.8591   53.0309 C   0  0  0  0  0  0  0  0  0  0  0  0
   28.1417   39.6922   53.7421 C   0  0  0  0  0  0  0  0  0  0  0  0
   27.6268   39.7848   55.0363 C   0  0  0  0  0  0  0  0  0  0  0  0
   27.4107   38.6423   55.7923 N   0  0  0  0  0  0  0  0  0  0  0  0
   27.3517   40.9859   55.5363 N   0  0  0  0  0  0  0  0  0  0  0  0
   27.5510   42.0737   54.8207 C   0  0  0  0  0  0  0  0  0  0  0  0
   28.0362   42.0204   53.5957 N   0  0  0  0  0  0  0  0  0  0  0  0
   32.8729   36.5212   58.4444 O   0  0  0  0  0  0  0  0  0  0  0  0
   35.7090   34.7862   59.2453 O   0  0  0  0  0  0  0  0  0  0  0  0
   32.2866   38.4223   52.9380 S   0  0  0  0  0  0  0  0  0  0  0  0
   30.7081   39.1146   52.7227 C   0  0  0  0  0  0  0  0  0  0  0  0
   35.3614   36.1993   58.1722 O   0  0  0  0  0  0  0  0  0  0  0  0
   34.5014   32.5383   59.6081 O   0  5  0  0  0  0  0  0  0  0  0  0
   29.9242   38.1539   53.1545 N   0  0  0  0  0  0  0  0  0  0  0  0
   33.6739   34.2248   57.7682 O   0  0  0  0  0  0  0  0  0  0  0  0
   35.9125   32.9779   57.4987 O   0  0  0  0  0  0  0  0  0  0  0  0
   30.4139   37.0196   53.6056 C   0  0  2  0  0  0  0  0  0  0  0  0
   31.7609   36.8524   53.6096 C   0  0  2  0  0  0  0  0  0  0  0  0
   32.5836   35.6733   54.0588 C   0  0  0  0  0  0  0  0  0  0  0  0
   32.5843   35.6016   55.5874 C   0  0  0  0  0  0  0  0  0  0  0  0
   33.7534   36.2491   56.0934 O   0  0  0  0  0  0  0  0  0  0  0  0
  1 11  1  0  0  0  0
  3 13  1  1  0  0  0
  3 17  1  0  0  0  0
  3 20  1  0  0  0  0
  3 26  1  0  0  0  0
  4 14  1  0  0  0  0
  4 18  1  1  0  0  0
  4 21  2  0  0  0  0
  4 20  1  0  0  0  0
  5 19  1  0  0  0  0
  5  7  1  0  0  0  0
  6  7  2  0  0  0  0
  6 12  1  0  0  0  0
  7  8  1  0  0  0  0
  8  9  1  0  0  0  0
  8 10  2  0  0  0  0
 10 11  1  0  0  0  0
 11 12  2  0  0  0  0
 14 17  1  0  0  0  0
 15 23  1  0  0  0  0
 15 16  1  0  0  0  0
 16 19  1  0  0  0  0
 19 22  1  0  0  0  0
 22  2  1  6  0  0  0
 22 23  1  0  0  0  0
 23 24  1  1  0  0  0
 24 25  1  0  0  0  0
 25 26  1  0  0  0  0
M  CHG  1  18  -1
M  END
>  <CHROM.1>
-48.06103606,76.29317934,106.22294377,-95.57435109,-165.61726079,-73.83161405
31.65107714,37.19125092,55.73544682,2.78576971,0.79434241,-1.67602376

>  <Name>
ligand

>  <RI>
0

>  <Rbt.Current_Directory>
/home/itssahil/PROJECTS/Mol_Feturizer/New_Systems/rnas/2HOL

>  <Rbt.Executable>
rbdock ($Id: //depot/dev/client3/rdock/2013.1/src/exe/rbdock.cxx#4 $)

>  <Rbt.Library>
libRbt.so (2013.1, Build901 2013/11/27)

>  <Rbt.Parameter_File>
/export/apps/rDock/src/rDock_2013.1_src/data/scripts/dock_solv.prm

>  <Rbt.Receptor>
prm/blind_docking_80.prm

>  <SCORE>
-0.555381

>  <SCORE.INTER>
-2.16275

>  <SCORE.INTER.CONST>
1

>  <SCORE.INTER.POLAR>
0

>  <SCORE.INTER.ROT>
6

>  <SCORE.INTER.SOLV>
34.7988

>  <SCORE.INTER.VDW>
-20.6414

>  <SCORE.INTER.norm>
-0.0831826

>  <SCORE.INTRA>
-0.534819

>  <SCORE.INTRA.DIHEDRAL>
0.125492

>  <SCORE.INTRA.DIHEDRAL.0>
9.33621

>  <SCORE.INTRA.POLAR>
0

>  <SCORE.INTRA.POLAR.0>
0

>  <SCORE.INTRA.REPUL>
0

>  <SCORE.INTRA.REPUL.0>
0

>  <SCORE.INTRA.SOLV>
0.918901

>  <SCORE.INTRA.SOLV.lig_0>
-65.9238

>  <SCORE.INTRA.VDW>
-1.05702

>  <SCORE.INTRA.VDW.0>
-0.405582

>  <SCORE.INTRA.norm>
-0.02057

>  <SCORE.RESTR>
2.14219

>  <SCORE.RESTR.CAVITY>
2.14219

>  <SCORE.RESTR.norm>
0.0823918

>  <SCORE.SYSTEM>
0

>  <SCORE.SYSTEM.CONST>
0

>  <SCORE.SYSTEM.DIHEDRAL>
0

>  <SCORE.SYSTEM.SOLV>
0

>  <SCORE.SYSTEM.norm>
0

>  <SCORE.heavy>
26

>  <SCORE.norm>
-0.0213608

>  <RMSD>
13.931

$$$$
ligand
 OpenBabel11021811443D
libRbt.so/2013.1/901 2013/11/27
 26 28  0  0  0  0  0  0  0  0999 V2000
   28.3316   40.1483   53.1176 C   0  0  0  0  0  0  0  0  0  0  0  0
   30.7332   33.5785   56.0292 C   0  0  0  0  0  0  0  0  0  0  0  0
   34.9937   35.2229   60.0309 P   0  0  1  0  0  0  0  0  0  0  0  0
   34.1042   37.6088   60.4811 P   0  0  1  0  0  0  0  0  0  0  0  0
   31.1967   35.2827   53.8497 C   0  0  0  0  0  0  0  0  0  0  0  0
   29.1714   36.7329   54.1768 C   0  0  0  0  0  0  0  0  0  0  0  0
   30.4395   36.5711   53.6551 C   0  0  0  0  0  0  0  0  0  0  0  0
   31.0025   37.6315   52.9429 C   0  0  0  0  0  0  0  0  0  0  0  0
   32.2731   37.5190   52.3984 N   0  0  0  0  0  0  0  0  0  0  0  0
   30.2999   38.7500   52.7890 N   0  0  0  0  0  0  0  0  0  0  0  0
   29.0945   38.8634   53.3080 C   0  0  0  0  0  0  0  0  0  0  0  0
   28.5344   37.8805   53.9856 N   0  0  0  0  0  0  0  0  0  0  0  0
   36.0337   34.6418   60.9098 O   0  0  0  0  0  0  0  0  0  0  0  0
   33.3585   36.6947   61.4794 O   0  0  0  0  0  0  0  0  0  0  0  0
   33.7275   36.0361   56.6088 S   0  0  0  0  0  0  0  0  0  0  0  0
   33.0159   36.2875   55.0443 C   0  0  0  0  0  0  0  0  0  0  0  0
   33.5518   35.0625   60.7260 O   0  0  0  0  0  0  0  0  0  0  0  0
   34.7043   38.8820   61.2616 O   0  5  0  0  0  0  0  0  0  0  0  0
   32.0543   35.3936   55.0317 N   0  0  0  0  0  0  0  0  0  0  0  0
   35.3045   36.7850   59.7930 O   0  0  0  0  0  0  0  0  0  0  0  0
   33.1195   38.0904   59.3920 O   0  0  0  0  0  0  0  0  0  0  0  0
   31.8427   34.5992   56.0583 C   0  0  2  0  0  0  0  0  0  0  0  0
   32.6511   34.7138   57.1426 C   0  0  2  0  0  0  0  0  0  0  0  0
   32.6411   33.9436   58.4370 C   0  0  0  0  0  0  0  0  0  0  0  0
   34.0424   33.3964   58.7185 C   0  0  0  0  0  0  0  0  0  0  0  0
   34.9961   34.4555   58.6152 O   0  0  0  0  0  0  0  0  0  0  0  0
  1 11  1  0  0  0  0
  3 13  1  1  0  0  0
  3 17  1  0  0  0  0
  3 20  1  0  0  0  0
  3 26  1  0  0  0  0
  4 14  1  0  0  0  0
  4 18  1  1  0  0  0
  4 21  2  0  0  0  0
  4 20  1  0  0  0  0
  5 19  1  0  0  0  0
  5  7  1  0  0  0  0
  6  7  2  0  0  0  0
  6 12  1  0  0  0  0
  7  8  1  0  0  0  0
  8  9  1  0  0  0  0
  8 10  2  0  0  0  0
 10 11  1  0  0  0  0
 11 12  2  0  0  0  0
 14 17  1  0  0  0  0
 15 23  1  0  0  0  0
 15 16  1  0  0  0  0
 16 19  1  0  0  0  0
 19 22  1  0  0  0  0
 22  2  1  6  0  0  0
 22 23  1  0  0  0  0
 23 24  1  1  0  0  0
 24 25  1  0  0  0  0
 25 26  1  0  0  0  0
M  CHG  1  18  -1
M  END
>  <CHROM.1>
-62.83138975,-93.73862793,-52.00731469,51.18293898,83.24908991,92.45767468
32.69171800,36.32925583,57.22383333,2.94960959,0.98797856,-2.67678447

>  <Name>
ligand

>  <RI>
0

>  <Rbt.Current_Directory>
/home/itssahil/PROJECTS/Mol_Feturizer/New_Systems/rnas/2HOL

>  <Rbt.Executable>
rbdock ($Id: //depot/dev/client3/rdock/2013.1/src/exe/rbdock.cxx#4 $)

>  <Rbt.Library>
libRbt.so (2013.1, Build901 2013/11/27)

>  <Rbt.Parameter_File>
/export/apps/rDock/src/rDock_2013.1_src/data/scripts/dock_solv.prm

>  <Rbt.Receptor>
prm/blind_docking_80.prm

>  <SCORE>
2.61501

>  <SCORE.INTER>
0.93737

>  <SCORE.INTER.CONST>
1

>  <SCORE.INTER.POLAR>
0

>  <SCORE.INTER.ROT>
6

>  <SCORE.INTER.SOLV>
17.0351

>  <SCORE.INTER.VDW>
-12.6535

>  <SCORE.INTER.norm>
0.0360527

>  <SCORE.INTRA>
0.477936

>  <SCORE.INTRA.DIHEDRAL>
-0.215005

>  <SCORE.INTRA.DIHEDRAL.0>
9.33621

>  <SCORE.INTRA.POLAR>
0

>  <SCORE.INTRA.POLAR.0>
0

>  <SCORE.INTRA.REPUL>
0

>  <SCORE.INTRA.REPUL.0>
0

>  <SCORE.INTRA.SOLV>
1.90565

>  <SCORE.INTRA.SOLV.lig_0>
-65.9238

>  <SCORE.INTRA.VDW>
-0.367386

>  <SCORE.INTRA.VDW.0>
-0.405582

>  <SCORE.INTRA.norm>
0.0183822

>  <SCORE.RESTR>
1.1997

>  <SCORE.RESTR.CAVITY>
1.1997

>  <SCORE.RESTR.norm>
0.0461424

>  <SCORE.SYSTEM>
0

>  <SCORE.SYSTEM.CONST>
0

>  <SCORE.SYSTEM.DIHEDRAL>
0

>  <SCORE.SYSTEM.SOLV>
0

>  <SCORE.SYSTEM.norm>
0

>  <SCORE.heavy>
26

>  <SCORE.norm>
0.100577

>  <RMSD>
13.999

$$$$
ligand
 OpenBabel11021811443D
libRbt.so/2013.1/901 2013/11/27
 26 28  0  0  0  0  0  0  0  0999 V2000
   28.3154   39.8461   52.4036 C   0  0  0  0  0  0  0  0  0  0  0  0
   33.7741   36.0974   56.6383 C   0  0  0  0  0  0  0  0  0  0  0  0
   33.7728   36.9821   60.3392 P   0  0  1  0  0  0  0  0  0  0  0  0
   36.3497   36.8712   60.1547 P   0  0  1  0  0  0  0  0  0  0  0  0
   32.5533   36.4628   54.1391 C   0  0  0  0  0  0  0  0  0  0  0  0
   30.1645   37.2372   54.2111 C   0  0  0  0  0  0  0  0  0  0  0  0
   31.4325   37.3589   53.6787 C   0  0  0  0  0  0  0  0  0  0  0  0
   31.6502   38.3335   52.7033 C   0  0  0  0  0  0  0  0  0  0  0  0
   32.9057   38.4957   52.1368 N   0  0  0  0  0  0  0  0  0  0  0  0
   30.6339   39.1010   52.3206 N   0  0  0  0  0  0  0  0  0  0  0  0
   29.4407   38.9538   52.8587 C   0  0  0  0  0  0  0  0  0  0  0  0
   29.2022   38.0428   53.7818 N   0  0  0  0  0  0  0  0  0  0  0  0
   33.1406   37.7930   61.4043 O   0  0  0  0  0  0  0  0  0  0  0  0
   35.9451   38.2072   59.4918 O   0  0  0  0  0  0  0  0  0  0  0  0
   30.7445   33.6878   56.0399 S   0  0  0  0  0  0  0  0  0  0  0  0
   30.9914   34.7227   54.6667 C   0  0  0  0  0  0  0  0  0  0  0  0
   34.1970   37.9377   59.1167 O   0  0  0  0  0  0  0  0  0  0  0  0
   37.5439   37.1298   61.2023 O   0  5  0  0  0  0  0  0  0  0  0  0
   32.0223   35.4423   55.0454 N   0  0  0  0  0  0  0  0  0  0  0  0
   35.0811   36.2503   60.9279 O   0  0  0  0  0  0  0  0  0  0  0  0
   36.8248   35.8818   59.0672 O   0  0  0  0  0  0  0  0  0  0  0  0
   32.5898   35.2638   56.2184 C   0  0  2  0  0  0  0  0  0  0  0  0
   32.0801   34.3165   57.0463 C   0  0  2  0  0  0  0  0  0  0  0  0
   32.5204   33.9067   58.4273 C   0  0  0  0  0  0  0  0  0  0  0  0
   33.4680   34.9644   58.9979 C   0  0  0  0  0  0  0  0  0  0  0  0
   32.7290   35.8727   59.8169 O   0  0  0  0  0  0  0  0  0  0  0  0
  1 11  1  0  0  0  0
  3 13  1  1  0  0  0
  3 17  1  0  0  0  0
  3 20  1  0  0  0  0
  3 26  1  0  0  0  0
  4 14  1  0  0  0  0
  4 18  1  1  0  0  0
  4 21  2  0  0  0  0
  4 20  1  0  0  0  0
  5 19  1  0  0  0  0
  5  7  1  0  0  0  0
  6  7  2  0  0  0  0
  6 12  1  0  0  0  0
  7  8  1  0  0  0  0
  8  9  1  0  0  0  0
  8 10  2  0  0  0  0
 10 11  1  0  0  0  0
 11 12  2  0  0  0  0
 14 17  1  0  0  0  0
 15 23  1  0  0  0  0
 15 16  1  0  0  0  0
 16 19  1  0  0  0  0
 19 22  1  0  0  0  0
 22  2  1  1  0  0  0
 22 23  1  0  0  0  0
 23 24  1  6  0  0  0
 24 25  1  0  0  0  0
 25 26  1  0  0  0  0
M  CHG  1  18  -1
M  END
>  <CHROM.1>
51.78030756,6.39734668,-165.66563543,95.81091360,-178.05596645,-168.70357221
32.92406429,36.64028436,57.09193332,-2.56807189,0.82107871,2.55236383

>  <Name>
ligand

>  <RI>
0

>  <Rbt.Current_Directory>
/home/itssahil/PROJECTS/Mol_Feturizer/New_Systems/rnas/2HOL

>  <Rbt.Executable>
rbdock ($Id: //depot/dev/client3/rdock/2013.1/src/exe/rbdock.cxx#4 $)

>  <Rbt.Library>
libRbt.so (2013.1, Build901 2013/11/27)

>  <Rbt.Parameter_File>
/export/apps/rDock/src/rDock_2013.1_src/data/scripts/dock_solv.prm

>  <Rbt.Receptor>
prm/blind_docking_80.prm

>  <SCORE>
5.47486

>  <SCORE.INTER>
-5.87715

>  <SCORE.INTER.CONST>
1

>  <SCORE.INTER.POLAR>
0

>  <SCORE.INTER.ROT>
6

>  <SCORE.INTER.SOLV>
16.8334

>  <SCORE.INTER.VDW>
-17.1292

>  <SCORE.INTER.norm>
-0.226044

>  <SCORE.INTRA>
9.74576

>  <SCORE.INTRA.DIHEDRAL>
-0.460157

>  <SCORE.INTRA.DIHEDRAL.0>
9.33621

>  <SCORE.INTRA.POLAR>
0

>  <SCORE.INTRA.POLAR.0>
0

>  <SCORE.INTRA.REPUL>
0

>  <SCORE.INTRA.REPUL.0>
0

>  <SCORE.INTRA.SOLV>
1.33462

>  <SCORE.INTRA.SOLV.lig_0>
-65.9238

>  <SCORE.INTRA.VDW>
9.30852

>  <SCORE.INTRA.VDW.0>
-0.405582

>  <SCORE.INTRA.norm>
0.374837

>  <SCORE.RESTR>
1.60625

>  <SCORE.RESTR.CAVITY>
1.60625

>  <SCORE.RESTR.norm>
0.0617789

>  <SCORE.SYSTEM>
0

>  <SCORE.SYSTEM.CONST>
0

>  <SCORE.SYSTEM.DIHEDRAL>
0

>  <SCORE.SYSTEM.SOLV>
0

>  <SCORE.SYSTEM.norm>
0

>  <SCORE.heavy>
26

>  <SCORE.norm>
0.210572

>  <RMSD>
14.065

$$$$
ligand
 OpenBabel11021811443D
libRbt.so/2013.1/901 2013/11/27
 26 28  0  0  0  0  0  0  0  0999 V2000
   28.0334   43.4209   54.0205 C   0  0  0  0  0  0  0  0  0  0  0  0
   29.0524   35.3751   54.5650 C   0  0  0  0  0  0  0  0  0  0  0  0
   34.4762   34.4104   57.9250 P   0  0  1  0  0  0  0  0  0  0  0  0
   34.6285   36.7165   59.0850 P   0  0  1  0  0  0  0  0  0  0  0  0
   28.5625   37.8044   53.2504 C   0  0  0  0  0  0  0  0  0  0  0  0
   27.8207   39.7980   54.5872 C   0  0  0  0  0  0  0  0  0  0  0  0
   28.4231   39.2912   53.4529 C   0  0  0  0  0  0  0  0  0  0  0  0
   28.9001   40.1912   52.4984 C   0  0  0  0  0  0  0  0  0  0  0  0
   29.5126   39.7329   51.3416 N   0  0  0  0  0  0  0  0  0  0  0  0
   28.7534   41.4955   52.7121 N   0  0  0  0  0  0  0  0  0  0  0  0
   28.1763   41.9359   53.8112 C   0  0  0  0  0  0  0  0  0  0  0  0
   27.7150   41.1122   54.7318 N   0  0  0  0  0  0  0  0  0  0  0  0
   35.7043   33.6193   57.6851 O   0  0  0  0  0  0  0  0  0  0  0  0
   34.6959   35.6753   60.2250 O   0  0  0  0  0  0  0  0  0  0  0  0
   32.3297   37.3075   53.6338 S   0  0  0  0  0  0  0  0  0  0  0  0
   30.9248   38.1904   53.1200 C   0  0  0  0  0  0  0  0  0  0  0  0
   33.9922   34.2036   59.4451 O   0  0  0  0  0  0  0  0  0  0  0  0
   35.8172   37.7869   59.2624 O   0  5  0  0  0  0  0  0  0  0  0  0
   29.9476   37.4038   53.5077 N   0  0  0  0  0  0  0  0  0  0  0  0
   34.7843   35.9700   57.6669 O   0  0  0  0  0  0  0  0  0  0  0  0
   33.2674   37.4461   59.1362 O   0  0  0  0  0  0  0  0  0  0  0  0
   30.1857   36.2670   54.1247 C   0  0  2  0  0  0  0  0  0  0  0  0
   31.4761   35.9108   54.3497 C   0  0  2  0  0  0  0  0  0  0  0  0
   32.0331   34.6822   55.0198 C   0  0  0  0  0  0  0  0  0  0  0  0
   32.8118   35.0903   56.2724 C   0  0  0  0  0  0  0  0  0  0  0  0
   33.3166   33.9210   56.9205 O   0  0  0  0  0  0  0  0  0  0  0  0
  1 11  1  0  0  0  0
  3 13  1  6  0  0  0
  3 17  1  0  0  0  0
  3 20  1  0  0  0  0
  3 26  1  0  0  0  0
  4 14  1  0  0  0  0
  4 18  1  1  0  0  0
  4 21  2  0  0  0  0
  4 20  1  0  0  0  0
  5 19  1  0  0  0  0
  5  7  1  0  0  0  0
  6  7  2  0  0  0  0
  6 12  1  0  0  0  0
  7  8  1  0  0  0  0
  8  9  1  0  0  0  0
  8 10  2  0  0  0  0
 10 11  1  0  0  0  0
 11 12  2  0  0  0  0
 14 17  1  0  0  0  0
 15 23  1  0  0  0  0
 15 16  1  0  0  0  0
 16 19  1  0  0  0  0
 19 22  1  0  0  0  0
 22  2  1  6  0  0  0
 22 23  1  0  0  0  0
 23 24  1  1  0  0  0
 24 25  1  0  0  0  0
 25 26  1  0  0  0  0
M  CHG  1  18  -1
M  END
>  <CHROM.1>
-38.32647277,-104.12750724,62.22994842,178.86118936,162.68843731,-128.38904825
31.81640705,37.22610552,55.79946447,-2.93955196,0.86745031,-2.64589954

>  <Name>
ligand

>  <RI>
0

>  <Rbt.Current_Directory>
/home/itssahil/PROJECTS/Mol_Feturizer/New_Systems/rnas/2HOL

>  <Rbt.Executable>
rbdock ($Id: //depot/dev/client3/rdock/2013.1/src/exe/rbdock.cxx#4 $)

>  <Rbt.Library>
libRbt.so (2013.1, Build901 2013/11/27)

>  <Rbt.Parameter_File>
/export/apps/rDock/src/rDock_2013.1_src/data/scripts/dock_solv.prm

>  <Rbt.Receptor>
prm/blind_docking_80.prm

>  <SCORE>
-4.83303

>  <SCORE.INTER>
-8.66604

>  <SCORE.INTER.CONST>
1

>  <SCORE.INTER.POLAR>
0

>  <SCORE.INTER.ROT>
6

>  <SCORE.INTER.SOLV>
17.9784

>  <SCORE.INTER.VDW>
-19.3702

>  <SCORE.INTER.norm>
-0.333309

>  <SCORE.INTRA>
1.4147

>  <SCORE.INTRA.DIHEDRAL>
-0.504917

>  <SCORE.INTRA.DIHEDRAL.0>
9.33621

>  <SCORE.INTRA.POLAR>
0

>  <SCORE.INTRA.POLAR.0>
0

>  <SCORE.INTRA.REPUL>
0

>  <SCORE.INTRA.REPUL.0>
0

>  <SCORE.INTRA.SOLV>
1.77292

>  <SCORE.INTRA.SOLV.lig_0>
-65.9238

>  <SCORE.INTRA.VDW>
0.780699

>  <SCORE.INTRA.VDW.0>
-0.405582

>  <SCORE.INTRA.norm>
0.0544115

>  <SCORE.RESTR>
2.4183

>  <SCORE.RESTR.CAVITY>
2.4183

>  <SCORE.RESTR.norm>
0.0930117

>  <SCORE.SYSTEM>
0

>  <SCORE.SYSTEM.CONST>
0

>  <SCORE.SYSTEM.DIHEDRAL>
0

>  <SCORE.SYSTEM.SOLV>
0

>  <SCORE.SYSTEM.norm>
0

>  <SCORE.heavy>
26

>  <SCORE.norm>
-0.185886

>  <RMSD>
14.085

$$$$
ligand
 OpenBabel11021811443D
libRbt.so/2013.1/901 2013/11/27
 26 28  0  0  0  0  0  0  0  0999 V2000
   28.6741   41.6015   52.5884 C   0  0  0  0  0  0  0  0  0  0  0  0
   29.9281   33.7101   55.1192 C   0  0  0  0  0  0  0  0  0  0  0  0
   34.0187   35.9314   59.1071 P   0  0  1  0  0  0  0  0  0  0  0  0
   36.5477   35.4242   59.2898 P   0  0  1  0  0  0  0  0  0  0  0  0
   29.4949   36.0718   53.6686 C   0  0  0  0  0  0  0  0  0  0  0  0
   29.8234   38.1280   52.2629 C   0  0  0  0  0  0  0  0  0  0  0  0
   29.2769   37.5356   53.3840 C   0  0  0  0  0  0  0  0  0  0  0  0
   28.5169   38.3269   54.2470 C   0  0  0  0  0  0  0  0  0  0  0  0
   27.9468   37.7798   55.3868 N   0  0  0  0  0  0  0  0  0  0  0  0
   28.3521   39.6155   53.9631 N   0  0  0  0  0  0  0  0  0  0  0  0
   28.8878   40.1390   52.8795 C   0  0  0  0  0  0  0  0  0  0  0  0
   29.6110   39.4189   52.0444 N   0  0  0  0  0  0  0  0  0  0  0  0
   33.3716   36.8343   60.0857 O   0  0  0  0  0  0  0  0  0  0  0  0
   36.4518   36.8038   58.6002 O   0  0  0  0  0  0  0  0  0  0  0  0
   32.9594   36.1861   55.2715 S   0  0  0  0  0  0  0  0  0  0  0  0
   31.6716   36.8445   54.3095 C   0  0  0  0  0  0  0  0  0  0  0  0
   34.7552   36.8052   57.9750 O   0  0  0  0  0  0  0  0  0  0  0  0
   37.6044   35.5000   60.5014 O   0  5  0  0  0  0  0  0  0  0  0  0
   30.7671   35.8949   54.3722 N   0  0  0  0  0  0  0  0  0  0  0  0
   35.1013   35.0093   59.8629 O   0  0  0  0  0  0  0  0  0  0  0  0
   37.0170   34.3689   58.2633 O   0  0  0  0  0  0  0  0  0  0  0  0
   30.9775   34.7911   55.0557 C   0  0  2  0  0  0  0  0  0  0  0  0
   32.1648   34.6435   55.6969 C   0  0  2  0  0  0  0  0  0  0  0  0
   32.6701   33.4996   56.5366 C   0  0  0  0  0  0  0  0  0  0  0  0
   33.6030   34.0358   57.6248 C   0  0  0  0  0  0  0  0  0  0  0  0
   32.9033   34.9939   58.4214 O   0  0  0  0  0  0  0  0  0  0  0  0
  1 11  1  0  0  0  0
  3 13  1  1  0  0  0
  3 17  1  0  0  0  0
  3 20  1  0  0  0  0
  3 26  1  0  0  0  0
  4 14  1  0  0  0  0
  4 18  1  1  0  0  0
  4 21  2  0  0  0  0
  4 20  1  0  0  0  0
  5 19  1  0  0  0  0
  5  7  1  0  0  0  0
  6  7  2  0  0  0  0
  6 12  1  0  0  0  0
  7  8  1  0  0  0  0
  8  9  1  0  0  0  0
  8 10  2  0  0  0  0
 10 11  1  0  0  0  0
 11 12  2  0  0  0  0
 14 17  1  0  0  0  0
 15 23  1  0  0  0  0
 15 16  1  0  0  0  0
 16 19  1  0  0  0  0
 19 22  1  0  0  0  0
 22  2  1  6  0  0  0
 22 23  1  0  0  0  0
 23 24  1  1  0  0  0
 24 25  1  0  0  0  0
 25 26  1  0  0  0  0
M  CHG  1  18  -1
M  END
>  <CHROM.1>
-19.66212029,84.81822089,31.42247183,57.75471053,-157.30366669,-172.63711728
32.50229675,36.40693395,56.40586364,-2.76135354,0.70574336,3.08031702

>  <Name>
ligand

>  <RI>
0

>  <Rbt.Current_Directory>
/home/itssahil/PROJECTS/Mol_Feturizer/New_Systems/rnas/2HOL

>  <Rbt.Executable>
rbdock ($Id: //depot/dev/client3/rdock/2013.1/src/exe/rbdock.cxx#4 $)

>  <Rbt.Library>
libRbt.so (2013.1, Build901 2013/11/27)

>  <Rbt.Parameter_File>
/export/apps/rDock/src/rDock_2013.1_src/data/scripts/dock_solv.prm

>  <Rbt.Receptor>
prm/blind_docking_80.prm

>  <SCORE>
9.78667

>  <SCORE.INTER>
11.226

>  <SCORE.INTER.CONST>
1

>  <SCORE.INTER.POLAR>
0

>  <SCORE.INTER.ROT>
6

>  <SCORE.INTER.SOLV>
28.4448

>  <SCORE.INTER.VDW>
-9.59758

>  <SCORE.INTER.norm>
0.43177

>  <SCORE.INTRA>
-1.88864

>  <SCORE.INTRA.DIHEDRAL>
-2.0735

>  <SCORE.INTRA.DIHEDRAL.0>
9.33621

>  <SCORE.INTRA.POLAR>
0

>  <SCORE.INTRA.POLAR.0>
0

>  <SCORE.INTRA.REPUL>
0

>  <SCORE.INTRA.REPUL.0>
0

>  <SCORE.INTRA.SOLV>
1.03111

>  <SCORE.INTRA.SOLV.lig_0>
-65.9238

>  <SCORE.INTRA.VDW>
-1.36745

>  <SCORE.INTRA.VDW.0>
-0.405582

>  <SCORE.INTRA.norm>
-0.0726401

>  <SCORE.RESTR>
0.449286

>  <SCORE.RESTR.CAVITY>
0.449286

>  <SCORE.RESTR.norm>
0.0172802

>  <SCORE.SYSTEM>
0

>  <SCORE.SYSTEM.CONST>
0

>  <SCORE.SYSTEM.DIHEDRAL>
0

>  <SCORE.SYSTEM.SOLV>
0

>  <SCORE.SYSTEM.norm>
0

>  <SCORE.heavy>
26

>  <SCORE.norm>
0.376411

>  <RMSD>
14.088

$$$$
ligand
 OpenBabel11021811443D
libRbt.so/2013.1/901 2013/11/27
 26 28  0  0  0  0  0  0  0  0999 V2000
   28.2952   40.3691   52.7130 C   0  0  0  0  0  0  0  0  0  0  0  0
   30.3970   33.5956   55.8047 C   0  0  0  0  0  0  0  0  0  0  0  0
   34.8527   36.3811   59.8001 P   0  0  1  0  0  0  0  0  0  0  0  0
   37.2005   35.9095   60.7760 P   0  0  1  0  0  0  0  0  0  0  0  0
   30.7448   35.3082   53.6103 C   0  0  0  0  0  0  0  0  0  0  0  0
   29.0345   37.0688   54.1460 C   0  0  0  0  0  0  0  0  0  0  0  0
   30.0973   36.6480   53.3716 C   0  0  0  0  0  0  0  0  0  0  0  0
   30.5572   37.4953   52.3621 C   0  0  0  0  0  0  0  0  0  0  0  0
   31.6215   37.1189   51.5564 N   0  0  0  0  0  0  0  0  0  0  0  0
   29.9557   38.6672   52.1802 N   0  0  0  0  0  0  0  0  0  0  0  0
   28.9474   39.0312   52.9456 C   0  0  0  0  0  0  0  0  0  0  0  0
   28.4890   38.2540   53.9073 N   0  0  0  0  0  0  0  0  0  0  0  0
   33.8222   37.0395   60.6345 O   0  0  0  0  0  0  0  0  0  0  0  0
   37.2127   37.4012   60.3726 O   0  0  0  0  0  0  0  0  0  0  0  0
   33.4369   36.0302   56.2211 S   0  0  0  0  0  0  0  0  0  0  0  0
   32.6373   36.2946   54.7019 C   0  0  0  0  0  0  0  0  0  0  0  0
   35.8445   37.4932   59.1941 O   0  0  0  0  0  0  0  0  0  0  0  0
   37.7616   35.7527   62.2763 O   0  5  0  0  0  0  0  0  0  0  0  0
   31.6704   35.4072   54.7409 N   0  0  0  0  0  0  0  0  0  0  0  0
   35.6936   35.3467   60.7038 O   0  0  0  0  0  0  0  0  0  0  0  0
   38.0965   35.1080   59.8053 O   0  0  0  0  0  0  0  0  0  0  0  0
   31.5133   34.6087   55.7742 C   0  0  2  0  0  0  0  0  0  0  0  0
   32.3843   34.7123   56.8102 C   0  0  2  0  0  0  0  0  0  0  0  0
   32.4442   33.9353   58.0992 C   0  0  0  0  0  0  0  0  0  0  0  0
   33.1062   34.7899   59.1823 C   0  0  0  0  0  0  0  0  0  0  0  0
   34.1405   35.5830   58.5964 O   0  0  0  0  0  0  0  0  0  0  0  0
  1 11  1  0  0  0  0
  3 13  1  1  0  0  0
  3 17  1  0  0  0  0
  3 20  1  0  0  0  0
  3 26  1  0  0  0  0
  4 14  1  0  0  0  0
  4 18  1  1  0  0  0
  4 21  2  0  0  0  0
  4 20  1  0  0  0  0
  5 19  1  0  0  0  0
  5  7  1  0  0  0  0
  6  7  2  0  0  0  0
  6 12  1  0  0  0  0
  7  8  1  0  0  0  0
  8  9  1  0  0  0  0
  8 10  2  0  0  0  0
 10 11  1  0  0  0  0
 11 12  2  0  0  0  0
 14 17  1  0  0  0  0
 15 23  1  0  0  0  0
 15 16  1  0  0  0  0
 16 19  1  0  0  0  0
 19 22  1  0  0  0  0
 22  2  1  6  0  0  0
 22 23  1  0  0  0  0
 23 24  1  1  0  0  0
 24 25  1  0  0  0  0
 25 26  1  0  0  0  0
M  CHG  1  18  -1
M  END
>  <CHROM.1>
-56.66910834,-80.16564337,26.67357922,-35.89466379,-176.44830089,-49.64093421
33.15528695,36.32062856,57.02512560,-2.80169324,0.79510048,2.88608131

>  <Name>
ligand

>  <RI>
0

>  <Rbt.Current_Directory>
/home/itssahil/PROJECTS/Mol_Feturizer/New_Systems/rnas/2HOL

>  <Rbt.Executable>
rbdock ($Id: //depot/dev/client3/rdock/2013.1/src/exe/rbdock.cxx#4 $)

>  <Rbt.Library>
libRbt.so (2013.1, Build901 2013/11/27)

>  <Rbt.Parameter_File>
/export/apps/rDock/src/rDock_2013.1_src/data/scripts/dock_solv.prm

>  <Rbt.Receptor>
prm/blind_docking_80.prm

>  <SCORE>
6.06041

>  <SCORE.INTER>
1.79381

>  <SCORE.INTER.CONST>
1

>  <SCORE.INTER.POLAR>
0

>  <SCORE.INTER.ROT>
6

>  <SCORE.INTER.SOLV>
19.023

>  <SCORE.INTER.VDW>
-12.7451

>  <SCORE.INTER.norm>
0.0689927

>  <SCORE.INTRA>
1.38487

>  <SCORE.INTRA.DIHEDRAL>
-2.36169

>  <SCORE.INTRA.DIHEDRAL.0>
9.33621

>  <SCORE.INTRA.POLAR>
0

>  <SCORE.INTRA.POLAR.0>
0

>  <SCORE.INTRA.REPUL>
0

>  <SCORE.INTRA.REPUL.0>
0

>  <SCORE.INTRA.SOLV>
0.581166

>  <SCORE.INTRA.SOLV.lig_0>
-65.9238

>  <SCORE.INTRA.VDW>
2.27513

>  <SCORE.INTRA.VDW.0>
-0.405582

>  <SCORE.INTRA.norm>
0.0532642

>  <SCORE.RESTR>
2.88174

>  <SCORE.RESTR.CAVITY>
2.88174

>  <SCORE.RESTR.norm>
0.110836

>  <SCORE.SYSTEM>
0

>  <SCORE.SYSTEM.CONST>
0

>  <SCORE.SYSTEM.DIHEDRAL>
0

>  <SCORE.SYSTEM.SOLV>
0

>  <SCORE.SYSTEM.norm>
0

>  <SCORE.heavy>
26

>  <SCORE.norm>
0.233093

>  <RMSD>
14.178

$$$$
ligand
 OpenBabel11021811443D
libRbt.so/2013.1/901 2013/11/27
 26 28  0  0  0  0  0  0  0  0999 V2000
   28.3898   40.1424   52.8496 C   0  0  0  0  0  0  0  0  0  0  0  0
   30.5588   33.5873   55.9220 C   0  0  0  0  0  0  0  0  0  0  0  0
   35.9095   34.4798   58.2510 P   0  0  1  0  0  0  0  0  0  0  0  0
   36.6225   36.1378   60.1028 P   0  0  1  0  0  0  0  0  0  0  0  0
   31.1696   35.2559   53.7512 C   0  0  0  0  0  0  0  0  0  0  0  0
   29.2925   36.8575   54.2232 C   0  0  0  0  0  0  0  0  0  0  0  0
   30.4348   36.5496   53.5115 C   0  0  0  0  0  0  0  0  0  0  0  0
   30.8921   37.4674   52.5643 C   0  0  0  0  0  0  0  0  0  0  0  0
   32.0345   37.2051   51.8228 N   0  0  0  0  0  0  0  0  0  0  0  0
   30.2126   38.5953   52.3790 N   0  0  0  0  0  0  0  0  0  0  0  0
   29.1296   38.8512   53.0837 C   0  0  0  0  0  0  0  0  0  0  0  0
   28.6714   38.0052   53.9856 N   0  0  0  0  0  0  0  0  0  0  0  0
   36.2111   34.7787   56.8327 O   0  0  0  0  0  0  0  0  0  0  0  0
   37.8952   35.3322   59.7573 O   0  0  0  0  0  0  0  0  0  0  0  0
   33.5645   35.9962   56.6324 S   0  0  0  0  0  0  0  0  0  0  0  0
   32.9418   36.2414   55.0295 C   0  0  0  0  0  0  0  0  0  0  0  0
   37.2144   33.8598   58.9586 O   0  0  0  0  0  0  0  0  0  0  0  0
   36.9648   37.7105   60.1049 O   0  5  0  0  0  0  0  0  0  0  0  0
   31.9653   35.3654   54.9758 N   0  0  0  0  0  0  0  0  0  0  0  0
   35.4829   35.8369   59.0058 O   0  0  0  0  0  0  0  0  0  0  0  0
   36.1145   35.7201   61.5010 O   0  0  0  0  0  0  0  0  0  0  0  0
   31.6845   34.5877   55.9986 C   0  0  2  0  0  0  0  0  0  0  0  0
   32.4364   34.7006   57.1231 C   0  0  2  0  0  0  0  0  0  0  0  0
   32.3431   33.9466   58.4237 C   0  0  0  0  0  0  0  0  0  0  0  0
   33.6883   34.0103   59.1505 C   0  0  0  0  0  0  0  0  0  0  0  0
   34.6998   33.4201   58.3315 O   0  0  0  0  0  0  0  0  0  0  0  0
  1 11  1  0  0  0  0
  3 13  1  6  0  0  0
  3 17  1  0  0  0  0
  3 20  1  0  0  0  0
  3 26  1  0  0  0  0
  4 14  1  0  0  0  0
  4 18  1  1  0  0  0
  4 21  2  0  0  0  0
  4 20  1  0  0  0  0
  5 19  1  0  0  0  0
  5  7  1  0  0  0  0
  6  7  2  0  0  0  0
  6 12  1  0  0  0  0
  7  8  1  0  0  0  0
  8  9  1  0  0  0  0
  8 10  2  0  0  0  0
 10 11  1  0  0  0  0
 11 12  2  0  0  0  0
 14 17  1  0  0  0  0
 15 23  1  0  0  0  0
 15 16  1  0  0  0  0
 16 19  1  0  0  0  0
 19 22  1  0  0  0  0
 22  2  1  6  0  0  0
 22 23  1  0  0  0  0
 23 24  1  1  0  0  0
 24 25  1  0  0  0  0
 25 26  1  0  0  0  0
M  CHG  1  18  -1
M  END
>  <CHROM.1>
-63.54309182,-77.91824065,-22.62702650,-60.06854109,128.98068264,-124.67429298
33.40258274,35.86128193,56.71139449,-2.70603813,0.69919112,2.87502084

>  <Name>
ligand

>  <RI>
0

>  <Rbt.Current_Directory>
/home/itssahil/PROJECTS/Mol_Feturizer/New_Systems/rnas/2HOL

>  <Rbt.Executable>
rbdock ($Id: //depot/dev/client3/rdock/2013.1/src/exe/rbdock.cxx#4 $)

>  <Rbt.Library>
libRbt.so (2013.1, Build901 2013/11/27)

>  <Rbt.Parameter_File>
/export/apps/rDock/src/rDock_2013.1_src/data/scripts/dock_solv.prm

>  <Rbt.Receptor>
prm/blind_docking_80.prm

>  <SCORE>
-1.77501

>  <SCORE.INTER>
-5.60682

>  <SCORE.INTER.CONST>
1

>  <SCORE.INTER.POLAR>
0

>  <SCORE.INTER.ROT>
6

>  <SCORE.INTER.SOLV>
15.9485

>  <SCORE.INTER.VDW>
-16.654

>  <SCORE.INTER.norm>
-0.215647

>  <SCORE.INTRA>
2.45288

>  <SCORE.INTRA.DIHEDRAL>
4.57074

>  <SCORE.INTRA.DIHEDRAL.0>
9.33621

>  <SCORE.INTRA.POLAR>
0

>  <SCORE.INTRA.POLAR.0>
0

>  <SCORE.INTRA.REPUL>
0

>  <SCORE.INTRA.REPUL.0>
0

>  <SCORE.INTRA.SOLV>
1.67631

>  <SCORE.INTRA.SOLV.lig_0>
-65.9238

>  <SCORE.INTRA.VDW>
-0.67065

>  <SCORE.INTRA.VDW.0>
-0.405582

>  <SCORE.INTRA.norm>
0.0943414

>  <SCORE.RESTR>
1.37894

>  <SCORE.RESTR.CAVITY>
1.37894

>  <SCORE.RESTR.norm>
0.0530361

>  <SCORE.SYSTEM>
0

>  <SCORE.SYSTEM.CONST>
0

>  <SCORE.SYSTEM.DIHEDRAL>
0

>  <SCORE.SYSTEM.SOLV>
0

>  <SCORE.SYSTEM.norm>
0

>  <SCORE.heavy>
26

>  <SCORE.norm>
-0.0682696

>  <RMSD>
14.617

$$$$
ligand
 OpenBabel11021811443D
libRbt.so/2013.1/901 2013/11/27
 26 28  0  0  0  0  0  0  0  0999 V2000
   35.0868   39.8948   60.2802 C   0  0  0  0  0  0  0  0  0  0  0  0
   30.5038   33.8130   58.3571 C   0  0  0  0  0  0  0  0  0  0  0  0
   29.0958   37.3000   54.3007 P   0  0  1  0  0  0  0  0  0  0  0  0
   31.3179   37.6639   53.0292 P   0  0  1  0  0  0  0  0  0  0  0  0
   33.0842   34.7293   58.9666 C   0  0  0  0  0  0  0  0  0  0  0  0
   32.7802   37.0742   59.8155 C   0  0  0  0  0  0  0  0  0  0  0  0
   33.6156   36.0961   59.3138 C   0  0  0  0  0  0  0  0  0  0  0  0
   34.9653   36.4054   59.1366 C   0  0  0  0  0  0  0  0  0  0  0  0
   35.8455   35.4581   58.6353 N   0  0  0  0  0  0  0  0  0  0  0  0
   35.3939   37.6245   59.4503 N   0  0  0  0  0  0  0  0  0  0  0  0
   34.5628   38.5263   59.9309 C   0  0  0  0  0  0  0  0  0  0  0  0
   33.2824   38.2660   60.1098 N   0  0  0  0  0  0  0  0  0  0  0  0
   28.4673   38.4241   55.0307 O   0  0  0  0  0  0  0  0  0  0  0  0
   30.2143   38.2146   52.0982 O   0  0  0  0  0  0  0  0  0  0  0  0
   32.5273   34.9259   55.1934 S   0  0  0  0  0  0  0  0  0  0  0  0
   33.4746   35.1282   56.6354 C   0  0  0  0  0  0  0  0  0  0  0  0
   28.7303   37.4032   52.7375 O   0  0  0  0  0  0  0  0  0  0  0  0
   32.5010   38.7471   53.1612 O   0  5  0  0  0  0  0  0  0  0  0  0
   32.6484   34.7150   57.5684 N   0  0  0  0  0  0  0  0  0  0  0  0
   30.6943   37.3686   54.4841 O   0  0  0  0  0  0  0  0  0  0  0  0
   31.8835   36.3541   52.4359 O   0  0  0  0  0  0  0  0  0  0  0  0
   31.4406   34.2856   57.2742 C   0  0  2  0  0  0  0  0  0  0  0  0
   31.0533   34.2846   55.9732 C   0  0  2  0  0  0  0  0  0  0  0  0
   29.7464   33.8579   55.3578 C   0  0  0  0  0  0  0  0  0  0  0  0
   29.3296   34.8692   54.2875 C   0  0  0  0  0  0  0  0  0  0  0  0
   28.5494   35.9043   54.8893 O   0  0  0  0  0  0  0  0  0  0  0  0
  1 11  1  0  0  0  0
  3 13  1  1  0  0  0
  3 17  1  0  0  0  0
  3 20  1  0  0  0  0
  3 26  1  0  0  0  0
  4 14  1  0  0  0  0
  4 18  1  1  0  0  0
  4 21  2  0  0  0  0
  4 20  1  0  0  0  0
  5 19  1  0  0  0  0
  5  7  1  0  0  0  0
  6  7  2  0  0  0  0
  6 12  1  0  0  0  0
  7  8  1  0  0  0  0
  8  9  1  0  0  0  0
  8 10  2  0  0  0  0
 10 11  1  0  0  0  0
 11 12  2  0  0  0  0
 14 17  1  0  0  0  0
 15 23  1  0  0  0  0
 15 16  1  0  0  0  0
 16 19  1  0  0  0  0
 19 22  1  0  0  0  0
 22  2  1  1  0  0  0
 22 23  1  0  0  0  0
 23 24  1  6  0  0  0
 24 25  1  0  0  0  0
 25 26  1  0  0  0  0
M  CHG  1  18  -1
M  END
>  <CHROM.1>
52.00581849,90.18669015,-42.78755789,-89.03691019,135.13985592,-171.70278636
31.74122657,36.50800086,56.05060161,-0.45977747,-0.84245679,-0.56790009

>  <Name>
ligand

>  <RI>
0

>  <Rbt.Current_Directory>
/home/itssahil/PROJECTS/Mol_Feturizer/New_Systems/rnas/2HOL

>  <Rbt.Executable>
rbdock ($Id: //depot/dev/client3/rdock/2013.1/src/exe/rbdock.cxx#4 $)

>  <Rbt.Library>
libRbt.so (2013.1, Build901 2013/11/27)

>  <Rbt.Parameter_File>
/export/apps/rDock/src/rDock_2013.1_src/data/scripts/dock_solv.prm

>  <Rbt.Receptor>
prm/blind_docking_80.prm

>  <SCORE>
41.4032

>  <SCORE.INTER>
38.9018

>  <SCORE.INTER.CONST>
1

>  <SCORE.INTER.POLAR>
0

>  <SCORE.INTER.ROT>
6

>  <SCORE.INTER.SOLV>
28.5803

>  <SCORE.INTER.VDW>
8.80778

>  <SCORE.INTER.norm>
1.49622

>  <SCORE.INTRA>
0.0633641

>  <SCORE.INTRA.DIHEDRAL>
4.55682

>  <SCORE.INTRA.DIHEDRAL.0>
9.33621

>  <SCORE.INTRA.POLAR>
0

>  <SCORE.INTRA.POLAR.0>
0

>  <SCORE.INTRA.REPUL>
0

>  <SCORE.INTRA.REPUL.0>
0

>  <SCORE.INTRA.SOLV>
2.21337

>  <SCORE.INTRA.SOLV.lig_0>
-65.9238

>  <SCORE.INTRA.VDW>
-3.32173

>  <SCORE.INTRA.VDW.0>
-0.405582

>  <SCORE.INTRA.norm>
0.00243708

>  <SCORE.RESTR>
2.438

>  <SCORE.RESTR.CAVITY>
2.438

>  <SCORE.RESTR.norm>
0.0937694

>  <SCORE.SYSTEM>
0

>  <SCORE.SYSTEM.CONST>
0

>  <SCORE.SYSTEM.DIHEDRAL>
0

>  <SCORE.SYSTEM.SOLV>
0

>  <SCORE.SYSTEM.norm>
0

>  <SCORE.heavy>
26

>  <SCORE.norm>
1.59243

>  <RMSD>
15.295

$$$$
ligand
 OpenBabel11021811443D
libRbt.so/2013.1/901 2013/11/27
 26 28  0  0  0  0  0  0  0  0999 V2000
   35.1666   36.0101   59.6391 C   0  0  0  0  0  0  0  0  0  0  0  0
   29.3116   35.2982   54.4428 C   0  0  0  0  0  0  0  0  0  0  0  0
   27.2473   40.8044   54.7944 P   0  0  1  0  0  0  0  0  0  0  0  0
   25.2947   41.3680   56.3933 P   0  0  1  0  0  0  0  0  0  0  0  0
   31.9869   34.7522   55.0865 C   0  0  0  0  0  0  0  0  0  0  0  0
   32.8869   36.3731   56.7819 C   0  0  0  0  0  0  0  0  0  0  0  0
   32.8290   35.0837   56.2916 C   0  0  0  0  0  0  0  0  0  0  0  0
   33.5701   34.0947   56.9407 C   0  0  0  0  0  0  0  0  0  0  0  0
   33.5463   32.7843   56.4871 N   0  0  0  0  0  0  0  0  0  0  0  0
   34.3045   34.4289   57.9977 N   0  0  0  0  0  0  0  0  0  0  0  0
   34.3271   35.6712   58.4350 C   0  0  0  0  0  0  0  0  0  0  0  0
   33.6388   36.6284   57.8443 N   0  0  0  0  0  0  0  0  0  0  0  0
   27.4233   41.5718   53.5407 O   0  0  0  0  0  0  0  0  0  0  0  0
   26.3862   42.4218   56.6867 O   0  0  0  0  0  0  0  0  0  0  0  0
   31.7873   38.0702   53.2061 S   0  0  0  0  0  0  0  0  0  0  0  0
   32.6424   36.7980   54.0232 C   0  0  0  0  0  0  0  0  0  0  0  0
   27.8719   41.6329   56.0237 O   0  0  0  0  0  0  0  0  0  0  0  0
   23.8775   42.1030   56.1893 O   0  5  0  0  0  0  0  0  0  0  0  0
   31.6695   35.9827   54.3586 N   0  0  0  0  0  0  0  0  0  0  0  0
   25.6775   40.5573   55.0557 O   0  0  0  0  0  0  0  0  0  0  0  0
   25.1979   40.3848   57.5814 O   0  0  0  0  0  0  0  0  0  0  0  0
   30.4178   36.2454   54.0518 C   0  0  2  0  0  0  0  0  0  0  0  0
   30.1432   37.3932   53.3812 C   0  0  2  0  0  0  0  0  0  0  0  0
   28.8211   37.9415   52.9119 C   0  0  0  0  0  0  0  0  0  0  0  0
   28.6617   39.3830   53.4007 C   0  0  0  0  0  0  0  0  0  0  0  0
   27.9979   39.3855   54.6661 O   0  0  0  0  0  0  0  0  0  0  0  0
  1 11  1  0  0  0  0
  3 13  1  6  0  0  0
  3 17  1  0  0  0  0
  3 20  1  0  0  0  0
  3 26  1  0  0  0  0
  4 14  1  0  0  0  0
  4 18  1  6  0  0  0
  4 21  2  0  0  0  0
  4 20  1  0  0  0  0
  5 19  1  0  0  0  0
  5  7  1  0  0  0  0
  6  7  2  0  0  0  0
  6 12  1  0  0  0  0
  7  8  1  0  0  0  0
  8  9  1  0  0  0  0
  8 10  2  0  0  0  0
 10 11  1  0  0  0  0
 11 12  2  0  0  0  0
 14 17  1  0  0  0  0
 15 23  1  0  0  0  0
 15 16  1  0  0  0  0
 16 19  1  0  0  0  0
 19 22  1  0  0  0  0
 22  2  1  1  0  0  0
 22 23  1  0  0  0  0
 23 24  1  6  0  0  0
 24 25  1  0  0  0  0
 25 26  1  0  0  0  0
M  CHG  1  18  -1
M  END
>  <CHROM.1>
51.75170108,17.87958696,-52.23726208,-91.35633121,-153.48190963,3.70933562
29.67341340,38.25351784,55.52270592,0.00313990,-0.69422944,1.41259712

>  <Name>
ligand

>  <RI>
0

>  <Rbt.Current_Directory>
/home/itssahil/PROJECTS/Mol_Feturizer/New_Systems/rnas/2HOL

>  <Rbt.Executable>
rbdock ($Id: //depot/dev/client3/rdock/2013.1/src/exe/rbdock.cxx#4 $)

>  <Rbt.Library>
libRbt.so (2013.1, Build901 2013/11/27)

>  <Rbt.Parameter_File>
/export/apps/rDock/src/rDock_2013.1_src/data/scripts/dock_solv.prm

>  <Rbt.Receptor>
prm/blind_docking_80.prm

>  <SCORE>
-0.766505

>  <SCORE.INTER>
-4.6185

>  <SCORE.INTER.CONST>
1

>  <SCORE.INTER.POLAR>
0

>  <SCORE.INTER.ROT>
6

>  <SCORE.INTER.SOLV>
37.0173

>  <SCORE.INTER.VDW>
-23.0181

>  <SCORE.INTER.norm>
-0.177635

>  <SCORE.INTRA>
3.78664

>  <SCORE.INTRA.DIHEDRAL>
4.07258

>  <SCORE.INTRA.DIHEDRAL.0>
9.33621

>  <SCORE.INTRA.POLAR>
0

>  <SCORE.INTRA.POLAR.0>
0

>  <SCORE.INTRA.REPUL>
0

>  <SCORE.INTRA.REPUL.0>
0

>  <SCORE.INTRA.SOLV>
-0.528631

>  <SCORE.INTRA.SOLV.lig_0>
-65.9238

>  <SCORE.INTRA.VDW>
2.01466

>  <SCORE.INTRA.VDW.0>
-0.405582

>  <SCORE.INTRA.norm>
0.14564

>  <SCORE.RESTR>
0.0653539

>  <SCORE.RESTR.CAVITY>
0.0653539

>  <SCORE.RESTR.norm>
0.00251361

>  <SCORE.SYSTEM>
0

>  <SCORE.SYSTEM.CONST>
0

>  <SCORE.SYSTEM.DIHEDRAL>
0

>  <SCORE.SYSTEM.SOLV>
0

>  <SCORE.SYSTEM.norm>
0

>  <SCORE.heavy>
26

>  <SCORE.norm>
-0.029481

>  <RMSD>
15.538

$$$$
ligand
 OpenBabel11021811443D
libRbt.so/2013.1/901 2013/11/27
 26 28  0  0  0  0  0  0  0  0999 V2000
   38.0059   37.4419   59.5469 C   0  0  0  0  0  0  0  0  0  0  0  0
   30.4445   33.8442   58.3327 C   0  0  0  0  0  0  0  0  0  0  0  0
   29.1271   37.2789   54.2907 P   0  0  1  0  0  0  0  0  0  0  0  0
   31.3656   37.6811   53.0603 P   0  0  1  0  0  0  0  0  0  0  0  0
   32.9928   34.7943   59.0208 C   0  0  0  0  0  0  0  0  0  0  0  0
   34.5511   36.7053   58.5399 C   0  0  0  0  0  0  0  0  0  0  0  0
   34.3202   35.4939   59.1609 C   0  0  0  0  0  0  0  0  0  0  0  0
   35.3475   34.9338   59.9221 C   0  0  0  0  0  0  0  0  0  0  0  0
   35.1660   33.7186   60.5654 N   0  0  0  0  0  0  0  0  0  0  0  0
   36.5058   35.5801   60.0168 N   0  0  0  0  0  0  0  0  0  0  0  0
   36.6817   36.7367   59.4114 C   0  0  0  0  0  0  0  0  0  0  0  0
   35.7316   37.2923   58.6849 N   0  0  0  0  0  0  0  0  0  0  0  0
   28.4758   38.3871   55.0250 O   0  0  0  0  0  0  0  0  0  0  0  0
   30.2716   38.2332   52.1187 O   0  0  0  0  0  0  0  0  0  0  0  0
   32.5746   34.9206   55.2268 S   0  0  0  0  0  0  0  0  0  0  0  0
   33.4660   35.1563   56.6990 C   0  0  0  0  0  0  0  0  0  0  0  0
   28.7857   37.3991   52.7233 O   0  0  0  0  0  0  0  0  0  0  0  0
   32.5356   38.7739   53.2255 O   0  5  0  0  0  0  0  0  0  0  0  0
   32.6093   34.7519   57.6080 N   0  0  0  0  0  0  0  0  0  0  0  0
   30.7217   37.3606   54.5009 O   0  0  0  0  0  0  0  0  0  0  0  0
   31.9536   36.3848   52.4592 O   0  0  0  0  0  0  0  0  0  0  0  0
   31.4169   34.3065   57.2769 C   0  0  2  0  0  0  0  0  0  0  0  0
   31.0781   34.2796   55.9628 C   0  0  2  0  0  0  0  0  0  0  0  0
   29.7985   33.8305   55.3072 C   0  0  0  0  0  0  0  0  0  0  0  0
   29.3814   34.8506   54.2453 C   0  0  0  0  0  0  0  0  0  0  0  0
   28.5852   35.8703   54.8522 O   0  0  0  0  0  0  0  0  0  0  0  0
  1 11  1  0  0  0  0
  3 13  1  1  0  0  0
  3 17  1  0  0  0  0
  3 20  1  0  0  0  0
  3 26  1  0  0  0  0
  4 14  1  0  0  0  0
  4 18  1  1  0  0  0
  4 21  2  0  0  0  0
  4 20  1  0  0  0  0
  5 19  1  0  0  0  0
  5  7  1  0  0  0  0
  6  7  2  0  0  0  0
  6 12  1  0  0  0  0
  7  8  1  0  0  0  0
  8  9  1  0  0  0  0
  8 10  2  0  0  0  0
 10 11  1  0  0  0  0
 11 12  2  0  0  0  0
 14 17  1  0  0  0  0
 15 23  1  0  0  0  0
 15 16  1  0  0  0  0
 16 19  1  0  0  0  0
 19 22  1  0  0  0  0
 22  2  1  1  0  0  0
 22 23  1  0  0  0  0
 23 24  1  6  0  0  0
 24 25  1  0  0  0  0
 25 26  1  0  0  0  0
M  CHG  1  18  -1
M  END
>  <CHROM.1>
7.17337161,48.54028715,-45.18733167,-87.69912724,134.89397900,-171.94666364
32.10285827,36.14225763,56.03421816,-0.69224343,-0.47028779,-0.82735097

>  <Name>
ligand

>  <RI>
0

>  <Rbt.Current_Directory>
/home/itssahil/PROJECTS/Mol_Feturizer/New_Systems/rnas/2HOL

>  <Rbt.Executable>
rbdock ($Id: //depot/dev/client3/rdock/2013.1/src/exe/rbdock.cxx#4 $)

>  <Rbt.Library>
libRbt.so (2013.1, Build901 2013/11/27)

>  <Rbt.Parameter_File>
/export/apps/rDock/src/rDock_2013.1_src/data/scripts/dock_solv.prm

>  <Rbt.Receptor>
prm/blind_docking_80.prm

>  <SCORE>
43.2569

>  <SCORE.INTER>
39.3142

>  <SCORE.INTER.CONST>
1

>  <SCORE.INTER.POLAR>
0

>  <SCORE.INTER.ROT>
6

>  <SCORE.INTER.SOLV>
28.7537

>  <SCORE.INTER.VDW>
9.02486

>  <SCORE.INTER.norm>
1.51208

>  <SCORE.INTRA>
2.04828

>  <SCORE.INTRA.DIHEDRAL>
4.41879

>  <SCORE.INTRA.DIHEDRAL.0>
9.33621

>  <SCORE.INTRA.POLAR>
0

>  <SCORE.INTRA.POLAR.0>
0

>  <SCORE.INTRA.REPUL>
0

>  <SCORE.INTRA.REPUL.0>
0

>  <SCORE.INTRA.SOLV>
0.997034

>  <SCORE.INTRA.SOLV.lig_0>
-65.9238

>  <SCORE.INTRA.VDW>
-0.659632

>  <SCORE.INTRA.VDW.0>
-0.405582

>  <SCORE.INTRA.norm>
0.07878

>  <SCORE.RESTR>
1.89446

>  <SCORE.RESTR.CAVITY>
1.89446

>  <SCORE.RESTR.norm>
0.0728637

>  <SCORE.SYSTEM>
0

>  <SCORE.SYSTEM.CONST>
0

>  <SCORE.SYSTEM.DIHEDRAL>
0

>  <SCORE.SYSTEM.SOLV>
0

>  <SCORE.SYSTEM.norm>
0

>  <SCORE.heavy>
26

>  <SCORE.norm>
1.66373

>  <RMSD>
15.864

$$$$
ligand
 OpenBabel11021811443D
libRbt.so/2013.1/901 2013/11/27
 26 28  0  0  0  0  0  0  0  0999 V2000
   38.3011   36.0704   59.5011 C   0  0  0  0  0  0  0  0  0  0  0  0
   31.0314   33.5110   56.1945 C   0  0  0  0  0  0  0  0  0  0  0  0
   29.3312   37.6912   53.9419 P   0  0  1  0  0  0  0  0  0  0  0  0
   31.2267   38.3843   52.3253 P   0  0  1  0  0  0  0  0  0  0  0  0
   33.0803   34.5888   57.7787 C   0  0  0  0  0  0  0  0  0  0  0  0
   34.7392   36.2740   58.6272 C   0  0  0  0  0  0  0  0  0  0  0  0
   34.4627   34.9796   58.2343 C   0  0  0  0  0  0  0  0  0  0  0  0
   35.4961   34.0418   58.2702 C   0  0  0  0  0  0  0  0  0  0  0  0
   35.2700   32.7287   57.8852 N   0  0  0  0  0  0  0  0  0  0  0  0
   36.7030   34.4276   58.6736 N   0  0  0  0  0  0  0  0  0  0  0  0
   36.9218   35.6725   59.0445 C   0  0  0  0  0  0  0  0  0  0  0  0
   35.9674   36.5822   59.0219 N   0  0  0  0  0  0  0  0  0  0  0  0
   28.4451   38.7213   54.5295 O   0  0  0  0  0  0  0  0  0  0  0  0
   29.9382   38.3770   51.4722 O   0  0  0  0  0  0  0  0  0  0  0  0
   32.8590   36.5316   54.4982 S   0  0  0  0  0  0  0  0  0  0  0  0
   33.5381   36.1977   56.0618 C   0  0  0  0  0  0  0  0  0  0  0  0
   28.8315   37.3378   52.4542 O   0  0  0  0  0  0  0  0  0  0  0  0
   32.0243   39.7614   52.0845 O   0  5  0  0  0  0  0  0  0  0  0  0
   32.8128   35.1806   56.4661 N   0  0  0  0  0  0  0  0  0  0  0  0
   30.8396   38.2522   53.8827 O   0  0  0  0  0  0  0  0  0  0  0  0
   32.1212   37.1933   51.9142 O   0  0  0  0  0  0  0  0  0  0  0  0
   31.8548   34.6803   55.7166 C   0  0  2  0  0  0  0  0  0  0  0  0
   31.6188   35.2456   54.5053 C   0  0  2  0  0  0  0  0  0  0  0  0
   30.5982   34.8864   53.4574 C   0  0  0  0  0  0  0  0  0  0  0  0
   29.1991   35.2529   53.9579 C   0  0  0  0  0  0  0  0  0  0  0  0
   29.2898   36.3636   54.8523 O   0  0  0  0  0  0  0  0  0  0  0  0
  1 11  1  0  0  0  0
  3 13  1  1  0  0  0
  3 17  1  0  0  0  0
  3 20  1  0  0  0  0
  3 26  1  0  0  0  0
  4 14  1  0  0  0  0
  4 18  1  6  0  0  0
  4 21  2  0  0  0  0
  4 20  1  0  0  0  0
  5 19  1  0  0  0  0
  5  7  1  0  0  0  0
  6  7  2  0  0  0  0
  6 12  1  0  0  0  0
  7  8  1  0  0  0  0
  8  9  1  0  0  0  0
  8 10  2  0  0  0  0
 10 11  1  0  0  0  0
 11 12  2  0  0  0  0
 14 17  1  0  0  0  0
 15 23  1  0  0  0  0
 15 16  1  0  0  0  0
 16 19  1  0  0  0  0
 19 22  1  0  0  0  0
 22  2  1  1  0  0  0
 22 23  1  0  0  0  0
 23 24  1  6  0  0  0
 24 25  1  0  0  0  0
 25 26  1  0  0  0  0
M  CHG  1  18  -1
M  END
>  <CHROM.1>
-19.11865565,71.37950350,-110.14728967,29.25412171,83.18948255,136.52991729
32.26660498,36.37058674,55.21542143,-0.71441594,-0.44214864,-0.65300558

>  <Name>
ligand

>  <RI>
0

>  <Rbt.Current_Directory>
/home/itssahil/PROJECTS/Mol_Feturizer/New_Systems/rnas/2HOL

>  <Rbt.Executable>
rbdock ($Id: //depot/dev/client3/rdock/2013.1/src/exe/rbdock.cxx#4 $)

>  <Rbt.Library>
libRbt.so (2013.1, Build901 2013/11/27)

>  <Rbt.Parameter_File>
/export/apps/rDock/src/rDock_2013.1_src/data/scripts/dock_solv.prm

>  <Rbt.Receptor>
prm/blind_docking_80.prm

>  <SCORE>
42.5003

>  <SCORE.INTER>
36.3648

>  <SCORE.INTER.CONST>
1

>  <SCORE.INTER.POLAR>
0

>  <SCORE.INTER.ROT>
6

>  <SCORE.INTER.SOLV>
25.7948

>  <SCORE.INTER.VDW>
8.04492

>  <SCORE.INTER.norm>
1.39865

>  <SCORE.INTRA>
4.29761

>  <SCORE.INTRA.DIHEDRAL>
2.4655

>  <SCORE.INTRA.DIHEDRAL.0>
9.33621

>  <SCORE.INTRA.POLAR>
0

>  <SCORE.INTRA.POLAR.0>
0

>  <SCORE.INTRA.REPUL>
0

>  <SCORE.INTRA.REPUL.0>
0

>  <SCORE.INTRA.SOLV>
3.16282

>  <SCORE.INTRA.SOLV.lig_0>
-65.9238

>  <SCORE.INTRA.VDW>
1.48345

>  <SCORE.INTRA.VDW.0>
-0.405582

>  <SCORE.INTRA.norm>
0.165293

>  <SCORE.RESTR>
1.83792

>  <SCORE.RESTR.CAVITY>
1.83792

>  <SCORE.RESTR.norm>
0.0706893

>  <SCORE.SYSTEM>
0

>  <SCORE.SYSTEM.CONST>
0

>  <SCORE.SYSTEM.DIHEDRAL>
0

>  <SCORE.SYSTEM.SOLV>
0

>  <SCORE.SYSTEM.norm>
0

>  <SCORE.heavy>
26

>  <SCORE.norm>
1.63463

>  <RMSD>
16.543

$$$$
ligand
 OpenBabel11021811443D
libRbt.so/2013.1/901 2013/11/27
 26 28  0  0  0  0  0  0  0  0999 V2000
    2.0571   39.5703   66.2925 C   0  0  0  0  0  0  0  0  0  0  0  0
    5.2863   44.2073   62.4610 C   0  0  0  0  0  0  0  0  0  0  0  0
   10.4583   44.1229   59.4296 P   0  0  1  0  0  0  0  0  0  0  0  0
   11.5146   41.8633   58.7477 P   0  0  1  0  0  0  0  0  0  0  0  0
    5.3333   44.1121   65.2643 C   0  0  0  0  0  0  0  0  0  0  0  0
    5.0063   41.7453   66.0411 C   0  0  0  0  0  0  0  0  0  0  0  0
    4.4649   42.9106   65.5359 C   0  0  0  0  0  0  0  0  0  0  0  0
    3.0925   42.9479   65.2834 C   0  0  0  0  0  0  0  0  0  0  0  0
    2.5002   44.0944   64.7753 N   0  0  0  0  0  0  0  0  0  0  0  0
    2.3617   41.8650   65.5318 N   0  0  0  0  0  0  0  0  0  0  0  0
    2.9188   40.7752   66.0184 C   0  0  0  0  0  0  0  0  0  0  0  0
    4.2120   40.7076   66.2676 N   0  0  0  0  0  0  0  0  0  0  0  0
   11.0763   44.9362   60.5012 O   0  0  0  0  0  0  0  0  0  0  0  0
   12.3554   42.9449   58.0326 O   0  0  0  0  0  0  0  0  0  0  0  0
    8.6939   42.9176   63.8987 S   0  0  0  0  0  0  0  0  0  0  0  0
    7.5825   43.2873   65.1815 C   0  0  0  0  0  0  0  0  0  0  0  0
   11.2430   44.3702   58.0472 O   0  0  0  0  0  0  0  0  0  0  0  0
   12.4932   40.8302   59.4996 O   0  5  0  0  0  0  0  0  0  0  0  0
    6.5243   43.6961   64.5204 N   0  0  0  0  0  0  0  0  0  0  0  0
   10.5428   42.5637   59.8236 O   0  0  0  0  0  0  0  0  0  0  0  0
   10.6651   41.1016   57.7057 O   0  0  0  0  0  0  0  0  0  0  0  0
    6.5099   43.7366   63.2059 C   0  0  2  0  0  0  0  0  0  0  0  0
    7.6251   43.3518   62.5345 C   0  0  2  0  0  0  0  0  0  0  0  0
    7.8872   43.3011   61.0520 C   0  0  0  0  0  0  0  0  0  0  0  0
    8.3696   44.6710   60.5699 C   0  0  0  0  0  0  0  0  0  0  0  0
    8.9149   44.5475   59.2548 O   0  0  0  0  0  0  0  0  0  0  0  0
  1 11  1  0  0  0  0
  3 13  1  1  0  0  0
  3 17  1  0  0  0  0
  3 20  1  0  0  0  0
  3 26  1  0  0  0  0
  4 14  1  0  0  0  0
  4 18  1  1  0  0  0
  4 21  2  0  0  0  0
  4 20  1  0  0  0  0
  5 19  1  0  0  0  0
  5  7  1  0  0  0  0
  6  7  2  0  0  0  0
  6 12  1  0  0  0  0
  7  8  1  0  0  0  0
  8  9  1  0  0  0  0
  8 10  2  0  0  0  0
 10 11  1  0  0  0  0
 11 12  2  0  0  0  0
 14 17  1  0  0  0  0
 15 23  1  0  0  0  0
 15 16  1  0  0  0  0
 16 19  1  0  0  0  0
 19 22  1  0  0  0  0
 22  2  1  1  0  0  0
 22 23  1  0  0  0  0
 23 24  1  6  0  0  0
 24 25  1  0  0  0  0
 25 26  1  0  0  0  0
M  CHG  1  18  -1
M  END
>  <CHROM.1>
-87.38607071,47.77252298,-94.39642501,166.38459174,-85.92607799,-43.85983450
7.82881054,42.90815991,62.11357076,-2.92976659,0.70899236,-0.19723118

>  <Name>
ligand

>  <RI>
0

>  <Rbt.Current_Directory>
/home/itssahil/PROJECTS/Mol_Feturizer/New_Systems/rnas/2HOL

>  <Rbt.Executable>
rbdock ($Id: //depot/dev/client3/rdock/2013.1/src/exe/rbdock.cxx#4 $)

>  <Rbt.Library>
libRbt.so (2013.1, Build901 2013/11/27)

>  <Rbt.Parameter_File>
/export/apps/rDock/src/rDock_2013.1_src/data/scripts/dock_solv.prm

>  <Rbt.Receptor>
prm/blind_docking_80.prm

>  <SCORE>
-7.80528

>  <SCORE.INTER>
-10.2172

>  <SCORE.INTER.CONST>
1

>  <SCORE.INTER.POLAR>
0

>  <SCORE.INTER.ROT>
6

>  <SCORE.INTER.SOLV>
25.1668

>  <SCORE.INTER.VDW>
-22.8004

>  <SCORE.INTER.norm>
-0.392971

>  <SCORE.INTRA>
-0.820914

>  <SCORE.INTRA.DIHEDRAL>
-0.62785

>  <SCORE.INTRA.DIHEDRAL.0>
9.33621

>  <SCORE.INTRA.POLAR>
0

>  <SCORE.INTRA.POLAR.0>
0

>  <SCORE.INTRA.REPUL>
0

>  <SCORE.INTRA.REPUL.0>
0

>  <SCORE.INTRA.SOLV>
1.23374

>  <SCORE.INTRA.SOLV.lig_0>
-65.9238

>  <SCORE.INTRA.VDW>
-1.12386

>  <SCORE.INTRA.VDW.0>
-0.405582

>  <SCORE.INTRA.norm>
-0.0315736

>  <SCORE.RESTR>
3.23287

>  <SCORE.RESTR.CAVITY>
3.23287

>  <SCORE.RESTR.norm>
0.124341

>  <SCORE.SYSTEM>
0

>  <SCORE.SYSTEM.CONST>
0

>  <SCORE.SYSTEM.DIHEDRAL>
0

>  <SCORE.SYSTEM.SOLV>
0

>  <SCORE.SYSTEM.norm>
0

>  <SCORE.heavy>
26

>  <SCORE.norm>
-0.300203

>  <RMSD>
18.390

$$$$
ligand
 OpenBabel11021811443D
libRbt.so/2013.1/901 2013/11/27
 26 28  0  0  0  0  0  0  0  0999 V2000
    7.1570   38.3861   67.4857 C   0  0  0  0  0  0  0  0  0  0  0  0
    6.4871   44.0106   65.5982 C   0  0  0  0  0  0  0  0  0  0  0  0
    8.6766   42.9512   60.5382 P   0  0  1  0  0  0  0  0  0  0  0  0
   10.2648   42.8108   58.5024 P   0  0  1  0  0  0  0  0  0  0  0  0
    4.0355   43.0602   66.5759 C   0  0  0  0  0  0  0  0  0  0  0  0
    5.9952   41.8688   67.6014 C   0  0  0  0  0  0  0  0  0  0  0  0
    4.8608   41.8222   66.8158 C   0  0  0  0  0  0  0  0  0  0  0  0
    4.4975   40.5991   66.2495 C   0  0  0  0  0  0  0  0  0  0  0  0
    3.3671   40.4996   65.4522 N   0  0  0  0  0  0  0  0  0  0  0  0
    5.2550   39.5311   66.4812 N   0  0  0  0  0  0  0  0  0  0  0  0
    6.3271   39.6194   67.2414 C   0  0  0  0  0  0  0  0  0  0  0  0
    6.6975   40.7596   67.7906 N   0  0  0  0  0  0  0  0  0  0  0  0
    7.3666   42.2625   60.5047 O   0  0  0  0  0  0  0  0  0  0  0  0
   10.4595   41.4841   59.2706 O   0  0  0  0  0  0  0  0  0  0  0  0
    3.6798   43.9061   62.8687 S   0  0  0  0  0  0  0  0  0  0  0  0
    3.0760   43.3449   64.3977 C   0  0  0  0  0  0  0  0  0  0  0  0
    9.8297   41.8947   60.9149 O   0  0  0  0  0  0  0  0  0  0  0  0
   10.0330   42.4996   56.9404 O   0  5  0  0  0  0  0  0  0  0  0  0
    4.1348   43.4484   65.1672 N   0  0  0  0  0  0  0  0  0  0  0  0
    8.9841   43.5888   59.0917 O   0  0  0  0  0  0  0  0  0  0  0  0
   11.5239   43.6906   58.6702 O   0  0  0  0  0  0  0  0  0  0  0  0
    5.2803   43.8963   64.7013 C   0  0  2  0  0  0  0  0  0  0  0  0
    5.3538   44.2464   63.3920 C   0  0  2  0  0  0  0  0  0  0  0  0
    6.5206   44.7777   62.6013 C   0  0  0  0  0  0  0  0  0  0  0  0
    7.6542   43.7497   62.6072 C   0  0  0  0  0  0  0  0  0  0  0  0
    8.6399   44.1230   61.6422 O   0  0  0  0  0  0  0  0  0  0  0  0
  1 11  1  0  0  0  0
  3 13  1  6  0  0  0
  3 17  1  0  0  0  0
  3 20  1  0  0  0  0
  3 26  1  0  0  0  0
  4 14  1  0  0  0  0
  4 18  1  6  0  0  0
  4 21  2  0  0  0  0
  4 20  1  0  0  0  0
  5 19  1  0  0  0  0
  5  7  1  0  0  0  0
  6  7  2  0  0  0  0
  6 12  1  0  0  0  0
  7  8  1  0  0  0  0
  8  9  1  0  0  0  0
  8 10  2  0  0  0  0
 10 11  1  0  0  0  0
 11 12  2  0  0  0  0
 14 17  1  0  0  0  0
 15 23  1  0  0  0  0
 15 16  1  0  0  0  0
 16 19  1  0  0  0  0
 19 22  1  0  0  0  0
 22  2  1  6  0  0  0
 22 23  1  0  0  0  0
 23 24  1  1  0  0  0
 24 25  1  0  0  0  0
 25 26  1  0  0  0  0
M  CHG  1  18  -1
M  END
>  <CHROM.1>
111.93030687,112.63774326,-119.17118037,168.10182414,-116.79330464,25.73879009
7.01041214,42.53255436,62.89460720,-2.30247651,0.59327781,-0.92201695

>  <Name>
ligand

>  <RI>
0

>  <Rbt.Current_Directory>
/home/itssahil/PROJECTS/Mol_Feturizer/New_Systems/rnas/2HOL

>  <Rbt.Executable>
rbdock ($Id: //depot/dev/client3/rdock/2013.1/src/exe/rbdock.cxx#4 $)

>  <Rbt.Library>
libRbt.so (2013.1, Build901 2013/11/27)

>  <Rbt.Parameter_File>
/export/apps/rDock/src/rDock_2013.1_src/data/scripts/dock_solv.prm

>  <Rbt.Receptor>
prm/blind_docking_80.prm

>  <SCORE>
-4.99893

>  <SCORE.INTER>
-9.6519

>  <SCORE.INTER.CONST>
1

>  <SCORE.INTER.POLAR>
0

>  <SCORE.INTER.ROT>
6

>  <SCORE.INTER.SOLV>
20.5004

>  <SCORE.INTER.VDW>
-20.8681

>  <SCORE.INTER.norm>
-0.371227

>  <SCORE.INTRA>
4.17152

>  <SCORE.INTRA.DIHEDRAL>
4.36376

>  <SCORE.INTRA.DIHEDRAL.0>
9.33621

>  <SCORE.INTRA.POLAR>
0

>  <SCORE.INTRA.POLAR.0>
0

>  <SCORE.INTRA.REPUL>
0

>  <SCORE.INTRA.REPUL.0>
0

>  <SCORE.INTRA.SOLV>
1.30426

>  <SCORE.INTRA.SOLV.lig_0>
-65.9238

>  <SCORE.INTRA.VDW>
1.33751

>  <SCORE.INTRA.VDW.0>
-0.405582

>  <SCORE.INTRA.norm>
0.160443

>  <SCORE.RESTR>
0.481459

>  <SCORE.RESTR.CAVITY>
0.481459

>  <SCORE.RESTR.norm>
0.0185176

>  <SCORE.SYSTEM>
0

>  <SCORE.SYSTEM.CONST>
0

>  <SCORE.SYSTEM.DIHEDRAL>
0

>  <SCORE.SYSTEM.SOLV>
0

>  <SCORE.SYSTEM.norm>
0

>  <SCORE.heavy>
26

>  <SCORE.norm>
-0.192266

>  <RMSD>
18.982

$$$$
ligand
 OpenBabel11021811443D
libRbt.so/2013.1/901 2013/11/27
 26 28  0  0  0  0  0  0  0  0999 V2000
   24.7458   25.8625   60.0440 C   0  0  0  0  0  0  0  0  0  0  0  0
   24.9078   20.2568   55.2504 C   0  0  0  0  0  0  0  0  0  0  0  0
   23.0672   22.8365   49.2484 P   0  0  1  0  0  0  0  0  0  0  0  0
   21.2456   22.5204   47.4406 P   0  0  1  0  0  0  0  0  0  0  0  0
   23.3740   20.9617   57.4909 C   0  0  0  0  0  0  0  0  0  0  0  0
   25.0194   22.7619   58.0937 C   0  0  0  0  0  0  0  0  0  0  0  0
   23.7357   22.2590   58.1672 C   0  0  0  0  0  0  0  0  0  0  0  0
   22.7811   22.9829   58.8837 C   0  0  0  0  0  0  0  0  0  0  0  0
   21.4778   22.5202   58.9880 N   0  0  0  0  0  0  0  0  0  0  0  0
   23.1414   24.1206   59.4703 N   0  0  0  0  0  0  0  0  0  0  0  0
   24.3768   24.5664   59.3706 C   0  0  0  0  0  0  0  0  0  0  0  0
   25.3019   23.9065   58.7015 N   0  0  0  0  0  0  0  0  0  0  0  0
   24.0508   23.9360   49.1247 O   0  0  0  0  0  0  0  0  0  0  0  0
   20.7313   23.6585   48.3507 O   0  0  0  0  0  0  0  0  0  0  0  0
   21.4897   21.9231   54.3112 S   0  0  0  0  0  0  0  0  0  0  0  0
   21.6692   21.8109   56.0353 C   0  0  0  0  0  0  0  0  0  0  0  0
   21.6945   23.4099   49.8605 O   0  0  0  0  0  0  0  0  0  0  0  0
   21.1297   22.9693   45.8993 O   0  5  0  0  0  0  0  0  0  0  0  0
   22.8450   21.2386   56.1536 N   0  0  0  0  0  0  0  0  0  0  0  0
   22.7842   22.2043   47.7945 O   0  0  0  0  0  0  0  0  0  0  0  0
   20.3929   21.2528   47.6725 O   0  0  0  0  0  0  0  0  0  0  0  0
   23.5585   20.9124   55.0980 C   0  0  2  0  0  0  0  0  0  0  0  0
   23.0490   21.1726   53.8670 C   0  0  2  0  0  0  0  0  0  0  0  0
   23.6364   20.9065   52.5058 C   0  0  0  0  0  0  0  0  0  0  0  0
   23.2395   22.0319   51.5476 C   0  0  0  0  0  0  0  0  0  0  0  0
   23.6549   21.6965   50.2221 O   0  0  0  0  0  0  0  0  0  0  0  0
  1 11  1  0  0  0  0
  3 13  1  6  0  0  0
  3 17  1  0  0  0  0
  3 20  1  0  0  0  0
  3 26  1  0  0  0  0
  4 14  1  0  0  0  0
  4 18  1  6  0  0  0
  4 21  2  0  0  0  0
  4 20  1  0  0  0  0
  5 19  1  0  0  0  0
  5  7  1  0  0  0  0
  6  7  2  0  0  0  0
  6 12  1  0  0  0  0
  7  8  1  0  0  0  0
  8  9  1  0  0  0  0
  8 10  2  0  0  0  0
 10 11  1  0  0  0  0
 11 12  2  0  0  0  0
 14 17  1  0  0  0  0
 15 23  1  0  0  0  0
 15 16  1  0  0  0  0
 16 19  1  0  0  0  0
 19 22  1  0  0  0  0
 22  2  1  6  0  0  0
 22 23  1  0  0  0  0
 23 24  1  1  0  0  0
 24 25  1  0  0  0  0
 25 26  1  0  0  0  0
M  CHG  1  18  -1
M  END
>  <CHROM.1>
-69.89757041,-93.34228002,35.00117146,-172.85840373,173.90513686,89.99760410
22.79878824,22.49409000,53.13601895,-1.14458187,-1.14496203,-1.22384641

>  <Name>
ligand

>  <RI>
0

>  <Rbt.Current_Directory>
/home/itssahil/PROJECTS/Mol_Feturizer/New_Systems/rnas/2HOL

>  <Rbt.Executable>
rbdock ($Id: //depot/dev/client3/rdock/2013.1/src/exe/rbdock.cxx#4 $)

>  <Rbt.Library>
libRbt.so (2013.1, Build901 2013/11/27)

>  <Rbt.Parameter_File>
/export/apps/rDock/src/rDock_2013.1_src/data/scripts/dock_solv.prm

>  <Rbt.Receptor>
prm/blind_docking_80.prm

>  <SCORE>
-11.6584

>  <SCORE.INTER>
-12.1623

>  <SCORE.INTER.CONST>
1

>  <SCORE.INTER.POLAR>
0

>  <SCORE.INTER.ROT>
6

>  <SCORE.INTER.SOLV>
20.3599

>  <SCORE.INTER.VDW>
-22.4948

>  <SCORE.INTER.norm>
-0.46778

>  <SCORE.INTRA>
-1.99595

>  <SCORE.INTRA.DIHEDRAL>
-2.82137

>  <SCORE.INTRA.DIHEDRAL.0>
9.33621

>  <SCORE.INTRA.POLAR>
0

>  <SCORE.INTRA.POLAR.0>
0

>  <SCORE.INTRA.REPUL>
0

>  <SCORE.INTRA.REPUL.0>
0

>  <SCORE.INTRA.SOLV>
0.555868

>  <SCORE.INTRA.SOLV.lig_0>
-65.9238

>  <SCORE.INTRA.VDW>
-0.863201

>  <SCORE.INTRA.VDW.0>
-0.405582

>  <SCORE.INTRA.norm>
-0.0767673

>  <SCORE.RESTR>
2.49985

>  <SCORE.RESTR.CAVITY>
2.49985

>  <SCORE.RESTR.norm>
0.096148

>  <SCORE.SYSTEM>
0

>  <SCORE.SYSTEM.CONST>
0

>  <SCORE.SYSTEM.DIHEDRAL>
0

>  <SCORE.SYSTEM.SOLV>
0

>  <SCORE.SYSTEM.norm>
0

>  <SCORE.heavy>
26

>  <SCORE.norm>
-0.448399

>  <RMSD>
23.415

$$$$
ligand
 OpenBabel11021811443D
libRbt.so/2013.1/901 2013/11/27
 26 28  0  0  0  0  0  0  0  0999 V2000
   24.2177   25.5084   60.2535 C   0  0  0  0  0  0  0  0  0  0  0  0
   24.9334   20.1856   54.6419 C   0  0  0  0  0  0  0  0  0  0  0  0
   21.4974   21.9140   49.6732 P   0  0  1  0  0  0  0  0  0  0  0  0
   21.7571   22.9463   47.3166 P   0  0  1  0  0  0  0  0  0  0  0  0
   23.6440   20.8391   57.0461 C   0  0  0  0  0  0  0  0  0  0  0  0
   25.0139   22.7124   58.0082 C   0  0  0  0  0  0  0  0  0  0  0  0
   23.7944   22.0749   57.8955 C   0  0  0  0  0  0  0  0  0  0  0  0
   22.7041   22.6043   58.5880 C   0  0  0  0  0  0  0  0  0  0  0  0
   21.4579   22.0008   58.5081 N   0  0  0  0  0  0  0  0  0  0  0  0
   22.8792   23.6933   59.3307 N   0  0  0  0  0  0  0  0  0  0  0  0
   24.0598   24.2727   59.4064 C   0  0  0  0  0  0  0  0  0  0  0  0
   25.1094   23.7976   58.7649 N   0  0  0  0  0  0  0  0  0  0  0  0
   20.4625   20.8849   49.9213 O   0  0  0  0  0  0  0  0  0  0  0  0
   22.4846   21.5844   47.2535 O   0  0  0  0  0  0  0  0  0  0  0  0
   21.5056   22.0030   54.1036 S   0  0  0  0  0  0  0  0  0  0  0  0
   21.8423   21.8079   55.7965 C   0  0  0  0  0  0  0  0  0  0  0  0
   22.7872   21.2276   49.0000 O   0  0  0  0  0  0  0  0  0  0  0  0
   20.7652   23.0859   46.0568 O   0  5  0  0  0  0  0  0  0  0  0  0
   23.0021   21.1927   55.7781 N   0  0  0  0  0  0  0  0  0  0  0  0
   20.9086   23.0384   48.6820 O   0  0  0  0  0  0  0  0  0  0  0  0
   22.7989   24.0868   47.2798 O   0  0  0  0  0  0  0  0  0  0  0  0
   23.6007   20.8911   54.6465 C   0  0  2  0  0  0  0  0  0  0  0  0
   22.9876   21.2226   53.4817 C   0  0  2  0  0  0  0  0  0  0  0  0
   23.4342   20.9987   52.0607 C   0  0  0  0  0  0  0  0  0  0  0  0
   23.3030   22.3028   51.2708 C   0  0  0  0  0  0  0  0  0  0  0  0
   21.9198   22.5989   51.0681 O   0  0  0  0  0  0  0  0  0  0  0  0
  1 11  1  0  0  0  0
  3 13  1  1  0  0  0
  3 17  1  0  0  0  0
  3 20  1  0  0  0  0
  3 26  1  0  0  0  0
  4 14  1  0  0  0  0
  4 18  1  6  0  0  0
  4 21  2  0  0  0  0
  4 20  1  0  0  0  0
  5 19  1  0  0  0  0
  5  7  1  0  0  0  0
  6  7  2  0  0  0  0
  6 12  1  0  0  0  0
  7  8  1  0  0  0  0
  8  9  1  0  0  0  0
  8 10  2  0  0  0  0
 10 11  1  0  0  0  0
 11 12  2  0  0  0  0
 14 17  1  0  0  0  0
 15 23  1  0  0  0  0
 15 16  1  0  0  0  0
 16 19  1  0  0  0  0
 19 22  1  0  0  0  0
 22  2  1  6  0  0  0
 22 23  1  0  0  0  0
 23 24  1  1  0  0  0
 24 25  1  0  0  0  0
 25 26  1  0  0  0  0
M  CHG  1  18  -1
M  END
>  <CHROM.1>
-55.43227988,-102.50139374,48.75656569,-70.58542609,-90.70096147,117.19722697
22.60355082,22.29380138,53.02201177,0.06104654,-1.39297094,0.01612219

>  <Name>
ligand

>  <RI>
0

>  <Rbt.Current_Directory>
/home/itssahil/PROJECTS/Mol_Feturizer/New_Systems/rnas/2HOL

>  <Rbt.Executable>
rbdock ($Id: //depot/dev/client3/rdock/2013.1/src/exe/rbdock.cxx#4 $)

>  <Rbt.Library>
libRbt.so (2013.1, Build901 2013/11/27)

>  <Rbt.Parameter_File>
/export/apps/rDock/src/rDock_2013.1_src/data/scripts/dock_solv.prm

>  <Rbt.Receptor>
prm/blind_docking_80.prm

>  <SCORE>
-7.08576

>  <SCORE.INTER>
-11.2994

>  <SCORE.INTER.CONST>
1

>  <SCORE.INTER.POLAR>
0

>  <SCORE.INTER.ROT>
6

>  <SCORE.INTER.SOLV>
18.9479

>  <SCORE.INTER.VDW>
-21.4489

>  <SCORE.INTER.norm>
-0.434593

>  <SCORE.INTRA>
2.38086

>  <SCORE.INTRA.DIHEDRAL>
2.31259

>  <SCORE.INTRA.DIHEDRAL.0>
9.33621

>  <SCORE.INTRA.POLAR>
0

>  <SCORE.INTRA.POLAR.0>
0

>  <SCORE.INTRA.REPUL>
0

>  <SCORE.INTRA.REPUL.0>
0

>  <SCORE.INTRA.SOLV>
1.64861

>  <SCORE.INTRA.SOLV.lig_0>
-65.9238

>  <SCORE.INTRA.VDW>
0.400258

>  <SCORE.INTRA.VDW.0>
-0.405582

>  <SCORE.INTRA.norm>
0.0915715

>  <SCORE.RESTR>
1.8328

>  <SCORE.RESTR.CAVITY>
1.8328

>  <SCORE.RESTR.norm>
0.0704923

>  <SCORE.SYSTEM>
0

>  <SCORE.SYSTEM.CONST>
0

>  <SCORE.SYSTEM.DIHEDRAL>
0

>  <SCORE.SYSTEM.SOLV>
0

>  <SCORE.SYSTEM.norm>
0

>  <SCORE.heavy>
26

>  <SCORE.norm>
-0.272529

>  <RMSD>
23.636

$$$$
ligand
 OpenBabel11021811443D
libRbt.so/2013.1/901 2013/11/27
 26 28  0  0  0  0  0  0  0  0999 V2000
   24.7459   24.6174   59.7479 C   0  0  0  0  0  0  0  0  0  0  0  0
   19.9901   20.3323   54.5459 C   0  0  0  0  0  0  0  0  0  0  0  0
   23.2767   21.6500   48.8944 P   0  0  1  0  0  0  0  0  0  0  0  0
   22.1376   23.0967   47.0788 P   0  0  1  0  0  0  0  0  0  0  0  0
   21.9915   20.9020   56.4272 C   0  0  0  0  0  0  0  0  0  0  0  0
   24.0975   21.9660   57.2899 C   0  0  0  0  0  0  0  0  0  0  0  0
   22.7193   21.8859   57.3067 C   0  0  0  0  0  0  0  0  0  0  0  0
   22.0169   22.7396   58.1590 C   0  0  0  0  0  0  0  0  0  0  0  0
   20.6317   22.6981   58.2134 N   0  0  0  0  0  0  0  0  0  0  0  0
   22.6962   23.5901   58.9229 N   0  0  0  0  0  0  0  0  0  0  0  0
   24.0116   23.6365   58.8716 C   0  0  0  0  0  0  0  0  0  0  0  0
   24.7045   22.8436   58.0777 N   0  0  0  0  0  0  0  0  0  0  0  0
   24.5338   20.9308   48.5877 O   0  0  0  0  0  0  0  0  0  0  0  0
   23.2792   23.9699   47.6467 O   0  0  0  0  0  0  0  0  0  0  0  0
   23.1615   21.9968   52.9605 S   0  0  0  0  0  0  0  0  0  0  0  0
   23.3605   21.7965   54.6745 C   0  0  0  0  0  0  0  0  0  0  0  0
   23.6073   23.1854   49.2424 O   0  0  0  0  0  0  0  0  0  0  0  0
   22.2031   23.1039   45.4707 O   0  5  0  0  0  0  0  0  0  0  0  0
   22.2233   21.2391   55.0209 N   0  0  0  0  0  0  0  0  0  0  0  0
   22.2981   21.5876   47.6169 O   0  0  0  0  0  0  0  0  0  0  0  0
   20.7775   23.6662   47.5408 O   0  0  0  0  0  0  0  0  0  0  0  0
   21.2905   20.9740   54.1324 C   0  0  2  0  0  0  0  0  0  0  0  0
   21.5219   21.2984   52.8348 C   0  0  2  0  0  0  0  0  0  0  0  0
   20.6429   21.1164   51.6252 C   0  0  0  0  0  0  0  0  0  0  0  0
   21.3469   21.6835   50.3904 C   0  0  0  0  0  0  0  0  0  0  0  0
   22.5546   20.9566   50.1556 O   0  0  0  0  0  0  0  0  0  0  0  0
  1 11  1  0  0  0  0
  3 13  1  6  0  0  0
  3 17  1  0  0  0  0
  3 20  1  0  0  0  0
  3 26  1  0  0  0  0
  4 14  1  0  0  0  0
  4 18  1  6  0  0  0
  4 21  2  0  0  0  0
  4 20  1  0  0  0  0
  5 19  1  0  0  0  0
  5  7  1  0  0  0  0
  6  7  2  0  0  0  0
  6 12  1  0  0  0  0
  7  8  1  0  0  0  0
  8  9  1  0  0  0  0
  8 10  2  0  0  0  0
 10 11  1  0  0  0  0
 11 12  2  0  0  0  0
 14 17  1  0  0  0  0
 15 23  1  0  0  0  0
 15 16  1  0  0  0  0
 16 19  1  0  0  0  0
 19 22  1  0  0  0  0
 22  2  1  1  0  0  0
 22 23  1  0  0  0  0
 23 24  1  6  0  0  0
 24 25  1  0  0  0  0
 25 26  1  0  0  0  0
M  CHG  1  18  -1
M  END
>  <CHROM.1>
31.12720226,-64.04579417,-1.79669291,62.43144662,-177.21058951,-179.36303127
22.57315057,22.23012409,52.45515407,-1.51518460,-0.61161085,-1.55282628

>  <Name>
ligand

>  <RI>
0

>  <Rbt.Current_Directory>
/home/itssahil/PROJECTS/Mol_Feturizer/New_Systems/rnas/2HOL

>  <Rbt.Executable>
rbdock ($Id: //depot/dev/client3/rdock/2013.1/src/exe/rbdock.cxx#4 $)

>  <Rbt.Library>
libRbt.so (2013.1, Build901 2013/11/27)

>  <Rbt.Parameter_File>
/export/apps/rDock/src/rDock_2013.1_src/data/scripts/dock_solv.prm

>  <Rbt.Receptor>
prm/blind_docking_80.prm

>  <SCORE>
-7.80923

>  <SCORE.INTER>
-8.207

>  <SCORE.INTER.CONST>
1

>  <SCORE.INTER.POLAR>
0

>  <SCORE.INTER.ROT>
6

>  <SCORE.INTER.SOLV>
21.3932

>  <SCORE.INTER.VDW>
-20.2024

>  <SCORE.INTER.norm>
-0.315654

>  <SCORE.INTRA>
-2.33449

>  <SCORE.INTRA.DIHEDRAL>
-4.72075

>  <SCORE.INTRA.DIHEDRAL.0>
9.33621

>  <SCORE.INTRA.POLAR>
0

>  <SCORE.INTRA.POLAR.0>
0

>  <SCORE.INTRA.REPUL>
0

>  <SCORE.INTRA.REPUL.0>
0

>  <SCORE.INTRA.SOLV>
0.781407

>  <SCORE.INTRA.SOLV.lig_0>
-65.9238

>  <SCORE.INTRA.VDW>
-0.364818

>  <SCORE.INTRA.VDW.0>
-0.405582

>  <SCORE.INTRA.norm>
-0.089788

>  <SCORE.RESTR>
2.73226

>  <SCORE.RESTR.CAVITY>
2.73226

>  <SCORE.RESTR.norm>
0.105087

>  <SCORE.SYSTEM>
0

>  <SCORE.SYSTEM.CONST>
0

>  <SCORE.SYSTEM.DIHEDRAL>
0

>  <SCORE.SYSTEM.SOLV>
0

>  <SCORE.SYSTEM.norm>
0

>  <SCORE.heavy>
26

>  <SCORE.norm>
-0.300355

>  <RMSD>
23.914

$$$$
ligand
 OpenBabel11021811443D
libRbt.so/2013.1/901 2013/11/27
 26 28  0  0  0  0  0  0  0  0999 V2000
   20.6876   24.0187   39.8264 C   0  0  0  0  0  0  0  0  0  0  0  0
   20.9325   23.4667   48.1575 C   0  0  0  0  0  0  0  0  0  0  0  0
   22.8152   21.4722   52.3231 P   0  0  1  0  0  0  0  0  0  0  0  0
   22.7538   21.4366   54.9079 P   0  0  1  0  0  0  0  0  0  0  0  0
   20.5008   23.0002   45.4251 C   0  0  0  0  0  0  0  0  0  0  0  0
   20.3786   24.5459   43.4484 C   0  0  0  0  0  0  0  0  0  0  0  0
   20.5504   23.2683   43.9430 C   0  0  0  0  0  0  0  0  0  0  0  0
   20.7716   22.2312   43.0352 C   0  0  0  0  0  0  0  0  0  0  0  0
   20.9495   20.9301   43.4812 N   0  0  0  0  0  0  0  0  0  0  0  0
   20.8033   22.5083   41.7350 N   0  0  0  0  0  0  0  0  0  0  0  0
   20.6392   23.7430   41.3066 C   0  0  0  0  0  0  0  0  0  0  0  0
   20.4282   24.7447   42.1379 N   0  0  0  0  0  0  0  0  0  0  0  0
   22.6366   20.2160   51.5604 O   0  0  0  0  0  0  0  0  0  0  0  0
   21.2752   21.4153   54.4593 O   0  0  0  0  0  0  0  0  0  0  0  0
   24.2231   22.6410   46.1999 S   0  0  0  0  0  0  0  0  0  0  0  0
   22.8506   22.6257   45.1353 C   0  0  0  0  0  0  0  0  0  0  0  0
   21.3771   22.0410   52.7659 O   0  0  0  0  0  0  0  0  0  0  0  0
   23.0010   20.2828   56.0026 O   0  5  0  0  0  0  0  0  0  0  0  0
   21.8645   22.9152   45.9524 N   0  0  0  0  0  0  0  0  0  0  0  0
   23.7047   21.1817   53.6338 O   0  0  0  0  0  0  0  0  0  0  0  0
   23.0822   22.8131   55.5284 O   0  0  0  0  0  0  0  0  0  0  0  0
   22.0755   23.1339   47.2320 C   0  0  2  0  0  0  0  0  0  0  0  0
   23.3457   23.0457   47.7027 C   0  0  2  0  0  0  0  0  0  0  0  0
   23.8699   23.2391   49.1014 C   0  0  0  0  0  0  0  0  0  0  0  0
   23.0295   22.4176   50.0817 C   0  0  0  0  0  0  0  0  0  0  0  0
   23.5623   22.5598   51.4001 O   0  0  0  0  0  0  0  0  0  0  0  0
  1 11  1  0  0  0  0
  3 13  1  6  0  0  0
  3 17  1  0  0  0  0
  3 20  1  0  0  0  0
  3 26  1  0  0  0  0
  4 14  1  0  0  0  0
  4 18  1  1  0  0  0
  4 21  2  0  0  0  0
  4 20  1  0  0  0  0
  5 19  1  0  0  0  0
  5  7  1  0  0  0  0
  6  7  2  0  0  0  0
  6 12  1  0  0  0  0
  7  8  1  0  0  0  0
  8  9  1  0  0  0  0
  8 10  2  0  0  0  0
 10 11  1  0  0  0  0
 11 12  2  0  0  0  0
 14 17  1  0  0  0  0
 15 23  1  0  0  0  0
 15 16  1  0  0  0  0
 16 19  1  0  0  0  0
 19 22  1  0  0  0  0
 22  2  1  1  0  0  0
 22 23  1  0  0  0  0
 23 24  1  6  0  0  0
 24 25  1  0  0  0  0
 25 26  1  0  0  0  0
M  CHG  1  18  -1
M  END
>  <CHROM.1>
-22.44058383,-99.05182801,-130.73438180,177.66018589,-169.74376804,39.03446488
22.19573331,22.39973269,48.61039222,1.71630371,0.03014923,-1.41642592

>  <Name>
ligand

>  <RI>
0

>  <Rbt.Current_Directory>
/home/itssahil/PROJECTS/Mol_Feturizer/New_Systems/rnas/2HOL

>  <Rbt.Executable>
rbdock ($Id: //depot/dev/client3/rdock/2013.1/src/exe/rbdock.cxx#4 $)

>  <Rbt.Library>
libRbt.so (2013.1, Build901 2013/11/27)

>  <Rbt.Parameter_File>
/export/apps/rDock/src/rDock_2013.1_src/data/scripts/dock_solv.prm

>  <Rbt.Receptor>
prm/blind_docking_80.prm

>  <SCORE>
-11.7879

>  <SCORE.INTER>
-13.7516

>  <SCORE.INTER.CONST>
1

>  <SCORE.INTER.POLAR>
0

>  <SCORE.INTER.ROT>
6

>  <SCORE.INTER.SOLV>
15.7388

>  <SCORE.INTER.VDW>
-22.014

>  <SCORE.INTER.norm>
-0.528907

>  <SCORE.INTRA>
0.209568

>  <SCORE.INTRA.DIHEDRAL>
-3.54826

>  <SCORE.INTRA.DIHEDRAL.0>
9.33621

>  <SCORE.INTRA.POLAR>
0

>  <SCORE.INTRA.POLAR.0>
0

>  <SCORE.INTRA.REPUL>
0

>  <SCORE.INTRA.REPUL.0>
0

>  <SCORE.INTRA.SOLV>
0.767845

>  <SCORE.INTRA.SOLV.lig_0>
-65.9238

>  <SCORE.INTRA.VDW>
1.59977

>  <SCORE.INTRA.VDW.0>
-0.405582

>  <SCORE.INTRA.norm>
0.00806031

>  <SCORE.RESTR>
1.75411

>  <SCORE.RESTR.CAVITY>
1.75411

>  <SCORE.RESTR.norm>
0.0674658

>  <SCORE.SYSTEM>
0

>  <SCORE.SYSTEM.CONST>
0

>  <SCORE.SYSTEM.DIHEDRAL>
0

>  <SCORE.SYSTEM.SOLV>
0

>  <SCORE.SYSTEM.norm>
0

>  <SCORE.heavy>
26

>  <SCORE.norm>
-0.453381

>  <RMSD>
26.661

$$$$
ligand
 OpenBabel11021811443D
libRbt.so/2013.1/901 2013/11/27
 26 28  0  0  0  0  0  0  0  0999 V2000
   18.7692   24.7298   40.6678 C   0  0  0  0  0  0  0  0  0  0  0  0
   24.5097   22.1451   46.2308 C   0  0  0  0  0  0  0  0  0  0  0  0
   22.7032   21.5252   52.3865 P   0  0  1  0  0  0  0  0  0  0  0  0
   22.7400   21.3783   54.9679 P   0  0  1  0  0  0  0  0  0  0  0  0
   22.5702   22.4203   44.2228 C   0  0  0  0  0  0  0  0  0  0  0  0
   21.3250   24.3901   43.2841 C   0  0  0  0  0  0  0  0  0  0  0  0
   21.5638   23.0303   43.2813 C   0  0  0  0  0  0  0  0  0  0  0  0
   20.8495   22.2346   42.3839 C   0  0  0  0  0  0  0  0  0  0  0  0
   21.0523   20.8632   42.3420 N   0  0  0  0  0  0  0  0  0  0  0  0
   19.9667   22.8104   41.5732 N   0  0  0  0  0  0  0  0  0  0  0  0
   19.7736   24.1130   41.6060 C   0  0  0  0  0  0  0  0  0  0  0  0
   20.4318   24.8922   42.4418 N   0  0  0  0  0  0  0  0  0  0  0  0
   22.4603   20.3086   51.5787 O   0  0  0  0  0  0  0  0  0  0  0  0
   21.2452   21.4156   54.5775 O   0  0  0  0  0  0  0  0  0  0  0  0
   21.0684   23.4370   47.5838 S   0  0  0  0  0  0  0  0  0  0  0  0
   20.9989   23.1760   45.8679 C   0  0  0  0  0  0  0  0  0  0  0  0
   21.2996   22.1118   52.9097 O   0  0  0  0  0  0  0  0  0  0  0  0
   22.9966   20.1718   56.0018 O   0  5  0  0  0  0  0  0  0  0  0  0
   22.2147   22.7568   45.6031 N   0  0  0  0  0  0  0  0  0  0  0  0
   23.6338   21.1544   53.6475 O   0  0  0  0  0  0  0  0  0  0  0  0
   23.1303   22.7173   55.6330 O   0  0  0  0  0  0  0  0  0  0  0  0
   23.1179   22.6292   46.5506 C   0  0  2  0  0  0  0  0  0  0  0  0
   22.7708   22.9506   47.8229 C   0  0  2  0  0  0  0  0  0  0  0  0
   23.5912   22.9059   49.0854 C   0  0  0  0  0  0  0  0  0  0  0  0
   22.6625   22.7866   50.2959 C   0  0  0  0  0  0  0  0  0  0  0  0
   23.4445   22.6321   51.4819 O   0  0  0  0  0  0  0  0  0  0  0  0
  1 11  1  0  0  0  0
  3 13  1  6  0  0  0
  3 17  1  0  0  0  0
  3 20  1  0  0  0  0
  3 26  1  0  0  0  0
  4 14  1  0  0  0  0
  4 18  1  1  0  0  0
  4 21  2  0  0  0  0
  4 20  1  0  0  0  0
  5 19  1  0  0  0  0
  5  7  1  0  0  0  0
  6  7  2  0  0  0  0
  6 12  1  0  0  0  0
  7  8  1  0  0  0  0
  8  9  1  0  0  0  0
  8 10  2  0  0  0  0
 10 11  1  0  0  0  0
 11 12  2  0  0  0  0
 14 17  1  0  0  0  0
 15 23  1  0  0  0  0
 15 16  1  0  0  0  0
 16 19  1  0  0  0  0
 19 22  1  0  0  0  0
 22  2  1  6  0  0  0
 22 23  1  0  0  0  0
 23 24  1  1  0  0  0
 24 25  1  0  0  0  0
 25 26  1  0  0  0  0
M  CHG  1  18  -1
M  END
>  <CHROM.1>
17.53175351,56.95510786,23.37837697,175.20385260,-138.98408804,52.43995764
22.01677153,22.42574115,48.59729046,1.76192078,0.49647834,-1.49878781

>  <Name>
ligand

>  <RI>
0

>  <Rbt.Current_Directory>
/home/itssahil/PROJECTS/Mol_Feturizer/New_Systems/rnas/2HOL

>  <Rbt.Executable>
rbdock ($Id: //depot/dev/client3/rdock/2013.1/src/exe/rbdock.cxx#4 $)

>  <Rbt.Library>
libRbt.so (2013.1, Build901 2013/11/27)

>  <Rbt.Parameter_File>
/export/apps/rDock/src/rDock_2013.1_src/data/scripts/dock_solv.prm

>  <Rbt.Receptor>
prm/blind_docking_80.prm

>  <SCORE>
-12.9816

>  <SCORE.INTER>
-15.7591

>  <SCORE.INTER.CONST>
1

>  <SCORE.INTER.POLAR>
0

>  <SCORE.INTER.ROT>
6

>  <SCORE.INTER.SOLV>
15.117

>  <SCORE.INTER.VDW>
-23.1451

>  <SCORE.INTER.norm>
-0.60612

>  <SCORE.INTRA>
0.81981

>  <SCORE.INTRA.DIHEDRAL>
1.17218

>  <SCORE.INTRA.DIHEDRAL.0>
9.33621

>  <SCORE.INTRA.POLAR>
0

>  <SCORE.INTRA.POLAR.0>
0

>  <SCORE.INTRA.REPUL>
0

>  <SCORE.INTRA.REPUL.0>
0

>  <SCORE.INTRA.SOLV>
-0.542132

>  <SCORE.INTRA.SOLV.lig_0>
-65.9238

>  <SCORE.INTRA.VDW>
0.504786

>  <SCORE.INTRA.VDW.0>
-0.405582

>  <SCORE.INTRA.norm>
0.0315312

>  <SCORE.RESTR>
1.95771

>  <SCORE.RESTR.CAVITY>
1.95771

>  <SCORE.RESTR.norm>
0.0752965

>  <SCORE.SYSTEM>
0

>  <SCORE.SYSTEM.CONST>
0

>  <SCORE.SYSTEM.DIHEDRAL>
0

>  <SCORE.SYSTEM.SOLV>
0

>  <SCORE.SYSTEM.norm>
0

>  <SCORE.heavy>
26

>  <SCORE.norm>
-0.499292

>  <RMSD>
26.742

$$$$
ligand
 OpenBabel11021811443D
libRbt.so/2013.1/901 2013/11/27
 26 28  0  0  0  0  0  0  0  0999 V2000
   20.3877   24.2537   39.8461 C   0  0  0  0  0  0  0  0  0  0  0  0
   20.9298   23.3668   47.9923 C   0  0  0  0  0  0  0  0  0  0  0  0
   22.0181   21.4700   51.5812 P   0  0  1  0  0  0  0  0  0  0  0  0
   22.5688   21.2956   54.1017 P   0  0  1  0  0  0  0  0  0  0  0  0
   20.4916   22.6635   45.3122 C   0  0  0  0  0  0  0  0  0  0  0  0
   20.4456   24.4184   43.5151 C   0  0  0  0  0  0  0  0  0  0  0  0
   20.4641   23.0829   43.8650 C   0  0  0  0  0  0  0  0  0  0  0  0
   20.4569   22.1309   42.8441 C   0  0  0  0  0  0  0  0  0  0  0  0
   20.4742   20.7768   43.1429 N   0  0  0  0  0  0  0  0  0  0  0  0
   20.4274   22.5418   41.5797 N   0  0  0  0  0  0  0  0  0  0  0  0
   20.4153   23.8268   41.2905 C   0  0  0  0  0  0  0  0  0  0  0  0
   20.4212   24.7509   42.2313 N   0  0  0  0  0  0  0  0  0  0  0  0
   21.8424   20.2412   50.7745 O   0  0  0  0  0  0  0  0  0  0  0  0
   21.0439   21.0684   53.9953 O   0  0  0  0  0  0  0  0  0  0  0  0
   24.2432   22.6593   46.0269 S   0  0  0  0  0  0  0  0  0  0  0  0
   22.8589   22.4555   44.9976 C   0  0  0  0  0  0  0  0  0  0  0  0
   20.6588   21.7865   52.3812 O   0  0  0  0  0  0  0  0  0  0  0  0
   23.2231   20.1406   55.0117 O   0  5  0  0  0  0  0  0  0  0  0  0
   21.8664   22.7266   45.8133 N   0  0  0  0  0  0  0  0  0  0  0  0
   23.2211   21.2552   52.6301 O   0  0  0  0  0  0  0  0  0  0  0  0
   22.8386   22.6735   54.7469 O   0  0  0  0  0  0  0  0  0  0  0  0
   22.0804   23.0569   47.0682 C   0  0  2  0  0  0  0  0  0  0  0  0
   23.3612   23.1052   47.5152 C   0  0  2  0  0  0  0  0  0  0  0  0
   23.8914   23.4441   48.8838 C   0  0  0  0  0  0  0  0  0  0  0  0
   23.5292   22.3267   49.8648 C   0  0  0  0  0  0  0  0  0  0  0  0
   22.3699   22.7051   50.6097 O   0  0  0  0  0  0  0  0  0  0  0  0
  1 11  1  0  0  0  0
  3 13  1  6  0  0  0
  3 17  1  0  0  0  0
  3 20  1  0  0  0  0
  3 26  1  0  0  0  0
  4 14  1  0  0  0  0
  4 18  1  1  0  0  0
  4 21  2  0  0  0  0
  4 20  1  0  0  0  0
  5 19  1  0  0  0  0
  5  7  1  0  0  0  0
  6  7  2  0  0  0  0
  6 12  1  0  0  0  0
  7  8  1  0  0  0  0
  8  9  1  0  0  0  0
  8 10  2  0  0  0  0
 10 11  1  0  0  0  0
 11 12  2  0  0  0  0
 14 17  1  0  0  0  0
 15 23  1  0  0  0  0
 15 16  1  0  0  0  0
 16 19  1  0  0  0  0
 19 22  1  0  0  0  0
 22  2  1  1  0  0  0
 22 23  1  0  0  0  0
 23 24  1  6  0  0  0
 24 25  1  0  0  0  0
 25 26  1  0  0  0  0
M  CHG  1  18  -1
M  END
>  <CHROM.1>
-33.23543543,-81.93209621,-110.57316463,-98.81743679,178.14086245,-56.06005683
21.95531962,22.33850720,48.22157462,1.71189525,-0.22739564,-1.36555823

>  <Name>
ligand

>  <RI>
0

>  <Rbt.Current_Directory>
/home/itssahil/PROJECTS/Mol_Feturizer/New_Systems/rnas/2HOL

>  <Rbt.Executable>
rbdock ($Id: //depot/dev/client3/rdock/2013.1/src/exe/rbdock.cxx#4 $)

>  <Rbt.Library>
libRbt.so (2013.1, Build901 2013/11/27)

>  <Rbt.Parameter_File>
/export/apps/rDock/src/rDock_2013.1_src/data/scripts/dock_solv.prm

>  <Rbt.Receptor>
prm/blind_docking_80.prm

>  <SCORE>
-11.3146

>  <SCORE.INTER>
-12.4215

>  <SCORE.INTER.CONST>
1

>  <SCORE.INTER.POLAR>
0

>  <SCORE.INTER.ROT>
6

>  <SCORE.INTER.SOLV>
14.4038

>  <SCORE.INTER.VDW>
-20.6823

>  <SCORE.INTER.norm>
-0.477748

>  <SCORE.INTRA>
-0.817665

>  <SCORE.INTRA.DIHEDRAL>
-0.69826

>  <SCORE.INTRA.DIHEDRAL.0>
9.33621

>  <SCORE.INTRA.POLAR>
0

>  <SCORE.INTRA.POLAR.0>
0

>  <SCORE.INTRA.REPUL>
0

>  <SCORE.INTRA.REPUL.0>
0

>  <SCORE.INTRA.SOLV>
0.906447

>  <SCORE.INTRA.SOLV.lig_0>
-65.9238

>  <SCORE.INTRA.VDW>
-0.921758

>  <SCORE.INTRA.VDW.0>
-0.405582

>  <SCORE.INTRA.norm>
-0.0314486

>  <SCORE.RESTR>
1.92453

>  <SCORE.RESTR.CAVITY>
1.92453

>  <SCORE.RESTR.norm>
0.0740206

>  <SCORE.SYSTEM>
0

>  <SCORE.SYSTEM.CONST>
0

>  <SCORE.SYSTEM.DIHEDRAL>
0

>  <SCORE.SYSTEM.SOLV>
0

>  <SCORE.SYSTEM.norm>
0

>  <SCORE.heavy>
26

>  <SCORE.norm>
-0.435176

>  <RMSD>
26.941

$$$$
ligand
 OpenBabel11021811443D
libRbt.so/2013.1/901 2013/11/27
 26 28  0  0  0  0  0  0  0  0999 V2000
   17.6748   23.0703   40.9681 C   0  0  0  0  0  0  0  0  0  0  0  0
   24.5592   21.9879   45.7674 C   0  0  0  0  0  0  0  0  0  0  0  0
   22.6522   22.0609   51.6288 P   0  0  1  0  0  0  0  0  0  0  0  0
   21.6551   21.2380   53.8682 P   0  0  1  0  0  0  0  0  0  0  0  0
   22.5117   22.4685   43.9110 C   0  0  0  0  0  0  0  0  0  0  0  0
   20.5972   21.5349   42.5789 C   0  0  0  0  0  0  0  0  0  0  0  0
   21.2315   22.6293   43.1322 C   0  0  0  0  0  0  0  0  0  0  0  0
   20.6567   23.8886   42.9523 C   0  0  0  0  0  0  0  0  0  0  0  0
   21.2550   25.0195   43.4877 N   0  0  0  0  0  0  0  0  0  0  0  0
   19.5292   23.9889   42.2545 N   0  0  0  0  0  0  0  0  0  0  0  0
   18.9547   22.9174   41.7477 C   0  0  0  0  0  0  0  0  0  0  0  0
   19.4722   21.7139   41.8995 N   0  0  0  0  0  0  0  0  0  0  0  0
   21.8174   22.8426   50.6889 O   0  0  0  0  0  0  0  0  0  0  0  0
   22.0240   22.7206   54.1003 O   0  0  0  0  0  0  0  0  0  0  0  0
   21.2585   23.2946   47.4228 S   0  0  0  0  0  0  0  0  0  0  0  0
   21.0740   23.1578   45.7009 C   0  0  0  0  0  0  0  0  0  0  0  0
   23.2189   23.0318   52.7794 O   0  0  0  0  0  0  0  0  0  0  0  0
   20.1511   20.9715   54.3757 O   0  5  0  0  0  0  0  0  0  0  0  0
   22.2546   22.7182   45.3310 N   0  0  0  0  0  0  0  0  0  0  0  0
   21.7609   20.8983   52.2979 O   0  0  0  0  0  0  0  0  0  0  0  0
   22.6314   20.3366   54.6570 O   0  0  0  0  0  0  0  0  0  0  0  0
   23.2088   22.4941   46.2079 C   0  0  2  0  0  0  0  0  0  0  0  0
   22.9529   22.7362   47.5188 C   0  0  2  0  0  0  0  0  0  0  0  0
   23.8470   22.5752   48.7203 C   0  0  0  0  0  0  0  0  0  0  0  0
   23.4788   21.2895   49.4643 C   0  0  0  0  0  0  0  0  0  0  0  0
   23.8837   21.3981   50.8304 O   0  0  0  0  0  0  0  0  0  0  0  0
  1 11  1  0  0  0  0
  3 13  1  6  0  0  0
  3 17  1  0  0  0  0
  3 20  1  0  0  0  0
  3 26  1  0  0  0  0
  4 14  1  0  0  0  0
  4 18  1  1  0  0  0
  4 21  2  0  0  0  0
  4 20  1  0  0  0  0
  5 19  1  0  0  0  0
  5  7  1  0  0  0  0
  6  7  2  0  0  0  0
  6 12  1  0  0  0  0
  7  8  1  0  0  0  0
  8  9  1  0  0  0  0
  8 10  2  0  0  0  0
 10 11  1  0  0  0  0
 11 12  2  0  0  0  0
 14 17  1  0  0  0  0
 15 23  1  0  0  0  0
 15 16  1  0  0  0  0
 16 19  1  0  0  0  0
 19 22  1  0  0  0  0
 22  2  1  6  0  0  0
 22 23  1  0  0  0  0
 23 24  1  1  0  0  0
 24 25  1  0  0  0  0
 25 26  1  0  0  0  0
M  CHG  1  18  -1
M  END
>  <CHROM.1>
-6.86734873,-109.63412388,77.77234431,-155.90844736,88.92973456,-24.23559111
21.75131702,22.36371606,48.16397401,1.74695564,-0.02164312,-1.42853108

>  <Name>
ligand

>  <RI>
0

>  <Rbt.Current_Directory>
/home/itssahil/PROJECTS/Mol_Feturizer/New_Systems/rnas/2HOL

>  <Rbt.Executable>
rbdock ($Id: //depot/dev/client3/rdock/2013.1/src/exe/rbdock.cxx#4 $)

>  <Rbt.Library>
libRbt.so (2013.1, Build901 2013/11/27)

>  <Rbt.Parameter_File>
/export/apps/rDock/src/rDock_2013.1_src/data/scripts/dock_solv.prm

>  <Rbt.Receptor>
prm/blind_docking_80.prm

>  <SCORE>
-1.56142

>  <SCORE.INTER>
-7.59412

>  <SCORE.INTER.CONST>
1

>  <SCORE.INTER.POLAR>
0

>  <SCORE.INTER.ROT>
6

>  <SCORE.INTER.SOLV>
25.071

>  <SCORE.INTER.VDW>
-21.0197

>  <SCORE.INTER.norm>
-0.292082

>  <SCORE.INTRA>
3.93625

>  <SCORE.INTRA.DIHEDRAL>
2.56687

>  <SCORE.INTRA.DIHEDRAL.0>
9.33621

>  <SCORE.INTRA.POLAR>
0

>  <SCORE.INTRA.POLAR.0>
0

>  <SCORE.INTRA.REPUL>
0

>  <SCORE.INTRA.REPUL.0>
0

>  <SCORE.INTRA.SOLV>
1.67113

>  <SCORE.INTRA.SOLV.lig_0>
-65.9238

>  <SCORE.INTRA.VDW>
1.81725

>  <SCORE.INTRA.VDW.0>
-0.405582

>  <SCORE.INTRA.norm>
0.151394

>  <SCORE.RESTR>
2.09646

>  <SCORE.RESTR.CAVITY>
2.09646

>  <SCORE.RESTR.norm>
0.080633

>  <SCORE.SYSTEM>
0

>  <SCORE.SYSTEM.CONST>
0

>  <SCORE.SYSTEM.DIHEDRAL>
0

>  <SCORE.SYSTEM.SOLV>
0

>  <SCORE.SYSTEM.norm>
0

>  <SCORE.heavy>
26

>  <SCORE.norm>
-0.0600546

>  <RMSD>
27.013

$$$$
ligand
 OpenBabel11021811443D
libRbt.so/2013.1/901 2013/11/27
 26 28  0  0  0  0  0  0  0  0999 V2000
   18.1287   23.4410   41.3676 C   0  0  0  0  0  0  0  0  0  0  0  0
   24.5682   21.7558   45.8625 C   0  0  0  0  0  0  0  0  0  0  0  0
   22.7700   22.0582   52.2299 P   0  0  1  0  0  0  0  0  0  0  0  0
   20.7752   20.6308   53.0482 P   0  0  1  0  0  0  0  0  0  0  0  0
   22.8265   23.5443   44.5830 C   0  0  0  0  0  0  0  0  0  0  0  0
   20.5593   24.4171   43.9428 C   0  0  0  0  0  0  0  0  0  0  0  0
   21.5835   23.5157   43.7312 C   0  0  0  0  0  0  0  0  0  0  0  0
   21.4387   22.5774   42.7079 C   0  0  0  0  0  0  0  0  0  0  0  0
   22.4386   21.6501   42.4552 N   0  0  0  0  0  0  0  0  0  0  0  0
   20.3246   22.5819   41.9819 N   0  0  0  0  0  0  0  0  0  0  0  0
   19.3740   23.4634   42.2151 C   0  0  0  0  0  0  0  0  0  0  0  0
   19.4798   24.3624   43.1741 N   0  0  0  0  0  0  0  0  0  0  0  0
   23.1912   23.2518   52.9977 O   0  0  0  0  0  0  0  0  0  0  0  0
   21.9815   20.1844   53.9048 O   0  0  0  0  0  0  0  0  0  0  0  0
   21.4657   22.7133   48.0533 S   0  0  0  0  0  0  0  0  0  0  0  0
   21.4068   23.5167   46.5143 C   0  0  0  0  0  0  0  0  0  0  0  0
   23.3864   20.7370   52.9098 O   0  0  0  0  0  0  0  0  0  0  0  0
   19.5182   20.9361   54.0059 O   0  5  0  0  0  0  0  0  0  0  0  0
   22.5029   23.0841   45.9352 N   0  0  0  0  0  0  0  0  0  0  0  0
   21.1625   21.9615   52.2285 O   0  0  0  0  0  0  0  0  0  0  0  0
   20.4050   19.5048   52.0569 O   0  0  0  0  0  0  0  0  0  0  0  0
   23.3137   22.2445   46.5415 C   0  0  2  0  0  0  0  0  0  0  0  0
   22.9992   21.8334   47.7963 C   0  0  2  0  0  0  0  0  0  0  0  0
   23.7359   20.8940   48.7148 C   0  0  0  0  0  0  0  0  0  0  0  0
   23.0796   20.9095   50.0973 C   0  0  0  0  0  0  0  0  0  0  0  0
   23.2998   22.1796   50.7140 O   0  0  0  0  0  0  0  0  0  0  0  0
  1 11  1  0  0  0  0
  3 13  1  1  0  0  0
  3 17  1  0  0  0  0
  3 20  1  0  0  0  0
  3 26  1  0  0  0  0
  4 14  1  0  0  0  0
  4 18  1  1  0  0  0
  4 21  2  0  0  0  0
  4 20  1  0  0  0  0
  5 19  1  0  0  0  0
  5  7  1  0  0  0  0
  6  7  2  0  0  0  0
  6 12  1  0  0  0  0
  7  8  1  0  0  0  0
  8  9  1  0  0  0  0
  8 10  2  0  0  0  0
 10 11  1  0  0  0  0
 11 12  2  0  0  0  0
 14 17  1  0  0  0  0
 15 23  1  0  0  0  0
 15 16  1  0  0  0  0
 16 19  1  0  0  0  0
 19 22  1  0  0  0  0
 22  2  1  1  0  0  0
 22 23  1  0  0  0  0
 23 24  1  6  0  0  0
 24 25  1  0  0  0  0
 25 26  1  0  0  0  0
M  CHG  1  18  -1
M  END
>  <CHROM.1>
-43.59015943,70.40430158,-8.31635833,-68.39152973,-172.23376962,169.69271138
21.75583809,22.11862447,48.34545331,1.67240408,0.02963145,-1.36601749

>  <Name>
ligand

>  <RI>
0

>  <Rbt.Current_Directory>
/home/itssahil/PROJECTS/Mol_Feturizer/New_Systems/rnas/2HOL

>  <Rbt.Executable>
rbdock ($Id: //depot/dev/client3/rdock/2013.1/src/exe/rbdock.cxx#4 $)

>  <Rbt.Library>
libRbt.so (2013.1, Build901 2013/11/27)

>  <Rbt.Parameter_File>
/export/apps/rDock/src/rDock_2013.1_src/data/scripts/dock_solv.prm

>  <Rbt.Receptor>
prm/blind_docking_80.prm

>  <SCORE>
-7.58835

>  <SCORE.INTER>
-8.94331

>  <SCORE.INTER.CONST>
1

>  <SCORE.INTER.POLAR>
0

>  <SCORE.INTER.ROT>
6

>  <SCORE.INTER.SOLV>
20.2739

>  <SCORE.INTER.VDW>
-20.3202

>  <SCORE.INTER.norm>
-0.343974

>  <SCORE.INTRA>
-2.52159

>  <SCORE.INTRA.DIHEDRAL>
-4.02055

>  <SCORE.INTRA.DIHEDRAL.0>
9.33621

>  <SCORE.INTRA.POLAR>
0

>  <SCORE.INTRA.POLAR.0>
0

>  <SCORE.INTRA.REPUL>
0

>  <SCORE.INTRA.REPUL.0>
0

>  <SCORE.INTRA.SOLV>
1.14434

>  <SCORE.INTRA.SOLV.lig_0>
-65.9238

>  <SCORE.INTRA.VDW>
-1.08349

>  <SCORE.INTRA.VDW.0>
-0.405582

>  <SCORE.INTRA.norm>
-0.0969843

>  <SCORE.RESTR>
3.87656

>  <SCORE.RESTR.CAVITY>
3.87656

>  <SCORE.RESTR.norm>
0.149098

>  <SCORE.SYSTEM>
0

>  <SCORE.SYSTEM.CONST>
0

>  <SCORE.SYSTEM.DIHEDRAL>
0

>  <SCORE.SYSTEM.SOLV>
0

>  <SCORE.SYSTEM.norm>
0

>  <SCORE.heavy>
26

>  <SCORE.norm>
-0.291859

>  <RMSD>
27.030

$$$$
ligand
 OpenBabel11021811443D
libRbt.so/2013.1/901 2013/11/27
 26 28  0  0  0  0  0  0  0  0999 V2000
   23.1171   21.9259   56.4255 C   0  0  0  0  0  0  0  0  0  0  0  0
   20.8430   20.9005   48.4180 C   0  0  0  0  0  0  0  0  0  0  0  0
   21.3373   23.5513   43.6912 P   0  0  1  0  0  0  0  0  0  0  0  0
   20.2161   23.7831   41.3726 P   0  0  1  0  0  0  0  0  0  0  0  0
   22.0089   20.7528   50.9653 C   0  0  0  0  0  0  0  0  0  0  0  0
   23.6007   21.1620   52.8653 C   0  0  0  0  0  0  0  0  0  0  0  0
   22.3007   21.0633   52.4108 C   0  0  0  0  0  0  0  0  0  0  0  0
   21.2634   21.2588   53.3243 C   0  0  0  0  0  0  0  0  0  0  0  0
   19.9404   21.1699   52.9180 N   0  0  0  0  0  0  0  0  0  0  0  0
   21.5627   21.5260   54.5921 N   0  0  0  0  0  0  0  0  0  0  0  0
   22.8176   21.6158   54.9820 C   0  0  0  0  0  0  0  0  0  0  0  0
   23.8202   21.4364   54.1443 N   0  0  0  0  0  0  0  0  0  0  0  0
   22.6373   24.2088   43.9545 O   0  0  0  0  0  0  0  0  0  0  0  0
   19.8881   25.0937   42.1230 O   0  0  0  0  0  0  0  0  0  0  0  0
   22.9234   24.0875   49.3439 S   0  0  0  0  0  0  0  0  0  0  0  0
   22.9625   22.9273   50.6361 C   0  0  0  0  0  0  0  0  0  0  0  0
   20.1502   24.6253   43.8496 O   0  0  0  0  0  0  0  0  0  0  0  0
   20.7771   24.1292   39.9044 O   0  5  0  0  0  0  0  0  0  0  0  0
   22.2266   21.9526   50.1541 N   0  0  0  0  0  0  0  0  0  0  0  0
   21.3297   22.9593   42.1935 O   0  0  0  0  0  0  0  0  0  0  0  0
   18.9341   22.9300   41.2455 O   0  0  0  0  0  0  0  0  0  0  0  0
   21.6846   22.0291   48.9582 C   0  0  2  0  0  0  0  0  0  0  0  0
   21.8938   23.1511   48.2235 C   0  0  2  0  0  0  0  0  0  0  0  0
   21.3992   23.5063   46.8458 C   0  0  0  0  0  0  0  0  0  0  0  0
   22.0364   22.5709   45.8157 C   0  0  0  0  0  0  0  0  0  0  0  0
   21.1195   22.3507   44.7420 O   0  0  0  0  0  0  0  0  0  0  0  0
  1 11  1  0  0  0  0
  3 13  1  1  0  0  0
  3 17  1  0  0  0  0
  3 20  1  0  0  0  0
  3 26  1  0  0  0  0
  4 14  1  0  0  0  0
  4 18  1  6  0  0  0
  4 21  2  0  0  0  0
  4 20  1  0  0  0  0
  5 19  1  0  0  0  0
  5  7  1  0  0  0  0
  6  7  2  0  0  0  0
  6 12  1  0  0  0  0
  7  8  1  0  0  0  0
  8  9  1  0  0  0  0
  8 10  2  0  0  0  0
 10 11  1  0  0  0  0
 11 12  2  0  0  0  0
 14 17  1  0  0  0  0
 15 23  1  0  0  0  0
 15 16  1  0  0  0  0
 16 19  1  0  0  0  0
 19 22  1  0  0  0  0
 22  2  1  1  0  0  0
 22 23  1  0  0  0  0
 23 24  1  6  0  0  0
 24 25  1  0  0  0  0
 25 26  1  0  0  0  0
M  CHG  1  18  -1
M  END
>  <CHROM.1>
19.29452448,-76.61228741,113.46008769,147.59211471,86.42815205,17.26220735
21.57636378,22.77608292,47.53811921,-1.36709267,-0.67127869,-1.25519159

>  <Name>
ligand

>  <RI>
0

>  <Rbt.Current_Directory>
/home/itssahil/PROJECTS/Mol_Feturizer/New_Systems/rnas/2HOL

>  <Rbt.Executable>
rbdock ($Id: //depot/dev/client3/rdock/2013.1/src/exe/rbdock.cxx#4 $)

>  <Rbt.Library>
libRbt.so (2013.1, Build901 2013/11/27)

>  <Rbt.Parameter_File>
/export/apps/rDock/src/rDock_2013.1_src/data/scripts/dock_solv.prm

>  <Rbt.Receptor>
prm/blind_docking_80.prm

>  <SCORE>
-10.1733

>  <SCORE.INTER>
-14.9719

>  <SCORE.INTER.CONST>
1

>  <SCORE.INTER.POLAR>
0

>  <SCORE.INTER.ROT>
6

>  <SCORE.INTER.SOLV>
19.4457

>  <SCORE.INTER.VDW>
-24.0632

>  <SCORE.INTER.norm>
-0.575843

>  <SCORE.INTRA>
4.10064

>  <SCORE.INTRA.DIHEDRAL>
3.21406

>  <SCORE.INTRA.DIHEDRAL.0>
9.33621

>  <SCORE.INTRA.POLAR>
0

>  <SCORE.INTRA.POLAR.0>
0

>  <SCORE.INTRA.REPUL>
0

>  <SCORE.INTRA.REPUL.0>
0

>  <SCORE.INTRA.SOLV>
0.286527

>  <SCORE.INTRA.SOLV.lig_0>
-65.9238

>  <SCORE.INTRA.VDW>
2.35035

>  <SCORE.INTRA.VDW.0>
-0.405582

>  <SCORE.INTRA.norm>
0.157717

>  <SCORE.RESTR>
0.69799

>  <SCORE.RESTR.CAVITY>
0.69799

>  <SCORE.RESTR.norm>
0.0268458

>  <SCORE.SYSTEM>
0

>  <SCORE.SYSTEM.CONST>
0

>  <SCORE.SYSTEM.DIHEDRAL>
0

>  <SCORE.SYSTEM.SOLV>
0

>  <SCORE.SYSTEM.norm>
0

>  <SCORE.heavy>
26

>  <SCORE.norm>
-0.39128

>  <RMSD>
27.040

$$$$
ligand
 OpenBabel11021811443D
libRbt.so/2013.1/901 2013/11/27
 26 28  0  0  0  0  0  0  0  0999 V2000
   23.0793   21.5988   55.7528 C   0  0  0  0  0  0  0  0  0  0  0  0
   22.3346   20.5383   47.9310 C   0  0  0  0  0  0  0  0  0  0  0  0
   20.8863   23.3776   44.3362 P   0  0  1  0  0  0  0  0  0  0  0  0
   20.3826   23.3114   41.8008 P   0  0  1  0  0  0  0  0  0  0  0  0
   21.2697   21.4628   50.3561 C   0  0  0  0  0  0  0  0  0  0  0  0
   20.8865   21.8147   52.8139 C   0  0  0  0  0  0  0  0  0  0  0  0
   21.7500   21.4985   51.7841 C   0  0  0  0  0  0  0  0  0  0  0  0
   23.0795   21.2122   52.0992 C   0  0  0  0  0  0  0  0  0  0  0  0
   23.9866   20.8894   51.1010 N   0  0  0  0  0  0  0  0  0  0  0  0
   23.4651   21.2594   53.3709 N   0  0  0  0  0  0  0  0  0  0  0  0
   22.6063   21.5612   54.3230 C   0  0  0  0  0  0  0  0  0  0  0  0
   21.3442   21.8368   54.0586 N   0  0  0  0  0  0  0  0  0  0  0  0
   20.6558   24.6215   45.1051 O   0  0  0  0  0  0  0  0  0  0  0  0
   19.0149   23.1357   42.4984 O   0  0  0  0  0  0  0  0  0  0  0  0
   23.2745   24.2616   48.7030 S   0  0  0  0  0  0  0  0  0  0  0  0
   22.2916   23.5968   49.9716 C   0  0  0  0  0  0  0  0  0  0  0  0
   19.4941   22.5923   44.1550 O   0  0  0  0  0  0  0  0  0  0  0  0
   20.2670   24.4487   40.6679 O   0  5  0  0  0  0  0  0  0  0  0  0
   22.0807   22.3732   49.5447 N   0  0  0  0  0  0  0  0  0  0  0  0
   21.4876   23.7460   42.8884 O   0  0  0  0  0  0  0  0  0  0  0  0
   20.8009   21.9751   41.1473 O   0  0  0  0  0  0  0  0  0  0  0  0
   22.5847   21.9471   48.4071 C   0  0  2  0  0  0  0  0  0  0  0  0
   23.3295   22.8072   47.6668 C   0  0  2  0  0  0  0  0  0  0  0  0
   24.0150   22.5937   46.3426 C   0  0  0  0  0  0  0  0  0  0  0  0
   23.1539   23.1772   45.2201 C   0  0  0  0  0  0  0  0  0  0  0  0
   21.9317   22.4426   45.1273 O   0  0  0  0  0  0  0  0  0  0  0  0
  1 11  1  0  0  0  0
  3 13  1  1  0  0  0
  3 17  1  0  0  0  0
  3 20  1  0  0  0  0
  3 26  1  0  0  0  0
  4 14  1  0  0  0  0
  4 18  1  6  0  0  0
  4 21  2  0  0  0  0
  4 20  1  0  0  0  0
  5 19  1  0  0  0  0
  5  7  1  0  0  0  0
  6  7  2  0  0  0  0
  6 12  1  0  0  0  0
  7  8  1  0  0  0  0
  8  9  1  0  0  0  0
  8 10  2  0  0  0  0
 10 11  1  0  0  0  0
 11 12  2  0  0  0  0
 14 17  1  0  0  0  0
 15 23  1  0  0  0  0
 15 16  1  0  0  0  0
 16 19  1  0  0  0  0
 19 22  1  0  0  0  0
 22  2  1  6  0  0  0
 22 23  1  0  0  0  0
 23 24  1  1  0  0  0
 24 25  1  0  0  0  0
 25 26  1  0  0  0  0
M  CHG  1  18  -1
M  END
>  <CHROM.1>
-48.58478420,123.44804258,-80.76326577,-65.34221940,160.47954320,-61.62659340
21.80111246,22.64731901,47.35684257,1.37405158,0.24573223,1.77547348

>  <Name>
ligand

>  <RI>
0

>  <Rbt.Current_Directory>
/home/itssahil/PROJECTS/Mol_Feturizer/New_Systems/rnas/2HOL

>  <Rbt.Executable>
rbdock ($Id: //depot/dev/client3/rdock/2013.1/src/exe/rbdock.cxx#4 $)

>  <Rbt.Library>
libRbt.so (2013.1, Build901 2013/11/27)

>  <Rbt.Parameter_File>
/export/apps/rDock/src/rDock_2013.1_src/data/scripts/dock_solv.prm

>  <Rbt.Receptor>
prm/blind_docking_80.prm

>  <SCORE>
-18.4879

>  <SCORE.INTER>
-17.0093

>  <SCORE.INTER.CONST>
1

>  <SCORE.INTER.POLAR>
0

>  <SCORE.INTER.ROT>
6

>  <SCORE.INTER.SOLV>
15.6769

>  <SCORE.INTER.VDW>
-24.1652

>  <SCORE.INTER.norm>
-0.654205

>  <SCORE.INTRA>
-1.96902

>  <SCORE.INTRA.DIHEDRAL>
-2.48876

>  <SCORE.INTRA.DIHEDRAL.0>
9.33621

>  <SCORE.INTRA.POLAR>
0

>  <SCORE.INTRA.POLAR.0>
0

>  <SCORE.INTRA.REPUL>
0

>  <SCORE.INTRA.REPUL.0>
0

>  <SCORE.INTRA.SOLV>
3.10999

>  <SCORE.INTRA.SOLV.lig_0>
-65.9238

>  <SCORE.INTRA.VDW>
-2.27963

>  <SCORE.INTRA.VDW.0>
-0.405582

>  <SCORE.INTRA.norm>
-0.0757314

>  <SCORE.RESTR>
0.490449

>  <SCORE.RESTR.CAVITY>
0.490449

>  <SCORE.RESTR.norm>
0.0188634

>  <SCORE.SYSTEM>
0

>  <SCORE.SYSTEM.CONST>
0

>  <SCORE.SYSTEM.DIHEDRAL>
0

>  <SCORE.SYSTEM.SOLV>
0

>  <SCORE.SYSTEM.norm>
0

>  <SCORE.heavy>
26

>  <SCORE.norm>
-0.711073

>  <RMSD>
27.178

$$$$
ligand
 OpenBabel11021811443D
libRbt.so/2013.1/901 2013/11/27
 26 28  0  0  0  0  0  0  0  0999 V2000
   22.9349   21.9472   56.3129 C   0  0  0  0  0  0  0  0  0  0  0  0
   22.5346   20.7014   48.0343 C   0  0  0  0  0  0  0  0  0  0  0  0
   20.7182   23.3717   43.5804 P   0  0  1  0  0  0  0  0  0  0  0  0
   20.3342   23.7549   41.0522 P   0  0  1  0  0  0  0  0  0  0  0  0
   22.0287   20.9344   50.7838 C   0  0  0  0  0  0  0  0  0  0  0  0
   21.2600   21.6866   53.0542 C   0  0  0  0  0  0  0  0  0  0  0  0
   22.2700   21.2021   52.2471 C   0  0  0  0  0  0  0  0  0  0  0  0
   23.5204   20.9661   52.8210 C   0  0  0  0  0  0  0  0  0  0  0  0
   24.5680   20.4802   52.0531 N   0  0  0  0  0  0  0  0  0  0  0  0
   23.6942   21.2198   54.1147 N   0  0  0  0  0  0  0  0  0  0  0  0
   22.7012   21.6773   54.8494 C   0  0  0  0  0  0  0  0  0  0  0  0
   21.5084   21.9109   54.3377 N   0  0  0  0  0  0  0  0  0  0  0  0
   19.5818   23.4638   44.5247 O   0  0  0  0  0  0  0  0  0  0  0  0
   19.8841   22.3016   41.3227 O   0  0  0  0  0  0  0  0  0  0  0  0
   22.7166   24.3955   49.3235 S   0  0  0  0  0  0  0  0  0  0  0  0
   22.3394   23.3058   50.6225 C   0  0  0  0  0  0  0  0  0  0  0  0
   20.7194   21.9230   42.8810 O   0  0  0  0  0  0  0  0  0  0  0  0
   19.1966   24.5234   40.2121 O   0  5  0  0  0  0  0  0  0  0  0  0
   22.3198   22.1440   50.0111 N   0  0  0  0  0  0  0  0  0  0  0  0
   20.5722   24.5124   42.4530 O   0  0  0  0  0  0  0  0  0  0  0  0
   21.6507   23.7424   40.2433 O   0  0  0  0  0  0  0  0  0  0  0  0
   22.5594   22.0432   48.7219 C   0  0  2  0  0  0  0  0  0  0  0  0
   22.8223   23.1761   48.0220 C   0  0  2  0  0  0  0  0  0  0  0  0
   23.1233   23.3551   46.5570 C   0  0  0  0  0  0  0  0  0  0  0  0
   21.8157   23.3577   45.7619 C   0  0  0  0  0  0  0  0  0  0  0  0
   22.0999   23.5836   44.3798 O   0  0  0  0  0  0  0  0  0  0  0  0
  1 11  1  0  0  0  0
  3 13  1  1  0  0  0
  3 17  1  0  0  0  0
  3 20  1  0  0  0  0
  3 26  1  0  0  0  0
  4 14  1  0  0  0  0
  4 18  1  6  0  0  0
  4 21  2  0  0  0  0
  4 20  1  0  0  0  0
  5 19  1  0  0  0  0
  5  7  1  0  0  0  0
  6  7  2  0  0  0  0
  6 12  1  0  0  0  0
  7  8  1  0  0  0  0
  8  9  1  0  0  0  0
  8 10  2  0  0  0  0
 10 11  1  0  0  0  0
 11 12  2  0  0  0  0
 14 17  1  0  0  0  0
 15 23  1  0  0  0  0
 15 16  1  0  0  0  0
 16 19  1  0  0  0  0
 19 22  1  0  0  0  0
 22  2  1  6  0  0  0
 22 23  1  0  0  0  0
 23 24  1  1  0  0  0
 24 25  1  0  0  0  0
 25 26  1  0  0  0  0
M  CHG  1  18  -1
M  END
>  <CHROM.1>
-19.69610815,89.49340386,-98.94994286,177.59383104,172.32631902,18.44644088
21.76479034,22.73272900,47.31909654,0.47719009,-1.34796902,0.65110840

>  <Name>
ligand

>  <RI>
0

>  <Rbt.Current_Directory>
/home/itssahil/PROJECTS/Mol_Feturizer/New_Systems/rnas/2HOL

>  <Rbt.Executable>
rbdock ($Id: //depot/dev/client3/rdock/2013.1/src/exe/rbdock.cxx#4 $)

>  <Rbt.Library>
libRbt.so (2013.1, Build901 2013/11/27)

>  <Rbt.Parameter_File>
/export/apps/rDock/src/rDock_2013.1_src/data/scripts/dock_solv.prm

>  <Rbt.Receptor>
prm/blind_docking_80.prm

>  <SCORE>
-12.4069

>  <SCORE.INTER>
-13.8417

>  <SCORE.INTER.CONST>
1

>  <SCORE.INTER.POLAR>
0

>  <SCORE.INTER.ROT>
6

>  <SCORE.INTER.SOLV>
19.9444

>  <SCORE.INTER.VDW>
-23.476

>  <SCORE.INTER.norm>
-0.532375

>  <SCORE.INTRA>
0.372151

>  <SCORE.INTRA.DIHEDRAL>
-2.40156

>  <SCORE.INTRA.DIHEDRAL.0>
9.33621

>  <SCORE.INTRA.POLAR>
0

>  <SCORE.INTRA.POLAR.0>
0

>  <SCORE.INTRA.REPUL>
0

>  <SCORE.INTRA.REPUL.0>
0

>  <SCORE.INTRA.SOLV>
0.237243

>  <SCORE.INTRA.SOLV.lig_0>
-65.9238

>  <SCORE.INTRA.VDW>
1.45431

>  <SCORE.INTRA.VDW.0>
-0.405582

>  <SCORE.INTRA.norm>
0.0143135

>  <SCORE.RESTR>
1.06273

>  <SCORE.RESTR.CAVITY>
1.06273

>  <SCORE.RESTR.norm>
0.0408743

>  <SCORE.SYSTEM>
0

>  <SCORE.SYSTEM.CONST>
0

>  <SCORE.SYSTEM.DIHEDRAL>
0

>  <SCORE.SYSTEM.SOLV>
0

>  <SCORE.SYSTEM.norm>
0

>  <SCORE.heavy>
26

>  <SCORE.norm>
-0.477187

>  <RMSD>
27.253

$$$$
ligand
 OpenBabel11021811443D
libRbt.so/2013.1/901 2013/11/27
 26 28  0  0  0  0  0  0  0  0999 V2000
   22.5520   21.7759   55.8466 C   0  0  0  0  0  0  0  0  0  0  0  0
   23.8187   20.6153   47.5504 C   0  0  0  0  0  0  0  0  0  0  0  0
   20.8886   23.6568   43.4606 P   0  0  1  0  0  0  0  0  0  0  0  0
   20.2828   22.8514   41.0792 P   0  0  1  0  0  0  0  0  0  0  0  0
   23.5014   20.7017   50.3363 C   0  0  0  0  0  0  0  0  0  0  0  0
   24.2649   20.8803   52.7231 C   0  0  0  0  0  0  0  0  0  0  0  0
   23.2487   20.9863   51.7945 C   0  0  0  0  0  0  0  0  0  0  0  0
   21.9810   21.3641   52.2406 C   0  0  0  0  0  0  0  0  0  0  0  0
   20.9265   21.4844   51.3478 N   0  0  0  0  0  0  0  0  0  0  0  0
   21.7978   21.6016   53.5361 N   0  0  0  0  0  0  0  0  0  0  0  0
   22.7971   21.4930   54.3874 C   0  0  0  0  0  0  0  0  0  0  0  0
   24.0060   21.1380   53.9982 N   0  0  0  0  0  0  0  0  0  0  0  0
   19.9868   24.5840   44.1808 O   0  0  0  0  0  0  0  0  0  0  0  0
   19.4449   21.9750   42.0373 O   0  0  0  0  0  0  0  0  0  0  0  0
   23.2355   24.2384   48.9198 S   0  0  0  0  0  0  0  0  0  0  0  0
   23.2330   23.0806   50.2148 C   0  0  0  0  0  0  0  0  0  0  0  0
   20.3358   22.1526   43.6007 O   0  0  0  0  0  0  0  0  0  0  0  0
   19.3338   23.4427   39.9216 O   0  5  0  0  0  0  0  0  0  0  0  0
   23.4359   21.9517   49.5759 N   0  0  0  0  0  0  0  0  0  0  0  0
   20.9454   24.0653   41.9039 O   0  0  0  0  0  0  0  0  0  0  0  0
   21.3981   21.9928   40.4415 O   0  0  0  0  0  0  0  0  0  0  0  0
   23.5850   21.9199   48.2695 C   0  0  2  0  0  0  0  0  0  0  0  0
   23.5161   23.0882   47.5818 C   0  0  2  0  0  0  0  0  0  0  0  0
   23.6446   23.3441   46.1030 C   0  0  0  0  0  0  0  0  0  0  0  0
   22.2541   23.3666   45.4643 C   0  0  0  0  0  0  0  0  0  0  0  0
   22.3675   23.7467   44.0914 O   0  0  0  0  0  0  0  0  0  0  0  0
  1 11  1  0  0  0  0
  3 13  1  1  0  0  0
  3 17  1  0  0  0  0
  3 20  1  0  0  0  0
  3 26  1  0  0  0  0
  4 14  1  0  0  0  0
  4 18  1  6  0  0  0
  4 21  2  0  0  0  0
  4 20  1  0  0  0  0
  5 19  1  0  0  0  0
  5  7  1  0  0  0  0
  6  7  2  0  0  0  0
  6 12  1  0  0  0  0
  7  8  1  0  0  0  0
  8  9  1  0  0  0  0
  8 10  2  0  0  0  0
 10 11  1  0  0  0  0
 11 12  2  0  0  0  0
 14 17  1  0  0  0  0
 15 23  1  0  0  0  0
 15 16  1  0  0  0  0
 16 19  1  0  0  0  0
 19 22  1  0  0  0  0
 22  2  1  6  0  0  0
 22 23  1  0  0  0  0
 23 24  1  1  0  0  0
 24 25  1  0  0  0  0
 25 26  1  0  0  0  0
M  CHG  1  18  -1
M  END
>  <CHROM.1>
2.43089983,-109.97982267,-85.75578631,174.01000549,176.39796008,60.42602743
22.01501224,22.55610947,47.05434009,1.32788127,0.39207824,1.80331588

>  <Name>
ligand

>  <RI>
0

>  <Rbt.Current_Directory>
/home/itssahil/PROJECTS/Mol_Feturizer/New_Systems/rnas/2HOL

>  <Rbt.Executable>
rbdock ($Id: //depot/dev/client3/rdock/2013.1/src/exe/rbdock.cxx#4 $)

>  <Rbt.Library>
libRbt.so (2013.1, Build901 2013/11/27)

>  <Rbt.Parameter_File>
/export/apps/rDock/src/rDock_2013.1_src/data/scripts/dock_solv.prm

>  <Rbt.Receptor>
prm/blind_docking_80.prm

>  <SCORE>
-16.9333

>  <SCORE.INTER>
-15.6474

>  <SCORE.INTER.CONST>
1

>  <SCORE.INTER.POLAR>
0

>  <SCORE.INTER.ROT>
6

>  <SCORE.INTER.SOLV>
15.9983

>  <SCORE.INTER.VDW>
-23.3644

>  <SCORE.INTER.norm>
-0.601824

>  <SCORE.INTRA>
-1.81798

>  <SCORE.INTRA.DIHEDRAL>
-4.20076

>  <SCORE.INTRA.DIHEDRAL.0>
9.33621

>  <SCORE.INTRA.POLAR>
0

>  <SCORE.INTRA.POLAR.0>
0

>  <SCORE.INTRA.REPUL>
0

>  <SCORE.INTRA.REPUL.0>
0

>  <SCORE.INTRA.SOLV>
0.827621

>  <SCORE.INTRA.SOLV.lig_0>
-65.9238

>  <SCORE.INTRA.VDW>
-0.131413

>  <SCORE.INTRA.VDW.0>
-0.405582

>  <SCORE.INTRA.norm>
-0.0699225

>  <SCORE.RESTR>
0.532124

>  <SCORE.RESTR.CAVITY>
0.532124

>  <SCORE.RESTR.norm>
0.0204663

>  <SCORE.SYSTEM>
0

>  <SCORE.SYSTEM.CONST>
0

>  <SCORE.SYSTEM.DIHEDRAL>
0

>  <SCORE.SYSTEM.SOLV>
0

>  <SCORE.SYSTEM.norm>
0

>  <SCORE.heavy>
26

>  <SCORE.norm>
-0.65128

>  <RMSD>
27.490

$$$$
ligand
 OpenBabel11021811443D
libRbt.so/2013.1/901 2013/11/27
 26 28  0  0  0  0  0  0  0  0999 V2000
   24.3886   19.7978   54.6663 C   0  0  0  0  0  0  0  0  0  0  0  0
   23.2718   23.6592   48.0940 C   0  0  0  0  0  0  0  0  0  0  0  0
   20.4093   23.7137   42.9741 P   0  0  1  0  0  0  0  0  0  0  0  0
   19.8213   23.8524   40.4598 P   0  0  1  0  0  0  0  0  0  0  0  0
   22.2523   23.2515   50.6755 C   0  0  0  0  0  0  0  0  0  0  0  0
   22.6057   22.5856   53.0720 C   0  0  0  0  0  0  0  0  0  0  0  0
   22.8184   22.3365   51.7308 C   0  0  0  0  0  0  0  0  0  0  0  0
   23.5710   21.2154   51.3768 C   0  0  0  0  0  0  0  0  0  0  0  0
   23.8136   20.9216   50.0433 N   0  0  0  0  0  0  0  0  0  0  0  0
   24.0573   20.4357   52.3380 N   0  0  0  0  0  0  0  0  0  0  0  0
   23.8260   20.7079   53.6059 C   0  0  0  0  0  0  0  0  0  0  0  0
   23.1194   21.7590   53.9733 N   0  0  0  0  0  0  0  0  0  0  0  0
   20.4794   24.9485   43.7877 O   0  0  0  0  0  0  0  0  0  0  0  0
   18.4715   23.9502   41.2057 O   0  0  0  0  0  0  0  0  0  0  0  0
   20.4964   20.8987   48.2329 S   0  0  0  0  0  0  0  0  0  0  0  0
   20.7822   21.5673   49.8104 C   0  0  0  0  0  0  0  0  0  0  0  0
   18.8746   23.2548   42.8253 O   0  0  0  0  0  0  0  0  0  0  0  0
   19.9188   25.0293   39.3662 O   0  5  0  0  0  0  0  0  0  0  0  0
   21.7218   22.4521   49.5690 N   0  0  0  0  0  0  0  0  0  0  0  0
   21.0290   23.9973   41.5149 O   0  0  0  0  0  0  0  0  0  0  0  0
   19.9181   22.4826   39.7513 O   0  0  0  0  0  0  0  0  0  0  0  0
   22.1934   22.6381   48.3554 C   0  0  2  0  0  0  0  0  0  0  0  0
   21.6926   21.8841   47.3439 C   0  0  2  0  0  0  0  0  0  0  0  0
   22.0443   21.8816   45.8793 C   0  0  0  0  0  0  0  0  0  0  0  0
   20.9711   22.6383   45.0934 C   0  0  0  0  0  0  0  0  0  0  0  0
   21.2518   22.5462   43.6952 O   0  0  0  0  0  0  0  0  0  0  0  0
  1 11  1  0  0  0  0
  3 13  1  1  0  0  0
  3 17  1  0  0  0  0
  3 20  1  0  0  0  0
  3 26  1  0  0  0  0
  4 14  1  0  0  0  0
  4 18  1  6  0  0  0
  4 21  2  0  0  0  0
  4 20  1  0  0  0  0
  5 19  1  0  0  0  0
  5  7  1  0  0  0  0
  6  7  2  0  0  0  0
  6 12  1  0  0  0  0
  7  8  1  0  0  0  0
  8  9  1  0  0  0  0
  8 10  2  0  0  0  0
 10 11  1  0  0  0  0
 11 12  2  0  0  0  0
 14 17  1  0  0  0  0
 15 23  1  0  0  0  0
 15 16  1  0  0  0  0
 16 19  1  0  0  0  0
 19 22  1  0  0  0  0
 22  2  1  1  0  0  0
 22 23  1  0  0  0  0
 23 24  1  6  0  0  0
 24 25  1  0  0  0  0
 25 26  1  0  0  0  0
M  CHG  1  18  -1
M  END
>  <CHROM.1>
58.33058135,-138.43118959,77.62465986,-175.55148754,-162.13636505,41.25165572
21.43291714,22.57456366,46.59424385,0.94172571,1.07961652,2.36237691

>  <Name>
ligand

>  <RI>
0

>  <Rbt.Current_Directory>
/home/itssahil/PROJECTS/Mol_Feturizer/New_Systems/rnas/2HOL

>  <Rbt.Executable>
rbdock ($Id: //depot/dev/client3/rdock/2013.1/src/exe/rbdock.cxx#4 $)

>  <Rbt.Library>
libRbt.so (2013.1, Build901 2013/11/27)

>  <Rbt.Parameter_File>
/export/apps/rDock/src/rDock_2013.1_src/data/scripts/dock_solv.prm

>  <Rbt.Receptor>
prm/blind_docking_80.prm

>  <SCORE>
-7.00917

>  <SCORE.INTER>
-8.89638

>  <SCORE.INTER.CONST>
1

>  <SCORE.INTER.POLAR>
0

>  <SCORE.INTER.ROT>
6

>  <SCORE.INTER.SOLV>
14.106

>  <SCORE.INTER.VDW>
-18.2329

>  <SCORE.INTER.norm>
-0.342168

>  <SCORE.INTRA>
-0.0487328

>  <SCORE.INTRA.DIHEDRAL>
-2.23114

>  <SCORE.INTRA.DIHEDRAL.0>
9.33621

>  <SCORE.INTRA.POLAR>
0

>  <SCORE.INTRA.POLAR.0>
0

>  <SCORE.INTRA.REPUL>
0

>  <SCORE.INTRA.REPUL.0>
0

>  <SCORE.INTRA.SOLV>
3.94013

>  <SCORE.INTRA.SOLV.lig_0>
-65.9238

>  <SCORE.INTRA.VDW>
-0.903231

>  <SCORE.INTRA.VDW.0>
-0.405582

>  <SCORE.INTRA.norm>
-0.00187434

>  <SCORE.RESTR>
1.93595

>  <SCORE.RESTR.CAVITY>
1.93595

>  <SCORE.RESTR.norm>
0.0744595

>  <SCORE.SYSTEM>
0

>  <SCORE.SYSTEM.CONST>
0

>  <SCORE.SYSTEM.DIHEDRAL>
0

>  <SCORE.SYSTEM.SOLV>
0

>  <SCORE.SYSTEM.norm>
0

>  <SCORE.heavy>
26

>  <SCORE.norm>
-0.269583

>  <RMSD>
27.842

$$$$
ligand
 OpenBabel11021811443D
libRbt.so/2013.1/901 2013/11/27
 26 28  0  0  0  0  0  0  0  0999 V2000
   16.5897   22.9228   42.3478 C   0  0  0  0  0  0  0  0  0  0  0  0
   23.4808   23.2571   45.9562 C   0  0  0  0  0  0  0  0  0  0  0  0
   23.4168   21.5158   49.2920 P   0  0  1  0  0  0  0  0  0  0  0  0
   21.9040   23.5311   49.8718 P   0  0  1  0  0  0  0  0  0  0  0  0
   22.0533   23.8900   43.6258 C   0  0  0  0  0  0  0  0  0  0  0  0
   19.6475   23.5728   44.2765 C   0  0  0  0  0  0  0  0  0  0  0  0
   20.6075   23.6339   43.2861 C   0  0  0  0  0  0  0  0  0  0  0  0
   20.2048   23.4527   41.9618 C   0  0  0  0  0  0  0  0  0  0  0  0
   21.1305   23.5043   40.9303 N   0  0  0  0  0  0  0  0  0  0  0  0
   18.9205   23.2240   41.7041 N   0  0  0  0  0  0  0  0  0  0  0  0
   18.0368   23.1784   42.6798 C   0  0  0  0  0  0  0  0  0  0  0  0
   18.3847   23.3452   43.9408 N   0  0  0  0  0  0  0  0  0  0  0  0
   23.7403   20.5098   50.3289 O   0  0  0  0  0  0  0  0  0  0  0  0
   20.9406   22.3465   49.6335 O   0  0  0  0  0  0  0  0  0  0  0  0
   23.7066   20.4725   43.2108 S   0  0  0  0  0  0  0  0  0  0  0  0
   22.7345   21.8035   42.6623 C   0  0  0  0  0  0  0  0  0  0  0  0
   21.9639   21.2041   48.6758 O   0  0  0  0  0  0  0  0  0  0  0  0
   21.5235   24.2651   51.2527 O   0  5  0  0  0  0  0  0  0  0  0  0
   22.7727   22.6161   43.6929 N   0  0  0  0  0  0  0  0  0  0  0  0
   23.4165   22.9848   49.9520 O   0  0  0  0  0  0  0  0  0  0  0  0
   21.7806   24.5358   48.7043 O   0  0  0  0  0  0  0  0  0  0  0  0
   23.4455   22.3125   44.7814 C   0  0  2  0  0  0  0  0  0  0  0  0
   24.1017   21.1251   44.8264 C   0  0  2  0  0  0  0  0  0  0  0  0
   24.9344   20.5262   45.9295 C   0  0  0  0  0  0  0  0  0  0  0  0
   24.1013   20.4382   47.2102 C   0  0  0  0  0  0  0  0  0  0  0  0
   24.5212   21.4557   48.1216 O   0  0  0  0  0  0  0  0  0  0  0  0
  1 11  1  0  0  0  0
  3 13  1  1  0  0  0
  3 17  1  0  0  0  0
  3 20  1  0  0  0  0
  3 26  1  0  0  0  0
  4 14  1  0  0  0  0
  4 18  1  1  0  0  0
  4 21  2  0  0  0  0
  4 20  1  0  0  0  0
  5 19  1  0  0  0  0
  5  7  1  0  0  0  0
  6  7  2  0  0  0  0
  6 12  1  0  0  0  0
  7  8  1  0  0  0  0
  8  9  1  0  0  0  0
  8 10  2  0  0  0  0
 10 11  1  0  0  0  0
 11 12  2  0  0  0  0
 14 17  1  0  0  0  0
 15 23  1  0  0  0  0
 15 16  1  0  0  0  0
 16 19  1  0  0  0  0
 19 22  1  0  0  0  0
 22  2  1  1  0  0  0
 22 23  1  0  0  0  0
 23 24  1  6  0  0  0
 24 25  1  0  0  0  0
 25 26  1  0  0  0  0
M  CHG  1  18  -1
M  END
>  <CHROM.1>
54.91360233,97.02757683,-123.63354475,-105.33433677,168.08207897,85.59758301
22.02932266,22.42958510,46.12298389,1.99730990,0.50328096,-1.69999034

>  <Name>
ligand

>  <RI>
0

>  <Rbt.Current_Directory>
/home/itssahil/PROJECTS/Mol_Feturizer/New_Systems/rnas/2HOL

>  <Rbt.Executable>
rbdock ($Id: //depot/dev/client3/rdock/2013.1/src/exe/rbdock.cxx#4 $)

>  <Rbt.Library>
libRbt.so (2013.1, Build901 2013/11/27)

>  <Rbt.Parameter_File>
/export/apps/rDock/src/rDock_2013.1_src/data/scripts/dock_solv.prm

>  <Rbt.Receptor>
prm/blind_docking_60.prm

>  <SCORE>
2.44661

>  <SCORE.INTER>
-6.95858

>  <SCORE.INTER.CONST>
1

>  <SCORE.INTER.POLAR>
0

>  <SCORE.INTER.ROT>
6

>  <SCORE.INTER.SOLV>
20.5805

>  <SCORE.INTER.VDW>
-19.0992

>  <SCORE.INTER.norm>
-0.267638

>  <SCORE.INTRA>
1.23016

>  <SCORE.INTRA.DIHEDRAL>
1.57295

>  <SCORE.INTRA.DIHEDRAL.0>
9.33621

>  <SCORE.INTRA.POLAR>
0

>  <SCORE.INTRA.POLAR.0>
0

>  <SCORE.INTRA.REPUL>
0

>  <SCORE.INTRA.REPUL.0>
0

>  <SCORE.INTRA.SOLV>
2.31979

>  <SCORE.INTRA.SOLV.lig_0>
-65.9238

>  <SCORE.INTRA.VDW>
-0.716206

>  <SCORE.INTRA.VDW.0>
-0.405582

>  <SCORE.INTRA.norm>
0.0473139

>  <SCORE.RESTR>
8.17503

>  <SCORE.RESTR.CAVITY>
8.17503

>  <SCORE.RESTR.norm>
0.314424

>  <SCORE.SYSTEM>
0

>  <SCORE.SYSTEM.CONST>
0

>  <SCORE.SYSTEM.DIHEDRAL>
0

>  <SCORE.SYSTEM.SOLV>
0

>  <SCORE.SYSTEM.norm>
0

>  <SCORE.heavy>
26

>  <SCORE.norm>
0.0941005

>  <RMSD>
28.061

$$$$
ligand
 OpenBabel11021811443D
libRbt.so/2013.1/901 2013/11/27
 26 28  0  0  0  0  0  0  0  0999 V2000
   16.7508   22.3755   42.6583 C   0  0  0  0  0  0  0  0  0  0  0  0
   23.4323   23.5065   46.1647 C   0  0  0  0  0  0  0  0  0  0  0  0
   21.8874   21.3110   48.5429 P   0  0  1  0  0  0  0  0  0  0  0  0
   22.3361   23.5473   49.7612 P   0  0  1  0  0  0  0  0  0  0  0  0
   22.1655   23.8093   43.6801 C   0  0  0  0  0  0  0  0  0  0  0  0
   19.8512   23.2018   44.4462 C   0  0  0  0  0  0  0  0  0  0  0  0
   20.7326   23.4298   43.4082 C   0  0  0  0  0  0  0  0  0  0  0  0
   20.2625   23.3002   42.1002 C   0  0  0  0  0  0  0  0  0  0  0  0
   21.1080   23.5180   41.0226 N   0  0  0  0  0  0  0  0  0  0  0  0
   18.9927   22.9588   41.9023 N   0  0  0  0  0  0  0  0  0  0  0  0
   18.1845   22.7551   42.9224 C   0  0  0  0  0  0  0  0  0  0  0  0
   18.5974   22.8692   44.1696 N   0  0  0  0  0  0  0  0  0  0  0  0
   20.8358   20.3949   49.0395 O   0  0  0  0  0  0  0  0  0  0  0  0
   21.0951   23.8009   48.8758 O   0  0  0  0  0  0  0  0  0  0  0  0
   24.0490   20.4877   43.7463 S   0  0  0  0  0  0  0  0  0  0  0  0
   23.0472   21.6893   42.9914 C   0  0  0  0  0  0  0  0  0  0  0  0
   21.2138   22.4717   47.6559 O   0  0  0  0  0  0  0  0  0  0  0  0
   22.0463   24.0677   51.2564 O   0  5  0  0  0  0  0  0  0  0  0  0
   22.9519   22.5999   43.9325 N   0  0  0  0  0  0  0  0  0  0  0  0
   22.6585   21.9701   49.7938 O   0  0  0  0  0  0  0  0  0  0  0  0
   23.5473   24.3085   49.1773 O   0  0  0  0  0  0  0  0  0  0  0  0
   23.5501   22.4509   45.0943 C   0  0  2  0  0  0  0  0  0  0  0  0
   24.2703   21.3210   45.3111 C   0  0  2  0  0  0  0  0  0  0  0  0
   25.0440   20.8911   46.5299 C   0  0  0  0  0  0  0  0  0  0  0  0
   24.2019   21.1360   47.7841 C   0  0  0  0  0  0  0  0  0  0  0  0
   22.9369   20.4866   47.6418 O   0  0  0  0  0  0  0  0  0  0  0  0
  1 11  1  0  0  0  0
  3 13  1  1  0  0  0
  3 17  1  0  0  0  0
  3 20  1  0  0  0  0
  3 26  1  0  0  0  0
  4 14  1  0  0  0  0
  4 18  1  1  0  0  0
  4 21  2  0  0  0  0
  4 20  1  0  0  0  0
  5 19  1  0  0  0  0
  5  7  1  0  0  0  0
  6  7  2  0  0  0  0
  6 12  1  0  0  0  0
  7  8  1  0  0  0  0
  8  9  1  0  0  0  0
  8 10  2  0  0  0  0
 10 11  1  0  0  0  0
 11 12  2  0  0  0  0
 14 17  1  0  0  0  0
 15 23  1  0  0  0  0
 15 16  1  0  0  0  0
 16 19  1  0  0  0  0
 19 22  1  0  0  0  0
 22  2  1  1  0  0  0
 22 23  1  0  0  0  0
 23 24  1  6  0  0  0
 24 25  1  0  0  0  0
 25 26  1  0  0  0  0
M  CHG  1  18  -1
M  END
>  <CHROM.1>
61.07683026,83.30921593,-134.75731290,54.42203139,-152.81089862,-149.82835902
21.90020488,22.39496128,46.11382486,1.93769999,0.35747342,-1.67951738

>  <Name>
ligand

>  <RI>
0

>  <Rbt.Current_Directory>
/home/itssahil/PROJECTS/Mol_Feturizer/New_Systems/rnas/2HOL

>  <Rbt.Executable>
rbdock ($Id: //depot/dev/client3/rdock/2013.1/src/exe/rbdock.cxx#4 $)

>  <Rbt.Library>
libRbt.so (2013.1, Build901 2013/11/27)

>  <Rbt.Parameter_File>
/export/apps/rDock/src/rDock_2013.1_src/data/scripts/dock_solv.prm

>  <Rbt.Receptor>
prm/blind_docking_60.prm

>  <SCORE>
-0.106422

>  <SCORE.INTER>
-9.03237

>  <SCORE.INTER.CONST>
1

>  <SCORE.INTER.POLAR>
0

>  <SCORE.INTER.ROT>
6

>  <SCORE.INTER.SOLV>
17.2511

>  <SCORE.INTER.VDW>
-19.3719

>  <SCORE.INTER.norm>
-0.347399

>  <SCORE.INTRA>
1.24364

>  <SCORE.INTRA.DIHEDRAL>
-0.301669

>  <SCORE.INTRA.DIHEDRAL.0>
9.33621

>  <SCORE.INTRA.POLAR>
0

>  <SCORE.INTRA.POLAR.0>
0

>  <SCORE.INTRA.REPUL>
0

>  <SCORE.INTRA.REPUL.0>
0

>  <SCORE.INTRA.SOLV>
3.17933

>  <SCORE.INTRA.SOLV.lig_0>
-65.9238

>  <SCORE.INTRA.VDW>
-0.195187

>  <SCORE.INTRA.VDW.0>
-0.405582

>  <SCORE.INTRA.norm>
0.0478325

>  <SCORE.RESTR>
7.6823

>  <SCORE.RESTR.CAVITY>
7.6823

>  <SCORE.RESTR.norm>
0.295473

>  <SCORE.SYSTEM>
0

>  <SCORE.SYSTEM.CONST>
0

>  <SCORE.SYSTEM.DIHEDRAL>
0

>  <SCORE.SYSTEM.SOLV>
0

>  <SCORE.SYSTEM.norm>
0

>  <SCORE.heavy>
26

>  <SCORE.norm>
-0.00409314

>  <RMSD>
28.066

$$$$
ligand
 OpenBabel11021811443D
libRbt.so/2013.1/901 2013/11/27
 26 28  0  0  0  0  0  0  0  0999 V2000
   18.8455   24.9502   39.8344 C   0  0  0  0  0  0  0  0  0  0  0  0
   21.1629   20.3108   46.2818 C   0  0  0  0  0  0  0  0  0  0  0  0
   23.5726   22.9977   48.1746 P   0  0  1  0  0  0  0  0  0  0  0  0
   21.4498   22.3186   49.4858 P   0  0  1  0  0  0  0  0  0  0  0  0
   20.0817   22.4220   44.7840 C   0  0  0  0  0  0  0  0  0  0  0  0
   18.9680   24.2237   43.4329 C   0  0  0  0  0  0  0  0  0  0  0  0
   19.7552   23.0901   43.4732 C   0  0  0  0  0  0  0  0  0  0  0  0
   20.2415   22.5787   42.2687 C   0  0  0  0  0  0  0  0  0  0  0  0
   21.0360   21.4420   42.2552 N   0  0  0  0  0  0  0  0  0  0  0  0
   19.9266   23.1945   41.1330 N   0  0  0  0  0  0  0  0  0  0  0  0
   19.1760   24.2769   41.1409 C   0  0  0  0  0  0  0  0  0  0  0  0
   18.7009   24.7849   42.2612 N   0  0  0  0  0  0  0  0  0  0  0  0
   23.4884   24.0194   47.1066 O   0  0  0  0  0  0  0  0  0  0  0  0
   21.9232   23.6441   50.1239 O   0  0  0  0  0  0  0  0  0  0  0  0
   23.8887   22.7214   44.8324 S   0  0  0  0  0  0  0  0  0  0  0  0
   22.2961   23.2444   44.3767 C   0  0  0  0  0  0  0  0  0  0  0  0
   23.6542   23.7239   49.6077 O   0  0  0  0  0  0  0  0  0  0  0  0
   19.8758   22.4088   49.1621 O   0  5  0  0  0  0  0  0  0  0  0  0
   21.5353   22.3340   44.9390 N   0  0  0  0  0  0  0  0  0  0  0  0
   22.2654   22.0585   48.1221 O   0  0  0  0  0  0  0  0  0  0  0  0
   21.7068   21.1550   50.4695 O   0  0  0  0  0  0  0  0  0  0  0  0
   22.0501   21.3480   45.6408 C   0  0  2  0  0  0  0  0  0  0  0  0
   23.3998   21.2807   45.7690 C   0  0  2  0  0  0  0  0  0  0  0  0
   24.2487   20.2740   46.5003 C   0  0  0  0  0  0  0  0  0  0  0  0
   24.4577   20.7333   47.9451 C   0  0  0  0  0  0  0  0  0  0  0  0
   24.8882   22.0959   47.9534 O   0  0  0  0  0  0  0  0  0  0  0  0
  1 11  1  0  0  0  0
  3 13  1  6  0  0  0
  3 17  1  0  0  0  0
  3 20  1  0  0  0  0
  3 26  1  0  0  0  0
  4 14  1  0  0  0  0
  4 18  1  6  0  0  0
  4 21  2  0  0  0  0
  4 20  1  0  0  0  0
  5 19  1  0  0  0  0
  5  7  1  0  0  0  0
  6  7  2  0  0  0  0
  6 12  1  0  0  0  0
  7  8  1  0  0  0  0
  8  9  1  0  0  0  0
  8 10  2  0  0  0  0
 10 11  1  0  0  0  0
 11 12  2  0  0  0  0
 14 17  1  0  0  0  0
 15 23  1  0  0  0  0
 15 16  1  0  0  0  0
 16 19  1  0  0  0  0
 19 22  1  0  0  0  0
 22  2  1  6  0  0  0
 22 23  1  0  0  0  0
 23 24  1  1  0  0  0
 24 25  1  0  0  0  0
 25 26  1  0  0  0  0
M  CHG  1  18  -1
M  END
>  <CHROM.1>
29.32379230,-123.54717391,90.11430663,-49.58730237,95.72544375,-126.78312846
21.85519602,22.60648677,46.03967960,2.01051228,0.35505351,-1.54467215

>  <Name>
ligand

>  <RI>
0

>  <Rbt.Current_Directory>
/home/itssahil/PROJECTS/Mol_Feturizer/New_Systems/rnas/2HOL

>  <Rbt.Executable>
rbdock ($Id: //depot/dev/client3/rdock/2013.1/src/exe/rbdock.cxx#4 $)

>  <Rbt.Library>
libRbt.so (2013.1, Build901 2013/11/27)

>  <Rbt.Parameter_File>
/export/apps/rDock/src/rDock_2013.1_src/data/scripts/dock_solv.prm

>  <Rbt.Receptor>
prm/blind_docking_60.prm

>  <SCORE>
8.27053

>  <SCORE.INTER>
-5.82227

>  <SCORE.INTER.CONST>
1

>  <SCORE.INTER.POLAR>
0

>  <SCORE.INTER.ROT>
6

>  <SCORE.INTER.SOLV>
15.9287

>  <SCORE.INTER.VDW>
-16.7911

>  <SCORE.INTER.norm>
-0.223933

>  <SCORE.INTRA>
6.55706

>  <SCORE.INTRA.DIHEDRAL>
2.89154

>  <SCORE.INTRA.DIHEDRAL.0>
9.33621

>  <SCORE.INTRA.POLAR>
0

>  <SCORE.INTRA.POLAR.0>
0

>  <SCORE.INTRA.REPUL>
0

>  <SCORE.INTRA.REPUL.0>
0

>  <SCORE.INTRA.SOLV>
6.69473

>  <SCORE.INTRA.SOLV.lig_0>
-65.9238

>  <SCORE.INTRA.VDW>
1.76392

>  <SCORE.INTRA.VDW.0>
-0.405582

>  <SCORE.INTRA.norm>
0.252195

>  <SCORE.RESTR>
7.53575

>  <SCORE.RESTR.CAVITY>
7.53575

>  <SCORE.RESTR.norm>
0.289836

>  <SCORE.SYSTEM>
0

>  <SCORE.SYSTEM.CONST>
0

>  <SCORE.SYSTEM.DIHEDRAL>
0

>  <SCORE.SYSTEM.SOLV>
0

>  <SCORE.SYSTEM.norm>
0

>  <SCORE.heavy>
26

>  <SCORE.norm>
0.318097

>  <RMSD>
28.104

$$$$
ligand
 OpenBabel11021811443D
libRbt.so/2013.1/901 2013/11/27
 26 28  0  0  0  0  0  0  0  0999 V2000
   16.4767   22.7248   43.3004 C   0  0  0  0  0  0  0  0  0  0  0  0
   23.7467   23.2312   45.8770 C   0  0  0  0  0  0  0  0  0  0  0  0
   22.7190   21.0782   48.6138 P   0  0  1  0  0  0  0  0  0  0  0  0
   22.0433   23.5575   48.9027 P   0  0  1  0  0  0  0  0  0  0  0  0
   22.0591   23.7709   43.7020 C   0  0  0  0  0  0  0  0  0  0  0  0
   19.9017   22.8684   44.6200 C   0  0  0  0  0  0  0  0  0  0  0  0
   20.5815   23.4945   43.5943 C   0  0  0  0  0  0  0  0  0  0  0  0
   19.8653   23.8655   42.4550 C   0  0  0  0  0  0  0  0  0  0  0  0
   20.5020   24.4967   41.3967 N   0  0  0  0  0  0  0  0  0  0  0  0
   18.5638   23.5995   42.3966 N   0  0  0  0  0  0  0  0  0  0  0  0
   17.9536   23.0042   43.4009 C   0  0  0  0  0  0  0  0  0  0  0  0
   18.6014   22.6410   44.4906 N   0  0  0  0  0  0  0  0  0  0  0  0
   23.1070   20.2737   49.7944 O   0  0  0  0  0  0  0  0  0  0  0  0
   20.7914   22.7399   49.2932 O   0  0  0  0  0  0  0  0  0  0  0  0
   23.6840   20.3475   43.2270 S   0  0  0  0  0  0  0  0  0  0  0  0
   22.6447   21.6529   42.7442 C   0  0  0  0  0  0  0  0  0  0  0  0
   21.1149   21.1422   48.5109 O   0  0  0  0  0  0  0  0  0  0  0  0
   22.3429   24.6586   50.0377 O   0  5  0  0  0  0  0  0  0  0  0  0
   22.7923   22.5035   43.7334 N   0  0  0  0  0  0  0  0  0  0  0  0
   23.3074   22.5698   48.7646 O   0  0  0  0  0  0  0  0  0  0  0  0
   21.7931   24.2656   47.5523 O   0  0  0  0  0  0  0  0  0  0  0  0
   23.5866   22.2434   44.7490 C   0  0  2  0  0  0  0  0  0  0  0  0
   24.2538   21.0614   44.7625 C   0  0  2  0  0  0  0  0  0  0  0  0
   25.2111   20.5076   45.7851 C   0  0  0  0  0  0  0  0  0  0  0  0
   24.6848   20.8016   47.1917 C   0  0  0  0  0  0  0  0  0  0  0  0
   23.3164   20.3999   47.2811 O   0  0  0  0  0  0  0  0  0  0  0  0
  1 11  1  0  0  0  0
  3 13  1  1  0  0  0
  3 17  1  0  0  0  0
  3 20  1  0  0  0  0
  3 26  1  0  0  0  0
  4 14  1  0  0  0  0
  4 18  1  1  0  0  0
  4 21  2  0  0  0  0
  4 20  1  0  0  0  0
  5 19  1  0  0  0  0
  5  7  1  0  0  0  0
  6  7  2  0  0  0  0
  6 12  1  0  0  0  0
  7  8  1  0  0  0  0
  8  9  1  0  0  0  0
  8 10  2  0  0  0  0
 10 11  1  0  0  0  0
 11 12  2  0  0  0  0
 14 17  1  0  0  0  0
 15 23  1  0  0  0  0
 15 16  1  0  0  0  0
 16 19  1  0  0  0  0
 19 22  1  0  0  0  0
 22  2  1  1  0  0  0
 22 23  1  0  0  0  0
 23 24  1  6  0  0  0
 24 25  1  0  0  0  0
 25 26  1  0  0  0  0
M  CHG  1  18  -1
M  END
>  <CHROM.1>
57.19047739,65.69997364,-138.53425597,49.74645346,-165.25887412,-80.77606785
21.91509584,22.33411529,45.93459396,2.12998087,0.49222607,-1.66538558

>  <Name>
ligand

>  <RI>
0

>  <Rbt.Current_Directory>
/home/itssahil/PROJECTS/Mol_Feturizer/New_Systems/rnas/2HOL

>  <Rbt.Executable>
rbdock ($Id: //depot/dev/client3/rdock/2013.1/src/exe/rbdock.cxx#4 $)

>  <Rbt.Library>
libRbt.so (2013.1, Build901 2013/11/27)

>  <Rbt.Parameter_File>
/export/apps/rDock/src/rDock_2013.1_src/data/scripts/dock_solv.prm

>  <Rbt.Receptor>
prm/blind_docking_60.prm

>  <SCORE>
2.5476

>  <SCORE.INTER>
-6.65426

>  <SCORE.INTER.CONST>
1

>  <SCORE.INTER.POLAR>
0

>  <SCORE.INTER.ROT>
6

>  <SCORE.INTER.SOLV>
22.0722

>  <SCORE.INTER.VDW>
-19.3936

>  <SCORE.INTER.norm>
-0.255933

>  <SCORE.INTRA>
1.60985

>  <SCORE.INTRA.DIHEDRAL>
-2.60238

>  <SCORE.INTRA.DIHEDRAL.0>
9.33621

>  <SCORE.INTRA.POLAR>
0

>  <SCORE.INTRA.POLAR.0>
0

>  <SCORE.INTRA.REPUL>
0

>  <SCORE.INTRA.REPUL.0>
0

>  <SCORE.INTRA.SOLV>
2.98359

>  <SCORE.INTRA.SOLV.lig_0>
-65.9238

>  <SCORE.INTRA.VDW>
1.41924

>  <SCORE.INTRA.VDW.0>
-0.405582

>  <SCORE.INTRA.norm>
0.0619172

>  <SCORE.RESTR>
7.59202

>  <SCORE.RESTR.CAVITY>
7.59202

>  <SCORE.RESTR.norm>
0.292001

>  <SCORE.SYSTEM>
0

>  <SCORE.SYSTEM.CONST>
0

>  <SCORE.SYSTEM.DIHEDRAL>
0

>  <SCORE.SYSTEM.SOLV>
0

>  <SCORE.SYSTEM.norm>
0

>  <SCORE.heavy>
26

>  <SCORE.norm>
0.0979848

>  <RMSD>
28.160

$$$$
ligand
 OpenBabel11021811443D
libRbt.so/2013.1/901 2013/11/27
 26 28  0  0  0  0  0  0  0  0999 V2000
   18.9945   26.7502   42.9073 C   0  0  0  0  0  0  0  0  0  0  0  0
   22.0831   19.4178   44.8995 C   0  0  0  0  0  0  0  0  0  0  0  0
   23.6373   22.1050   48.7189 P   0  0  1  0  0  0  0  0  0  0  0  0
   21.2961   22.8468   47.9096 P   0  0  1  0  0  0  0  0  0  0  0  0
   21.4418   21.6235   43.2892 C   0  0  0  0  0  0  0  0  0  0  0  0
   20.6331   23.7745   44.3045 C   0  0  0  0  0  0  0  0  0  0  0  0
   20.7937   22.9802   43.1866 C   0  0  0  0  0  0  0  0  0  0  0  0
   20.3410   23.4660   41.9588 C   0  0  0  0  0  0  0  0  0  0  0  0
   20.4784   22.7067   40.8064 N   0  0  0  0  0  0  0  0  0  0  0  0
   19.7701   24.6661   41.9111 N   0  0  0  0  0  0  0  0  0  0  0  0
   19.6412   25.3930   43.0020 C   0  0  0  0  0  0  0  0  0  0  0  0
   20.0581   24.9629   44.1769 N   0  0  0  0  0  0  0  0  0  0  0  0
   24.0588   22.3732   50.1125 O   0  0  0  0  0  0  0  0  0  0  0  0
   21.0669   21.5307   48.6864 O   0  0  0  0  0  0  0  0  0  0  0  0
   24.5551   22.4222   45.3518 S   0  0  0  0  0  0  0  0  0  0  0  0
   23.3232   22.8055   44.1887 C   0  0  0  0  0  0  0  0  0  0  0  0
   22.7151   20.7874   48.6806 O   0  0  0  0  0  0  0  0  0  0  0  0
   20.2535   23.9618   48.4196 O   0  5  0  0  0  0  0  0  0  0  0  0
   22.6083   21.7044   44.1710 N   0  0  0  0  0  0  0  0  0  0  0  0
   22.8007   23.3626   48.1604 O   0  0  0  0  0  0  0  0  0  0  0  0
   21.0829   22.5955   46.3999 O   0  0  0  0  0  0  0  0  0  0  0  0
   22.9150   20.6751   44.9301 C   0  0  2  0  0  0  0  0  0  0  0  0
   24.0026   20.7674   45.7370 C   0  0  2  0  0  0  0  0  0  0  0  0
   24.5805   19.7576   46.6936 C   0  0  0  0  0  0  0  0  0  0  0  0
   25.2504   20.4839   47.8623 C   0  0  0  0  0  0  0  0  0  0  0  0
   24.9386   21.8770   47.7981 O   0  0  0  0  0  0  0  0  0  0  0  0
  1 11  1  0  0  0  0
  3 13  1  1  0  0  0
  3 17  1  0  0  0  0
  3 20  1  0  0  0  0
  3 26  1  0  0  0  0
  4 14  1  0  0  0  0
  4 18  1  1  0  0  0
  4 21  2  0  0  0  0
  4 20  1  0  0  0  0
  5 19  1  0  0  0  0
  5  7  1  0  0  0  0
  6  7  2  0  0  0  0
  6 12  1  0  0  0  0
  7  8  1  0  0  0  0
  8  9  1  0  0  0  0
  8 10  2  0  0  0  0
 10 11  1  0  0  0  0
 11 12  2  0  0  0  0
 14 17  1  0  0  0  0
 15 23  1  0  0  0  0
 15 16  1  0  0  0  0
 16 19  1  0  0  0  0
 19 22  1  0  0  0  0
 22  2  1  6  0  0  0
 22 23  1  0  0  0  0
 23 24  1  1  0  0  0
 24 25  1  0  0  0  0
 25 26  1  0  0  0  0
M  CHG  1  18  -1
M  END
>  <CHROM.1>
-33.89951781,-42.38623687,30.51219217,9.16364061,93.43206941,88.46665023
22.21053692,22.50788248,45.90397685,2.32559320,0.76587650,-1.70888026

>  <Name>
ligand

>  <RI>
0

>  <Rbt.Current_Directory>
/home/itssahil/PROJECTS/Mol_Feturizer/New_Systems/rnas/2HOL

>  <Rbt.Executable>
rbdock ($Id: //depot/dev/client3/rdock/2013.1/src/exe/rbdock.cxx#4 $)

>  <Rbt.Library>
libRbt.so (2013.1, Build901 2013/11/27)

>  <Rbt.Parameter_File>
/export/apps/rDock/src/rDock_2013.1_src/data/scripts/dock_solv.prm

>  <Rbt.Receptor>
prm/blind_docking_60.prm

>  <SCORE>
37.115

>  <SCORE.INTER>
22.0123

>  <SCORE.INTER.CONST>
1

>  <SCORE.INTER.POLAR>
0

>  <SCORE.INTER.ROT>
6

>  <SCORE.INTER.SOLV>
19.6002

>  <SCORE.INTER.VDW>
0.54147

>  <SCORE.INTER.norm>
0.846626

>  <SCORE.INTRA>
8.06341

>  <SCORE.INTRA.DIHEDRAL>
6.10275

>  <SCORE.INTRA.DIHEDRAL.0>
9.33621

>  <SCORE.INTRA.POLAR>
0

>  <SCORE.INTRA.POLAR.0>
0

>  <SCORE.INTRA.REPUL>
0

>  <SCORE.INTRA.REPUL.0>
0

>  <SCORE.INTRA.SOLV>
4.11185

>  <SCORE.INTRA.SOLV.lig_0>
-65.9238

>  <SCORE.INTRA.VDW>
2.95611

>  <SCORE.INTRA.VDW.0>
-0.405582

>  <SCORE.INTRA.norm>
0.310131

>  <SCORE.RESTR>
7.03927

>  <SCORE.RESTR.CAVITY>
7.03927

>  <SCORE.RESTR.norm>
0.270741

>  <SCORE.SYSTEM>
0

>  <SCORE.SYSTEM.CONST>
0

>  <SCORE.SYSTEM.DIHEDRAL>
0

>  <SCORE.SYSTEM.SOLV>
0

>  <SCORE.SYSTEM.norm>
0

>  <SCORE.heavy>
26

>  <SCORE.norm>
1.4275

>  <RMSD>
28.206

$$$$
ligand
 OpenBabel11021811443D
libRbt.so/2013.1/901 2013/11/27
 26 28  0  0  0  0  0  0  0  0999 V2000
   21.8341   21.8615   54.5720 C   0  0  0  0  0  0  0  0  0  0  0  0
   21.0467   20.8378   47.1516 C   0  0  0  0  0  0  0  0  0  0  0  0
   20.9886   22.3073   42.0721 P   0  0  1  0  0  0  0  0  0  0  0  0
   19.4475   23.9480   40.7995 P   0  0  1  0  0  0  0  0  0  0  0  0
   23.0668   20.9008   49.0970 C   0  0  0  0  0  0  0  0  0  0  0  0
   21.5798   21.8067   50.9080 C   0  0  0  0  0  0  0  0  0  0  0  0
   22.7418   21.1545   50.5465 C   0  0  0  0  0  0  0  0  0  0  0  0
   23.6080   20.7357   51.5580 C   0  0  0  0  0  0  0  0  0  0  0  0
   24.7882   20.0769   51.2473 N   0  0  0  0  0  0  0  0  0  0  0  0
   23.2875   20.9830   52.8246 N   0  0  0  0  0  0  0  0  0  0  0  0
   22.1656   21.6045   53.1251 C   0  0  0  0  0  0  0  0  0  0  0  0
   21.3265   22.0131   52.1935 N   0  0  0  0  0  0  0  0  0  0  0  0
   21.4939   21.0906   41.3970 O   0  0  0  0  0  0  0  0  0  0  0  0
   20.8822   24.2825   40.3328 O   0  0  0  0  0  0  0  0  0  0  0  0
   22.8283   24.3168   47.4059 S   0  0  0  0  0  0  0  0  0  0  0  0
   23.5046   23.1917   48.5435 C   0  0  0  0  0  0  0  0  0  0  0  0
   21.8928   23.5697   41.6518 O   0  0  0  0  0  0  0  0  0  0  0  0
   18.4869   23.7917   39.5176 O   0  5  0  0  0  0  0  0  0  0  0  0
   22.7958   22.1101   48.3164 N   0  0  0  0  0  0  0  0  0  0  0  0
   19.4619   22.5698   41.6320 O   0  0  0  0  0  0  0  0  0  0  0  0
   18.9219   25.0882   41.7002 O   0  0  0  0  0  0  0  0  0  0  0  0
   21.8512   22.0884   47.4015 C   0  0  2  0  0  0  0  0  0  0  0  0
   21.6116   23.2204   46.6919 C   0  0  2  0  0  0  0  0  0  0  0  0
   20.6036   23.4792   45.6030 C   0  0  0  0  0  0  0  0  0  0  0  0
   21.2905   23.3940   44.2381 C   0  0  0  0  0  0  0  0  0  0  0  0
   21.0578   22.1045   43.6681 O   0  0  0  0  0  0  0  0  0  0  0  0
  1 11  1  0  0  0  0
  3 13  1  6  0  0  0
  3 17  1  0  0  0  0
  3 20  1  0  0  0  0
  3 26  1  0  0  0  0
  4 14  1  0  0  0  0
  4 18  1  6  0  0  0
  4 21  2  0  0  0  0
  4 20  1  0  0  0  0
  5 19  1  0  0  0  0
  5  7  1  0  0  0  0
  6  7  2  0  0  0  0
  6 12  1  0  0  0  0
  7  8  1  0  0  0  0
  8  9  1  0  0  0  0
  8 10  2  0  0  0  0
 10 11  1  0  0  0  0
 11 12  2  0  0  0  0
 14 17  1  0  0  0  0
 15 23  1  0  0  0  0
 15 16  1  0  0  0  0
 16 19  1  0  0  0  0
 19 22  1  0  0  0  0
 22  2  1  1  0  0  0
 22 23  1  0  0  0  0
 23 24  1  6  0  0  0
 24 25  1  0  0  0  0
 25 26  1  0  0  0  0
M  CHG  1  18  -1
M  END
>  <CHROM.1>
64.70871762,44.48574030,79.73765662,98.47075808,147.51712083,148.76394514
21.50153572,22.58235437,46.04292676,1.16371451,-0.91572980,1.42130964

>  <Name>
ligand

>  <RI>
0

>  <Rbt.Current_Directory>
/home/itssahil/PROJECTS/Mol_Feturizer/New_Systems/rnas/2HOL

>  <Rbt.Executable>
rbdock ($Id: //depot/dev/client3/rdock/2013.1/src/exe/rbdock.cxx#4 $)

>  <Rbt.Library>
libRbt.so (2013.1, Build901 2013/11/27)

>  <Rbt.Parameter_File>
/export/apps/rDock/src/rDock_2013.1_src/data/scripts/dock_solv.prm

>  <Rbt.Receptor>
prm/blind_docking_80.prm

>  <SCORE>
-2.72159

>  <SCORE.INTER>
-7.1313

>  <SCORE.INTER.CONST>
1

>  <SCORE.INTER.POLAR>
0

>  <SCORE.INTER.ROT>
6

>  <SCORE.INTER.SOLV>
15.8002

>  <SCORE.INTER.VDW>
-17.6209

>  <SCORE.INTER.norm>
-0.274281

>  <SCORE.INTRA>
1.291

>  <SCORE.INTRA.DIHEDRAL>
4.95955

>  <SCORE.INTRA.DIHEDRAL.0>
9.33621

>  <SCORE.INTRA.POLAR>
0

>  <SCORE.INTRA.POLAR.0>
0

>  <SCORE.INTRA.REPUL>
0

>  <SCORE.INTRA.REPUL.0>
0

>  <SCORE.INTRA.SOLV>
0.0441237

>  <SCORE.INTRA.SOLV.lig_0>
-65.9238

>  <SCORE.INTRA.VDW>
-1.21083

>  <SCORE.INTRA.VDW.0>
-0.405582

>  <SCORE.INTRA.norm>
0.049654

>  <SCORE.RESTR>
3.11871

>  <SCORE.RESTR.CAVITY>
3.11871

>  <SCORE.RESTR.norm>
0.11995

>  <SCORE.SYSTEM>
0

>  <SCORE.SYSTEM.CONST>
0

>  <SCORE.SYSTEM.DIHEDRAL>
0

>  <SCORE.SYSTEM.SOLV>
0

>  <SCORE.SYSTEM.norm>
0

>  <SCORE.heavy>
26

>  <SCORE.norm>
-0.104676

>  <RMSD>
28.243

$$$$
ligand
 OpenBabel11021811443D
libRbt.so/2013.1/901 2013/11/27
 26 28  0  0  0  0  0  0  0  0999 V2000
   16.7473   23.7281   43.0504 C   0  0  0  0  0  0  0  0  0  0  0  0
   23.9599   23.1010   44.9190 C   0  0  0  0  0  0  0  0  0  0  0  0
   22.9679   23.2345   48.8965 P   0  0  1  0  0  0  0  0  0  0  0  0
   21.2750   23.2540   46.9419 P   0  0  1  0  0  0  0  0  0  0  0  0
   22.2409   22.2424   42.8751 C   0  0  0  0  0  0  0  0  0  0  0  0
   20.0251   22.4042   44.0480 C   0  0  0  0  0  0  0  0  0  0  0  0
   20.7869   22.6361   42.9200 C   0  0  0  0  0  0  0  0  0  0  0  0
   20.1761   23.2449   41.8223 C   0  0  0  0  0  0  0  0  0  0  0  0
   20.8977   23.4991   40.6655 N   0  0  0  0  0  0  0  0  0  0  0  0
   18.8897   23.5726   41.9000 N   0  0  0  0  0  0  0  0  0  0  0  0
   18.2012   23.3373   42.9980 C   0  0  0  0  0  0  0  0  0  0  0  0
   18.7484   22.7637   44.0519 N   0  0  0  0  0  0  0  0  0  0  0  0
   23.5637   24.5030   49.3732 O   0  0  0  0  0  0  0  0  0  0  0  0
   20.4658   23.6628   48.1934 O   0  0  0  0  0  0  0  0  0  0  0  0
   22.6236   19.4594   45.4622 S   0  0  0  0  0  0  0  0  0  0  0  0
   21.9907   20.1370   43.9933 C   0  0  0  0  0  0  0  0  0  0  0  0
   21.5053   23.0523   49.5410 O   0  0  0  0  0  0  0  0  0  0  0  0
   20.9797   24.2912   45.7472 O   0  5  0  0  0  0  0  0  0  0  0  0
   22.5352   21.3317   43.9836 N   0  0  0  0  0  0  0  0  0  0  0  0
   22.8468   23.2691   47.2909 O   0  0  0  0  0  0  0  0  0  0  0  0
   20.8585   21.8321   46.5033 O   0  0  0  0  0  0  0  0  0  0  0  0
   23.3412   21.7261   44.9452 C   0  0  2  0  0  0  0  0  0  0  0  0
   23.5978   20.8695   45.9664 C   0  0  2  0  0  0  0  0  0  0  0  0
   24.4654   21.0548   47.1837 C   0  0  0  0  0  0  0  0  0  0  0  0
   23.6114   20.9221   48.4466 C   0  0  0  0  0  0  0  0  0  0  0  0
   23.9060   22.0015   49.3356 O   0  0  0  0  0  0  0  0  0  0  0  0
  1 11  1  0  0  0  0
  3 13  1  1  0  0  0
  3 17  1  0  0  0  0
  3 20  1  0  0  0  0
  3 26  1  0  0  0  0
  4 14  1  0  0  0  0
  4 18  1  6  0  0  0
  4 21  2  0  0  0  0
  4 20  1  0  0  0  0
  5 19  1  0  0  0  0
  5  7  1  0  0  0  0
  6  7  2  0  0  0  0
  6 12  1  0  0  0  0
  7  8  1  0  0  0  0
  8  9  1  0  0  0  0
  8 10  2  0  0  0  0
 10 11  1  0  0  0  0
 11 12  2  0  0  0  0
 14 17  1  0  0  0  0
 15 23  1  0  0  0  0
 15 16  1  0  0  0  0
 16 19  1  0  0  0  0
 19 22  1  0  0  0  0
 22  2  1  1  0  0  0
 22 23  1  0  0  0  0
 23 24  1  6  0  0  0
 24 25  1  0  0  0  0
 25 26  1  0  0  0  0
M  CHG  1  18  -1
M  END
>  <CHROM.1>
66.69388019,14.62056972,-60.76870396,-132.72976470,86.03989695,-157.56296448
21.69611695,22.47721571,45.76177187,2.27586634,0.65046360,-1.96786710

>  <Name>
ligand

>  <RI>
0

>  <Rbt.Current_Directory>
/home/itssahil/PROJECTS/Mol_Feturizer/New_Systems/rnas/2HOL

>  <Rbt.Executable>
rbdock ($Id: //depot/dev/client3/rdock/2013.1/src/exe/rbdock.cxx#4 $)

>  <Rbt.Library>
libRbt.so (2013.1, Build901 2013/11/27)

>  <Rbt.Parameter_File>
/export/apps/rDock/src/rDock_2013.1_src/data/scripts/dock_solv.prm

>  <Rbt.Receptor>
prm/blind_docking_60.prm

>  <SCORE>
9.90415

>  <SCORE.INTER>
-1.96013

>  <SCORE.INTER.CONST>
1

>  <SCORE.INTER.POLAR>
0

>  <SCORE.INTER.ROT>
6

>  <SCORE.INTER.SOLV>
19.5383

>  <SCORE.INTER.VDW>
-15.4195

>  <SCORE.INTER.norm>
-0.0753896

>  <SCORE.INTRA>
6.05246

>  <SCORE.INTRA.DIHEDRAL>
4.34788

>  <SCORE.INTRA.DIHEDRAL.0>
9.33621

>  <SCORE.INTRA.POLAR>
0

>  <SCORE.INTRA.POLAR.0>
0

>  <SCORE.INTRA.REPUL>
0

>  <SCORE.INTRA.REPUL.0>
0

>  <SCORE.INTRA.SOLV>
8.90271

>  <SCORE.INTRA.SOLV.lig_0>
-65.9238

>  <SCORE.INTRA.VDW>
-0.572836

>  <SCORE.INTRA.VDW.0>
-0.405582

>  <SCORE.INTRA.norm>
0.232787

>  <SCORE.RESTR>
5.81182

>  <SCORE.RESTR.CAVITY>
5.81182

>  <SCORE.RESTR.norm>
0.223531

>  <SCORE.SYSTEM>
0

>  <SCORE.SYSTEM.CONST>
0

>  <SCORE.SYSTEM.DIHEDRAL>
0

>  <SCORE.SYSTEM.SOLV>
0

>  <SCORE.SYSTEM.norm>
0

>  <SCORE.heavy>
26

>  <SCORE.norm>
0.380929

>  <RMSD>
28.309

$$$$
ligand
 OpenBabel11021811443D
libRbt.so/2013.1/901 2013/11/27
 26 28  0  0  0  0  0  0  0  0999 V2000
   19.0508   24.5031   42.4761 C   0  0  0  0  0  0  0  0  0  0  0  0
   22.6407   19.1784   44.7131 C   0  0  0  0  0  0  0  0  0  0  0  0
   22.3004   21.9938   49.5874 P   0  0  1  0  0  0  0  0  0  0  0  0
   22.4726   23.8849   47.8322 P   0  0  1  0  0  0  0  0  0  0  0  0
   23.6592   21.2127   43.0717 C   0  0  0  0  0  0  0  0  0  0  0  0
   22.1253   23.0414   43.8557 C   0  0  0  0  0  0  0  0  0  0  0  0
   22.4390   22.0829   42.9128 C   0  0  0  0  0  0  0  0  0  0  0  0
   21.5974   21.9404   41.8082 C   0  0  0  0  0  0  0  0  0  0  0  0
   21.8684   20.9919   40.8334 N   0  0  0  0  0  0  0  0  0  0  0  0
   20.5280   22.7242   41.7073 N   0  0  0  0  0  0  0  0  0  0  0  0
   20.2687   23.6296   42.6282 C   0  0  0  0  0  0  0  0  0  0  0  0
   21.0434   23.7891   43.6834 N   0  0  0  0  0  0  0  0  0  0  0  0
   22.8047   22.2109   50.9622 O   0  0  0  0  0  0  0  0  0  0  0  0
   21.2357   24.2304   48.6917 O   0  0  0  0  0  0  0  0  0  0  0  0
   25.0288   21.6351   46.6116 S   0  0  0  0  0  0  0  0  0  0  0  0
   24.8689   22.0942   44.9440 C   0  0  0  0  0  0  0  0  0  0  0  0
   20.8328   22.6371   49.4456 O   0  0  0  0  0  0  0  0  0  0  0  0
   23.4139   25.1833   47.6967 O   0  5  0  0  0  0  0  0  0  0  0  0
   24.0527   21.1755   44.4819 N   0  0  0  0  0  0  0  0  0  0  0  0
   23.2976   22.6934   48.5339 O   0  0  0  0  0  0  0  0  0  0  0  0
   22.0120   23.4347   46.4276 O   0  0  0  0  0  0  0  0  0  0  0  0
   23.5785   20.2258   45.2585 C   0  0  2  0  0  0  0  0  0  0  0  0
   23.9587   20.2052   46.5614 C   0  0  2  0  0  0  0  0  0  0  0  0
   23.5807   19.2465   47.6598 C   0  0  0  0  0  0  0  0  0  0  0  0
   23.5590   19.9853   48.9999 C   0  0  0  0  0  0  0  0  0  0  0  0
   22.2260   20.4138   49.2853 O   0  0  0  0  0  0  0  0  0  0  0  0
  1 11  1  0  0  0  0
  3 13  1  1  0  0  0
  3 17  1  0  0  0  0
  3 20  1  0  0  0  0
  3 26  1  0  0  0  0
  4 14  1  0  0  0  0
  4 18  1  6  0  0  0
  4 21  2  0  0  0  0
  4 20  1  0  0  0  0
  5 19  1  0  0  0  0
  5  7  1  0  0  0  0
  6  7  2  0  0  0  0
  6 12  1  0  0  0  0
  7  8  1  0  0  0  0
  8  9  1  0  0  0  0
  8 10  2  0  0  0  0
 10 11  1  0  0  0  0
 11 12  2  0  0  0  0
 14 17  1  0  0  0  0
 15 23  1  0  0  0  0
 15 16  1  0  0  0  0
 16 19  1  0  0  0  0
 19 22  1  0  0  0  0
 22  2  1  6  0  0  0
 22 23  1  0  0  0  0
 23 24  1  1  0  0  0
 24 25  1  0  0  0  0
 25 26  1  0  0  0  0
M  CHG  1  18  -1
M  END
>  <CHROM.1>
-88.15382589,22.06099543,31.69387931,95.00111323,-126.83303543,-78.19109533
22.55897022,22.17404075,46.21369068,1.86417177,0.91596060,-1.76333308

>  <Name>
ligand

>  <RI>
0

>  <Rbt.Current_Directory>
/home/itssahil/PROJECTS/Mol_Feturizer/New_Systems/rnas/2HOL

>  <Rbt.Executable>
rbdock ($Id: //depot/dev/client3/rdock/2013.1/src/exe/rbdock.cxx#4 $)

>  <Rbt.Library>
libRbt.so (2013.1, Build901 2013/11/27)

>  <Rbt.Parameter_File>
/export/apps/rDock/src/rDock_2013.1_src/data/scripts/dock_solv.prm

>  <Rbt.Receptor>
prm/blind_docking_60.prm

>  <SCORE>
7.42353

>  <SCORE.INTER>
-4.59809

>  <SCORE.INTER.CONST>
1

>  <SCORE.INTER.POLAR>
0

>  <SCORE.INTER.ROT>
6

>  <SCORE.INTER.SOLV>
18.5528

>  <SCORE.INTER.VDW>
-16.8497

>  <SCORE.INTER.norm>
-0.17685

>  <SCORE.INTRA>
1.9057

>  <SCORE.INTRA.DIHEDRAL>
6.50922

>  <SCORE.INTRA.DIHEDRAL.0>
9.33621

>  <SCORE.INTRA.POLAR>
0

>  <SCORE.INTRA.POLAR.0>
0

>  <SCORE.INTRA.REPUL>
0

>  <SCORE.INTRA.REPUL.0>
0

>  <SCORE.INTRA.SOLV>
2.6509

>  <SCORE.INTRA.SOLV.lig_0>
-65.9238

>  <SCORE.INTRA.VDW>
-2.67436

>  <SCORE.INTRA.VDW.0>
-0.405582

>  <SCORE.INTRA.norm>
0.073296

>  <SCORE.RESTR>
10.1159

>  <SCORE.RESTR.CAVITY>
10.1159

>  <SCORE.RESTR.norm>
0.389074

>  <SCORE.SYSTEM>
0

>  <SCORE.SYSTEM.CONST>
0

>  <SCORE.SYSTEM.DIHEDRAL>
0

>  <SCORE.SYSTEM.SOLV>
0

>  <SCORE.SYSTEM.norm>
0

>  <SCORE.heavy>
26

>  <SCORE.norm>
0.28552

>  <RMSD>
28.322

$$$$
ligand
 OpenBabel11021811443D
libRbt.so/2013.1/901 2013/11/27
 26 28  0  0  0  0  0  0  0  0999 V2000
   16.7483   24.4834   43.3489 C   0  0  0  0  0  0  0  0  0  0  0  0
   23.7679   20.3076   42.7522 C   0  0  0  0  0  0  0  0  0  0  0  0
   23.5288   21.0912   48.1150 P   0  0  1  0  0  0  0  0  0  0  0  0
   22.8462   23.5507   48.5288 P   0  0  1  0  0  0  0  0  0  0  0  0
   21.8806   22.3062   42.1923 C   0  0  0  0  0  0  0  0  0  0  0  0
   19.8438   23.6352   41.5626 C   0  0  0  0  0  0  0  0  0  0  0  0
   20.5222   22.8819   42.4998 C   0  0  0  0  0  0  0  0  0  0  0  0
   19.9178   22.6668   43.7396 C   0  0  0  0  0  0  0  0  0  0  0  0
   20.5581   21.9175   44.7154 N   0  0  0  0  0  0  0  0  0  0  0  0
   18.7206   23.1961   43.9737 N   0  0  0  0  0  0  0  0  0  0  0  0
   18.1064   23.9048   43.0487 C   0  0  0  0  0  0  0  0  0  0  0  0
   18.6502   24.1265   41.8679 N   0  0  0  0  0  0  0  0  0  0  0  0
   24.3742   20.3810   49.1012 O   0  0  0  0  0  0  0  0  0  0  0  0
   21.8807   22.7038   49.3883 O   0  0  0  0  0  0  0  0  0  0  0  0
   23.8428   23.2578   45.3276 S   0  0  0  0  0  0  0  0  0  0  0  0
   22.6288   23.5272   44.1147 C   0  0  0  0  0  0  0  0  0  0  0  0
   21.9982   21.0762   48.6097 O   0  0  0  0  0  0  0  0  0  0  0  0
   23.4687   24.7336   49.4252 O   0  5  0  0  0  0  0  0  0  0  0  0
   22.7524   22.4607   43.3589 N   0  0  0  0  0  0  0  0  0  0  0  0
   24.0331   22.6142   47.9748 O   0  0  0  0  0  0  0  0  0  0  0  0
   22.0728   24.1603   47.3380 O   0  0  0  0  0  0  0  0  0  0  0  0
   23.6390   21.5275   43.6291 C   0  0  2  0  0  0  0  0  0  0  0  0
   24.4412   21.6911   44.7118 C   0  0  2  0  0  0  0  0  0  0  0  0
   25.5299   20.7985   45.2473 C   0  0  0  0  0  0  0  0  0  0  0  0
   25.0203   20.0537   46.4832 C   0  0  0  0  0  0  0  0  0  0  0  0
   23.6387   20.3577   46.6856 O   0  0  0  0  0  0  0  0  0  0  0  0
  1 11  1  0  0  0  0
  3 13  1  1  0  0  0
  3 17  1  0  0  0  0
  3 20  1  0  0  0  0
  3 26  1  0  0  0  0
  4 14  1  0  0  0  0
  4 18  1  1  0  0  0
  4 21  2  0  0  0  0
  4 20  1  0  0  0  0
  5 19  1  0  0  0  0
  5  7  1  0  0  0  0
  6  7  2  0  0  0  0
  6 12  1  0  0  0  0
  7  8  1  0  0  0  0
  8  9  1  0  0  0  0
  8 10  2  0  0  0  0
 10 11  1  0  0  0  0
 11 12  2  0  0  0  0
 14 17  1  0  0  0  0
 15 23  1  0  0  0  0
 15 16  1  0  0  0  0
 16 19  1  0  0  0  0
 19 22  1  0  0  0  0
 22  2  1  6  0  0  0
 22 23  1  0  0  0  0
 23 24  1  1  0  0  0
 24 25  1  0  0  0  0
 25 26  1  0  0  0  0
M  CHG  1  18  -1
M  END
>  <CHROM.1>
-34.80556429,138.33447516,75.84940748,4.40748979,-117.85788254,-43.36459197
22.30734877,22.44609050,45.70111159,2.36157303,0.54095972,-1.77408574

>  <Name>
ligand

>  <RI>
0

>  <Rbt.Current_Directory>
/home/itssahil/PROJECTS/Mol_Feturizer/New_Systems/rnas/2HOL

>  <Rbt.Executable>
rbdock ($Id: //depot/dev/client3/rdock/2013.1/src/exe/rbdock.cxx#4 $)

>  <Rbt.Library>
libRbt.so (2013.1, Build901 2013/11/27)

>  <Rbt.Parameter_File>
/export/apps/rDock/src/rDock_2013.1_src/data/scripts/dock_solv.prm

>  <Rbt.Receptor>
prm/blind_docking_60.prm

>  <SCORE>
8.97787

>  <SCORE.INTER>
-6.88734

>  <SCORE.INTER.CONST>
1

>  <SCORE.INTER.POLAR>
0

>  <SCORE.INTER.ROT>
6

>  <SCORE.INTER.SOLV>
17.5913

>  <SCORE.INTER.VDW>
-18.0553

>  <SCORE.INTER.norm>
-0.264898

>  <SCORE.INTRA>
9.68911

>  <SCORE.INTRA.DIHEDRAL>
8.77142

>  <SCORE.INTRA.DIHEDRAL.0>
9.33621

>  <SCORE.INTRA.POLAR>
0

>  <SCORE.INTRA.POLAR.0>
0

>  <SCORE.INTRA.REPUL>
0.40166

>  <SCORE.INTRA.REPUL.0>
0

>  <SCORE.INTRA.SOLV>
6.23532

>  <SCORE.INTRA.SOLV.lig_0>
-65.9238

>  <SCORE.INTRA.VDW>
0.177441

>  <SCORE.INTRA.VDW.0>
-0.405582

>  <SCORE.INTRA.norm>
0.372658

>  <SCORE.RESTR>
6.1761

>  <SCORE.RESTR.CAVITY>
6.1761

>  <SCORE.RESTR.norm>
0.237542

>  <SCORE.SYSTEM>
0

>  <SCORE.SYSTEM.CONST>
0

>  <SCORE.SYSTEM.DIHEDRAL>
0

>  <SCORE.SYSTEM.SOLV>
0

>  <SCORE.SYSTEM.norm>
0

>  <SCORE.heavy>
26

>  <SCORE.norm>
0.345303

>  <RMSD>
28.352

$$$$
ligand
 OpenBabel11021811443D
libRbt.so/2013.1/901 2013/11/27
 26 28  0  0  0  0  0  0  0  0999 V2000
   16.7470   24.3078   43.4507 C   0  0  0  0  0  0  0  0  0  0  0  0
   23.7809   20.3072   42.9140 C   0  0  0  0  0  0  0  0  0  0  0  0
   23.3524   20.9826   48.4917 P   0  0  1  0  0  0  0  0  0  0  0  0
   22.3057   23.3407   48.6652 P   0  0  1  0  0  0  0  0  0  0  0  0
   21.9786   22.3709   42.3119 C   0  0  0  0  0  0  0  0  0  0  0  0
   19.9965   22.6382   43.8322 C   0  0  0  0  0  0  0  0  0  0  0  0
   20.5938   22.8841   42.6119 C   0  0  0  0  0  0  0  0  0  0  0  0
   19.8824   23.6206   41.6632 C   0  0  0  0  0  0  0  0  0  0  0  0
   20.4378   23.8943   40.4221 N   0  0  0  0  0  0  0  0  0  0  0  0
   18.6611   24.0514   41.9648 N   0  0  0  0  0  0  0  0  0  0  0  0
   18.1309   23.7980   43.1436 C   0  0  0  0  0  0  0  0  0  0  0  0
   18.7763   23.1050   44.0614 N   0  0  0  0  0  0  0  0  0  0  0  0
   24.1132   20.4240   49.6323 O   0  0  0  0  0  0  0  0  0  0  0  0
   21.3313   22.4004   49.4097 O   0  0  0  0  0  0  0  0  0  0  0  0
   23.8556   23.2246   45.5265 S   0  0  0  0  0  0  0  0  0  0  0  0
   22.6951   23.5460   44.2745 C   0  0  0  0  0  0  0  0  0  0  0  0
   21.7770   20.7789   48.7455 O   0  0  0  0  0  0  0  0  0  0  0  0
   22.6221   24.6245   49.5829 O   0  5  0  0  0  0  0  0  0  0  0  0
   22.8123   22.4846   43.5106 N   0  0  0  0  0  0  0  0  0  0  0  0
   23.6749   22.5541   48.3504 O   0  0  0  0  0  0  0  0  0  0  0  0
   21.6607   23.8027   47.3392 O   0  0  0  0  0  0  0  0  0  0  0  0
   23.6589   21.5207   43.8007 C   0  0  2  0  0  0  0  0  0  0  0  0
   24.4264   21.6466   44.9132 C   0  0  2  0  0  0  0  0  0  0  0  0
   25.4666   20.7139   45.4760 C   0  0  0  0  0  0  0  0  0  0  0  0
   25.1789   20.4597   46.9575 C   0  0  0  0  0  0  0  0  0  0  0  0
   23.7809   20.2248   47.1370 O   0  0  0  0  0  0  0  0  0  0  0  0
  1 11  1  0  0  0  0
  3 13  1  1  0  0  0
  3 17  1  0  0  0  0
  3 20  1  0  0  0  0
  3 26  1  0  0  0  0
  4 14  1  0  0  0  0
  4 18  1  1  0  0  0
  4 21  2  0  0  0  0
  4 20  1  0  0  0  0
  5 19  1  0  0  0  0
  5  7  1  0  0  0  0
  6  7  2  0  0  0  0
  6 12  1  0  0  0  0
  7  8  1  0  0  0  0
  8  9  1  0  0  0  0
  8 10  2  0  0  0  0
 10 11  1  0  0  0  0
 11 12  2  0  0  0  0
 14 17  1  0  0  0  0
 15 23  1  0  0  0  0
 15 16  1  0  0  0  0
 16 19  1  0  0  0  0
 19 22  1  0  0  0  0
 22  2  1  6  0  0  0
 22 23  1  0  0  0  0
 23 24  1  1  0  0  0
 24 25  1  0  0  0  0
 25 26  1  0  0  0  0
M  CHG  1  18  -1
M  END
>  <CHROM.1>
-39.36559818,-38.37592404,50.62947360,44.07876854,-139.85468241,-60.79730348
22.17466922,22.43627029,45.74973453,2.20306640,0.50074185,-1.62365800

>  <Name>
ligand

>  <RI>
0

>  <Rbt.Current_Directory>
/home/itssahil/PROJECTS/Mol_Feturizer/New_Systems/rnas/2HOL

>  <Rbt.Executable>
rbdock ($Id: //depot/dev/client3/rdock/2013.1/src/exe/rbdock.cxx#4 $)

>  <Rbt.Library>
libRbt.so (2013.1, Build901 2013/11/27)

>  <Rbt.Parameter_File>
/export/apps/rDock/src/rDock_2013.1_src/data/scripts/dock_solv.prm

>  <Rbt.Receptor>
prm/blind_docking_60.prm

>  <SCORE>
-1.55383

>  <SCORE.INTER>
-8.61704

>  <SCORE.INTER.CONST>
1

>  <SCORE.INTER.POLAR>
0

>  <SCORE.INTER.ROT>
6

>  <SCORE.INTER.SOLV>
19.3629

>  <SCORE.INTER.VDW>
-19.799

>  <SCORE.INTER.norm>
-0.331424

>  <SCORE.INTRA>
-0.391789

>  <SCORE.INTRA.DIHEDRAL>
2.12949

>  <SCORE.INTRA.DIHEDRAL.0>
9.33621

>  <SCORE.INTRA.POLAR>
0

>  <SCORE.INTRA.POLAR.0>
0

>  <SCORE.INTRA.REPUL>
0

>  <SCORE.INTRA.REPUL.0>
0

>  <SCORE.INTRA.SOLV>
0.892495

>  <SCORE.INTRA.SOLV.lig_0>
-65.9238

>  <SCORE.INTRA.VDW>
-1.90278

>  <SCORE.INTRA.VDW.0>
-0.405582

>  <SCORE.INTRA.norm>
-0.0150688

>  <SCORE.RESTR>
7.455

>  <SCORE.RESTR.CAVITY>
7.455

>  <SCORE.RESTR.norm>
0.286731

>  <SCORE.SYSTEM>
0

>  <SCORE.SYSTEM.CONST>
0

>  <SCORE.SYSTEM.DIHEDRAL>
0

>  <SCORE.SYSTEM.SOLV>
0

>  <SCORE.SYSTEM.norm>
0

>  <SCORE.heavy>
26

>  <SCORE.norm>
-0.0597626

>  <RMSD>
28.359

$$$$
ligand
 OpenBabel11021811443D
libRbt.so/2013.1/901 2013/11/27
 26 28  0  0  0  0  0  0  0  0999 V2000
   16.3904   22.7523   43.2234 C   0  0  0  0  0  0  0  0  0  0  0  0
   24.0595   23.1674   45.4357 C   0  0  0  0  0  0  0  0  0  0  0  0
   23.5011   21.0009   48.1607 P   0  0  1  0  0  0  0  0  0  0  0  0
   22.5122   23.3418   48.6390 P   0  0  1  0  0  0  0  0  0  0  0  0
   21.9789   23.7556   43.6484 C   0  0  0  0  0  0  0  0  0  0  0  0
   19.8094   22.8760   44.5602 C   0  0  0  0  0  0  0  0  0  0  0  0
   20.4997   23.4906   43.5345 C   0  0  0  0  0  0  0  0  0  0  0  0
   19.7925   23.8607   42.3893 C   0  0  0  0  0  0  0  0  0  0  0  0
   20.4397   24.4804   41.3307 N   0  0  0  0  0  0  0  0  0  0  0  0
   18.4891   23.6048   42.3256 N   0  0  0  0  0  0  0  0  0  0  0  0
   17.8689   23.0204   43.3300 C   0  0  0  0  0  0  0  0  0  0  0  0
   18.5080   22.6583   44.4252 N   0  0  0  0  0  0  0  0  0  0  0  0
   24.3193   20.3182   49.1884 O   0  0  0  0  0  0  0  0  0  0  0  0
   21.5672   22.3424   49.3433 O   0  0  0  0  0  0  0  0  0  0  0  0
   23.5074   20.3741   42.7460 S   0  0  0  0  0  0  0  0  0  0  0  0
   22.3843   21.6798   42.5201 C   0  0  0  0  0  0  0  0  0  0  0  0
   21.9405   20.7923   48.4905 O   0  0  0  0  0  0  0  0  0  0  0  0
   22.9085   24.5201   49.6613 O   0  5  0  0  0  0  0  0  0  0  0  0
   22.7140   22.4986   43.4921 N   0  0  0  0  0  0  0  0  0  0  0  0
   23.8444   22.5744   48.1605 O   0  0  0  0  0  0  0  0  0  0  0  0
   21.7965   23.9461   47.4101 O   0  0  0  0  0  0  0  0  0  0  0  0
   23.6918   22.2160   44.3251 C   0  0  2  0  0  0  0  0  0  0  0  0
   24.3581   21.0440   44.1671 C   0  0  2  0  0  0  0  0  0  0  0  0
   25.4994   20.4699   44.9650 C   0  0  0  0  0  0  0  0  0  0  0  0
   25.2147   20.6368   46.4594 C   0  0  0  0  0  0  0  0  0  0  0  0
   23.8315   20.3813   46.7115 O   0  0  0  0  0  0  0  0  0  0  0  0
  1 11  1  0  0  0  0
  3 13  1  1  0  0  0
  3 17  1  0  0  0  0
  3 20  1  0  0  0  0
  3 26  1  0  0  0  0
  4 14  1  0  0  0  0
  4 18  1  1  0  0  0
  4 21  2  0  0  0  0
  4 20  1  0  0  0  0
  5 19  1  0  0  0  0
  5  7  1  0  0  0  0
  6  7  2  0  0  0  0
  6 12  1  0  0  0  0
  7  8  1  0  0  0  0
  8  9  1  0  0  0  0
  8 10  2  0  0  0  0
 10 11  1  0  0  0  0
 11 12  2  0  0  0  0
 14 17  1  0  0  0  0
 15 23  1  0  0  0  0
 15 16  1  0  0  0  0
 16 19  1  0  0  0  0
 19 22  1  0  0  0  0
 22  2  1  1  0  0  0
 22 23  1  0  0  0  0
 23 24  1  6  0  0  0
 24 25  1  0  0  0  0
 25 26  1  0  0  0  0
M  CHG  1  18  -1
M  END
>  <CHROM.1>
45.66151550,74.00724577,-135.29709921,39.74443615,-162.87128253,-61.80848275
22.17542627,22.26086409,45.62744295,2.28931019,0.47491425,-1.70971281

>  <Name>
ligand

>  <RI>
0

>  <Rbt.Current_Directory>
/home/itssahil/PROJECTS/Mol_Feturizer/New_Systems/rnas/2HOL

>  <Rbt.Executable>
rbdock ($Id: //depot/dev/client3/rdock/2013.1/src/exe/rbdock.cxx#4 $)

>  <Rbt.Library>
libRbt.so (2013.1, Build901 2013/11/27)

>  <Rbt.Parameter_File>
/export/apps/rDock/src/rDock_2013.1_src/data/scripts/dock_solv.prm

>  <Rbt.Receptor>
prm/blind_docking_60.prm

>  <SCORE>
0.88417

>  <SCORE.INTER>
-8.20363

>  <SCORE.INTER.CONST>
1

>  <SCORE.INTER.POLAR>
0

>  <SCORE.INTER.ROT>
6

>  <SCORE.INTER.SOLV>
21.5398

>  <SCORE.INTER.VDW>
-20.249

>  <SCORE.INTER.norm>
-0.315524

>  <SCORE.INTRA>
1.39039

>  <SCORE.INTRA.DIHEDRAL>
-1.92599

>  <SCORE.INTRA.DIHEDRAL.0>
9.33621

>  <SCORE.INTRA.POLAR>
0

>  <SCORE.INTRA.POLAR.0>
0

>  <SCORE.INTRA.REPUL>
0

>  <SCORE.INTRA.REPUL.0>
0

>  <SCORE.INTRA.SOLV>
3.15462

>  <SCORE.INTRA.SOLV.lig_0>
-65.9238

>  <SCORE.INTRA.VDW>
0.776079

>  <SCORE.INTRA.VDW.0>
-0.405582

>  <SCORE.INTRA.norm>
0.0534767

>  <SCORE.RESTR>
7.69741

>  <SCORE.RESTR.CAVITY>
7.69741

>  <SCORE.RESTR.norm>
0.296054

>  <SCORE.SYSTEM>
0

>  <SCORE.SYSTEM.CONST>
0

>  <SCORE.SYSTEM.DIHEDRAL>
0

>  <SCORE.SYSTEM.SOLV>
0

>  <SCORE.SYSTEM.norm>
0

>  <SCORE.heavy>
26

>  <SCORE.norm>
0.0340065

>  <RMSD>
28.362

$$$$
ligand
 OpenBabel11021811443D
libRbt.so/2013.1/901 2013/11/27
 26 28  0  0  0  0  0  0  0  0999 V2000
   18.8546   24.4011   43.1527 C   0  0  0  0  0  0  0  0  0  0  0  0
   22.2178   19.4564   44.7411 C   0  0  0  0  0  0  0  0  0  0  0  0
   21.0582   21.7472   48.6080 P   0  0  1  0  0  0  0  0  0  0  0  0
   22.8750   23.5819   48.7469 P   0  0  1  0  0  0  0  0  0  0  0  0
   23.6210   21.2866   43.1439 C   0  0  0  0  0  0  0  0  0  0  0  0
   22.0160   22.8790   44.2394 C   0  0  0  0  0  0  0  0  0  0  0  0
   22.3590   22.1105   43.1449 C   0  0  0  0  0  0  0  0  0  0  0  0
   21.5073   22.1161   42.0389 C   0  0  0  0  0  0  0  0  0  0  0  0
   21.8066   21.3608   40.9149 N   0  0  0  0  0  0  0  0  0  0  0  0
   20.4008   22.8525   42.0811 N   0  0  0  0  0  0  0  0  0  0  0  0
   20.1143   23.5751   43.1445 C   0  0  0  0  0  0  0  0  0  0  0  0
   20.8976   23.5913   44.2053 N   0  0  0  0  0  0  0  0  0  0  0  0
   19.7006   22.0073   49.1379 O   0  0  0  0  0  0  0  0  0  0  0  0
   22.0038   23.9549   47.5262 O   0  0  0  0  0  0  0  0  0  0  0  0
   25.2220   21.1390   46.6081 S   0  0  0  0  0  0  0  0  0  0  0  0
   25.0984   21.7291   44.9790 C   0  0  0  0  0  0  0  0  0  0  0  0
   21.1927   22.3863   47.1378 O   0  0  0  0  0  0  0  0  0  0  0  0
   23.0690   24.8751   49.6852 O   0  5  0  0  0  0  0  0  0  0  0  0
   24.0613   21.0655   44.5231 N   0  0  0  0  0  0  0  0  0  0  0  0
   22.1517   22.4128   49.5851 O   0  0  0  0  0  0  0  0  0  0  0  0
   24.2558   23.0878   48.2601 O   0  0  0  0  0  0  0  0  0  0  0  0
   23.4080   20.2101   45.2789 C   0  0  2  0  0  0  0  0  0  0  0  0
   23.8343   20.0151   46.5528 C   0  0  2  0  0  0  0  0  0  0  0  0
   23.2874   19.1071   47.6230 C   0  0  0  0  0  0  0  0  0  0  0  0
   22.7033   19.9489   48.7598 C   0  0  0  0  0  0  0  0  0  0  0  0
   21.3089   20.1585   48.5283 O   0  0  0  0  0  0  0  0  0  0  0  0
  1 11  1  0  0  0  0
  3 13  1  1  0  0  0
  3 17  1  0  0  0  0
  3 20  1  0  0  0  0
  3 26  1  0  0  0  0
  4 14  1  0  0  0  0
  4 18  1  1  0  0  0
  4 21  2  0  0  0  0
  4 20  1  0  0  0  0
  5 19  1  0  0  0  0
  5  7  1  0  0  0  0
  6  7  2  0  0  0  0
  6 12  1  0  0  0  0
  7  8  1  0  0  0  0
  8  9  1  0  0  0  0
  8 10  2  0  0  0  0
 10 11  1  0  0  0  0
 11 12  2  0  0  0  0
 14 17  1  0  0  0  0
 15 23  1  0  0  0  0
 15 16  1  0  0  0  0
 16 19  1  0  0  0  0
 19 22  1  0  0  0  0
 22  2  1  6  0  0  0
 22 23  1  0  0  0  0
 23 24  1  1  0  0  0
 24 25  1  0  0  0  0
 25 26  1  0  0  0  0
M  CHG  1  18  -1
M  END
>  <CHROM.1>
-105.65420753,20.32441464,66.70592434,92.53815484,-126.95225885,-148.11386167
22.34239689,22.01429673,46.25643612,1.77407300,0.68812128,-1.69374138

>  <Name>
ligand

>  <RI>
0

>  <Rbt.Current_Directory>
/home/itssahil/PROJECTS/Mol_Feturizer/New_Systems/rnas/2HOL

>  <Rbt.Executable>
rbdock ($Id: //depot/dev/client3/rdock/2013.1/src/exe/rbdock.cxx#4 $)

>  <Rbt.Library>
libRbt.so (2013.1, Build901 2013/11/27)

>  <Rbt.Parameter_File>
/export/apps/rDock/src/rDock_2013.1_src/data/scripts/dock_solv.prm

>  <Rbt.Receptor>
prm/blind_docking_60.prm

>  <SCORE>
12.4806

>  <SCORE.INTER>
0.684919

>  <SCORE.INTER.CONST>
1

>  <SCORE.INTER.POLAR>
0

>  <SCORE.INTER.ROT>
6

>  <SCORE.INTER.SOLV>
20.5785

>  <SCORE.INTER.VDW>
-14.0029

>  <SCORE.INTER.norm>
0.026343

>  <SCORE.INTRA>
2.00706

>  <SCORE.INTRA.DIHEDRAL>
7.20171

>  <SCORE.INTRA.DIHEDRAL.0>
9.33621

>  <SCORE.INTRA.POLAR>
0

>  <SCORE.INTRA.POLAR.0>
0

>  <SCORE.INTRA.REPUL>
0

>  <SCORE.INTRA.REPUL.0>
0

>  <SCORE.INTRA.SOLV>
2.0749

>  <SCORE.INTRA.SOLV.lig_0>
-65.9238

>  <SCORE.INTRA.VDW>
-2.63124

>  <SCORE.INTRA.VDW.0>
-0.405582

>  <SCORE.INTRA.norm>
0.0771947

>  <SCORE.RESTR>
9.78862

>  <SCORE.RESTR.CAVITY>
9.78862

>  <SCORE.RESTR.norm>
0.376485

>  <SCORE.SYSTEM>
0

>  <SCORE.SYSTEM.CONST>
0

>  <SCORE.SYSTEM.DIHEDRAL>
0

>  <SCORE.SYSTEM.SOLV>
0

>  <SCORE.SYSTEM.norm>
0

>  <SCORE.heavy>
26

>  <SCORE.norm>
0.480023

>  <RMSD>
28.370

$$$$
ligand
 OpenBabel11021811443D
libRbt.so/2013.1/901 2013/11/27
 26 28  0  0  0  0  0  0  0  0999 V2000
   16.7208   23.6077   42.0170 C   0  0  0  0  0  0  0  0  0  0  0  0
   24.1891   23.0299   45.5332 C   0  0  0  0  0  0  0  0  0  0  0  0
   23.8419   21.2976   48.1904 P   0  0  1  0  0  0  0  0  0  0  0  0
   22.2000   23.2882   48.3586 P   0  0  1  0  0  0  0  0  0  0  0  0
   22.1243   23.8071   43.8006 C   0  0  0  0  0  0  0  0  0  0  0  0
   20.2814   24.4838   42.2328 C   0  0  0  0  0  0  0  0  0  0  0  0
   20.6937   23.7535   43.3296 C   0  0  0  0  0  0  0  0  0  0  0  0
   19.7517   22.9637   43.9911 C   0  0  0  0  0  0  0  0  0  0  0  0
   20.1152   22.2117   45.0983 N   0  0  0  0  0  0  0  0  0  0  0  0
   18.4983   22.9474   43.5473 N   0  0  0  0  0  0  0  0  0  0  0  0
   18.1491   23.6564   42.4936 C   0  0  0  0  0  0  0  0  0  0  0  0
   19.0145   24.4126   41.8468 N   0  0  0  0  0  0  0  0  0  0  0  0
   24.0355   20.3969   49.3492 O   0  0  0  0  0  0  0  0  0  0  0  0
   21.3190   22.0477   48.0878 O   0  0  0  0  0  0  0  0  0  0  0  0
   23.3469   20.3210   42.8323 S   0  0  0  0  0  0  0  0  0  0  0  0
   22.3308   21.7174   42.6446 C   0  0  0  0  0  0  0  0  0  0  0  0
   22.5082   20.8737   47.3972 O   0  0  0  0  0  0  0  0  0  0  0  0
   21.5945   24.1185   49.5973 O   0  5  0  0  0  0  0  0  0  0  0  0
   22.7492   22.4955   43.6159 N   0  0  0  0  0  0  0  0  0  0  0  0
   23.6987   22.8155   48.7092 O   0  0  0  0  0  0  0  0  0  0  0  0
   22.2239   24.1852   47.1007 O   0  0  0  0  0  0  0  0  0  0  0  0
   23.7188   22.1241   44.4231 C   0  0  2  0  0  0  0  0  0  0  0  0
   24.2821   20.9029   44.2390 C   0  0  2  0  0  0  0  0  0  0  0  0
   25.3897   20.2280   45.0047 C   0  0  0  0  0  0  0  0  0  0  0  0
   24.9417   19.9868   46.4481 C   0  0  0  0  0  0  0  0  0  0  0  0
   25.1111   21.1867   47.2054 O   0  0  0  0  0  0  0  0  0  0  0  0
  1 11  1  0  0  0  0
  3 13  1  1  0  0  0
  3 17  1  0  0  0  0
  3 20  1  0  0  0  0
  3 26  1  0  0  0  0
  4 14  1  0  0  0  0
  4 18  1  1  0  0  0
  4 21  2  0  0  0  0
  4 20  1  0  0  0  0
  5 19  1  0  0  0  0
  5  7  1  0  0  0  0
  6  7  2  0  0  0  0
  6 12  1  0  0  0  0
  7  8  1  0  0  0  0
  8  9  1  0  0  0  0
  8 10  2  0  0  0  0
 10 11  1  0  0  0  0
 11 12  2  0  0  0  0
 14 17  1  0  0  0  0
 15 23  1  0  0  0  0
 15 16  1  0  0  0  0
 16 19  1  0  0  0  0
 19 22  1  0  0  0  0
 22  2  1  1  0  0  0
 22 23  1  0  0  0  0
 23 24  1  6  0  0  0
 24 25  1  0  0  0  0
 25 26  1  0  0  0  0
M  CHG  1  18  -1
M  END
>  <CHROM.1>
29.27990271,-114.04803123,-116.55691889,-81.51664488,140.90002554,78.69957450
22.21527401,22.30235830,45.56619040,2.39045659,0.56329104,-1.76731795

>  <Name>
ligand

>  <RI>
0

>  <Rbt.Current_Directory>
/home/itssahil/PROJECTS/Mol_Feturizer/New_Systems/rnas/2HOL

>  <Rbt.Executable>
rbdock ($Id: //depot/dev/client3/rdock/2013.1/src/exe/rbdock.cxx#4 $)

>  <Rbt.Library>
libRbt.so (2013.1, Build901 2013/11/27)

>  <Rbt.Parameter_File>
/export/apps/rDock/src/rDock_2013.1_src/data/scripts/dock_solv.prm

>  <Rbt.Receptor>
prm/blind_docking_60.prm

>  <SCORE>
3.1287

>  <SCORE.INTER>
-9.25117

>  <SCORE.INTER.CONST>
1

>  <SCORE.INTER.POLAR>
0

>  <SCORE.INTER.ROT>
6

>  <SCORE.INTER.SOLV>
19.5529

>  <SCORE.INTER.VDW>
-20.2851

>  <SCORE.INTER.norm>
-0.355814

>  <SCORE.INTRA>
6.57864

>  <SCORE.INTRA.DIHEDRAL>
2.57801

>  <SCORE.INTRA.DIHEDRAL.0>
9.33621

>  <SCORE.INTRA.POLAR>
0

>  <SCORE.INTRA.POLAR.0>
0

>  <SCORE.INTRA.REPUL>
0

>  <SCORE.INTRA.REPUL.0>
0

>  <SCORE.INTRA.SOLV>
8.46546

>  <SCORE.INTRA.SOLV.lig_0>
-65.9238

>  <SCORE.INTRA.VDW>
1.05691

>  <SCORE.INTRA.VDW.0>
-0.405582

>  <SCORE.INTRA.norm>
0.253025

>  <SCORE.RESTR>
5.80123

>  <SCORE.RESTR.CAVITY>
5.80123

>  <SCORE.RESTR.norm>
0.223124

>  <SCORE.SYSTEM>
0

>  <SCORE.SYSTEM.CONST>
0

>  <SCORE.SYSTEM.DIHEDRAL>
0

>  <SCORE.SYSTEM.SOLV>
0

>  <SCORE.SYSTEM.norm>
0

>  <SCORE.heavy>
26

>  <SCORE.norm>
0.120334

>  <RMSD>
28.403

$$$$
ligand
 OpenBabel11021811443D
libRbt.so/2013.1/901 2013/11/27
 26 28  0  0  0  0  0  0  0  0999 V2000
   17.2360   23.2902   40.7743 C   0  0  0  0  0  0  0  0  0  0  0  0
   24.0042   23.1858   45.7304 C   0  0  0  0  0  0  0  0  0  0  0  0
   23.2951   21.0125   48.3782 P   0  0  1  0  0  0  0  0  0  0  0  0
   22.2888   23.3667   48.7414 P   0  0  1  0  0  0  0  0  0  0  0  0
   22.0262   23.7381   43.8193 C   0  0  0  0  0  0  0  0  0  0  0  0
   20.6766   24.1411   41.7389 C   0  0  0  0  0  0  0  0  0  0  0  0
   20.7576   23.6189   43.0145 C   0  0  0  0  0  0  0  0  0  0  0  0
   19.6346   22.9772   43.5397 C   0  0  0  0  0  0  0  0  0  0  0  0
   19.6646   22.4363   44.8164 N   0  0  0  0  0  0  0  0  0  0  0  0
   18.5328   22.8973   42.7996 N   0  0  0  0  0  0  0  0  0  0  0  0
   18.5006   23.4056   41.5848 C   0  0  0  0  0  0  0  0  0  0  0  0
   19.5439   24.0179   41.0599 N   0  0  0  0  0  0  0  0  0  0  0  0
   24.0127   20.3352   49.4818 O   0  0  0  0  0  0  0  0  0  0  0  0
   21.2761   22.3830   49.3698 O   0  0  0  0  0  0  0  0  0  0  0  0
   23.6779   20.3926   43.0039 S   0  0  0  0  0  0  0  0  0  0  0  0
   22.5438   21.6757   42.7126 C   0  0  0  0  0  0  0  0  0  0  0  0
   21.7095   20.8203   48.5704 O   0  0  0  0  0  0  0  0  0  0  0  0
   22.6035   24.5535   49.7820 O   0  5  0  0  0  0  0  0  0  0  0  0
   22.7957   22.4972   43.7054 N   0  0  0  0  0  0  0  0  0  0  0  0
   23.6512   22.5830   48.3914 O   0  0  0  0  0  0  0  0  0  0  0  0
   21.6904   23.9624   47.4474 O   0  0  0  0  0  0  0  0  0  0  0  0
   23.7258   22.2315   44.5965 C   0  0  2  0  0  0  0  0  0  0  0  0
   24.4249   21.0741   44.4768 C   0  0  2  0  0  0  0  0  0  0  0  0
   25.5264   20.5205   45.3422 C   0  0  0  0  0  0  0  0  0  0  0  0
   25.1387   20.6593   46.8162 C   0  0  0  0  0  0  0  0  0  0  0  0
   23.7471   20.3735   46.9709 O   0  0  0  0  0  0  0  0  0  0  0  0
  1 11  1  0  0  0  0
  3 13  1  1  0  0  0
  3 17  1  0  0  0  0
  3 20  1  0  0  0  0
  3 26  1  0  0  0  0
  4 14  1  0  0  0  0
  4 18  1  1  0  0  0
  4 21  2  0  0  0  0
  4 20  1  0  0  0  0
  5 19  1  0  0  0  0
  5  7  1  0  0  0  0
  6  7  2  0  0  0  0
  6 12  1  0  0  0  0
  7  8  1  0  0  0  0
  8  9  1  0  0  0  0
  8 10  2  0  0  0  0
 10 11  1  0  0  0  0
 11 12  2  0  0  0  0
 14 17  1  0  0  0  0
 15 23  1  0  0  0  0
 15 16  1  0  0  0  0
 16 19  1  0  0  0  0
 19 22  1  0  0  0  0
 22  2  1  1  0  0  0
 22 23  1  0  0  0  0
 23 24  1  6  0  0  0
 24 25  1  0  0  0  0
 25 26  1  0  0  0  0
M  CHG  1  18  -1
M  END
>  <CHROM.1>
19.05313641,-97.68968033,-134.58533176,39.27808341,-160.81781172,-63.96312781
22.19330305,22.27228509,45.60012721,2.16847085,0.56398638,-1.71959338

>  <Name>
ligand

>  <RI>
0

>  <Rbt.Current_Directory>
/home/itssahil/PROJECTS/Mol_Feturizer/New_Systems/rnas/2HOL

>  <Rbt.Executable>
rbdock ($Id: //depot/dev/client3/rdock/2013.1/src/exe/rbdock.cxx#4 $)

>  <Rbt.Library>
libRbt.so (2013.1, Build901 2013/11/27)

>  <Rbt.Parameter_File>
/export/apps/rDock/src/rDock_2013.1_src/data/scripts/dock_solv.prm

>  <Rbt.Receptor>
prm/blind_docking_60.prm

>  <SCORE>
3.21443

>  <SCORE.INTER>
-7.70928

>  <SCORE.INTER.CONST>
1

>  <SCORE.INTER.POLAR>
0

>  <SCORE.INTER.ROT>
6

>  <SCORE.INTER.SOLV>
19.4862

>  <SCORE.INTER.VDW>
-19.2349

>  <SCORE.INTER.norm>
-0.296511

>  <SCORE.INTRA>
3.54107

>  <SCORE.INTRA.DIHEDRAL>
-1.54094

>  <SCORE.INTRA.DIHEDRAL.0>
9.33621

>  <SCORE.INTRA.POLAR>
0

>  <SCORE.INTRA.POLAR.0>
0

>  <SCORE.INTRA.REPUL>
0.0113146

>  <SCORE.INTRA.REPUL.0>
0

>  <SCORE.INTRA.SOLV>
4.96481

>  <SCORE.INTRA.SOLV.lig_0>
-65.9238

>  <SCORE.INTRA.VDW>
1.77256

>  <SCORE.INTRA.VDW.0>
-0.405582

>  <SCORE.INTRA.norm>
0.136195

>  <SCORE.RESTR>
7.38264

>  <SCORE.RESTR.CAVITY>
7.38264

>  <SCORE.RESTR.norm>
0.283948

>  <SCORE.SYSTEM>
0

>  <SCORE.SYSTEM.CONST>
0

>  <SCORE.SYSTEM.DIHEDRAL>
0

>  <SCORE.SYSTEM.SOLV>
0

>  <SCORE.SYSTEM.norm>
0

>  <SCORE.heavy>
26

>  <SCORE.norm>
0.123632

>  <RMSD>
28.457

$$$$
ligand
 OpenBabel11021811443D
libRbt.so/2013.1/901 2013/11/27
 26 28  0  0  0  0  0  0  0  0999 V2000
   16.5157   22.7504   42.3163 C   0  0  0  0  0  0  0  0  0  0  0  0
   23.9926   23.1940   45.5074 C   0  0  0  0  0  0  0  0  0  0  0  0
   23.4523   21.0731   48.2554 P   0  0  1  0  0  0  0  0  0  0  0  0
   22.3937   23.3886   48.7075 P   0  0  1  0  0  0  0  0  0  0  0  0
   21.9632   23.7357   43.6479 C   0  0  0  0  0  0  0  0  0  0  0  0
   19.5666   23.3244   44.2797 C   0  0  0  0  0  0  0  0  0  0  0  0
   20.5217   23.4749   43.2940 C   0  0  0  0  0  0  0  0  0  0  0  0
   20.1180   23.3796   41.9611 C   0  0  0  0  0  0  0  0  0  0  0  0
   21.0388   23.5227   40.9339 N   0  0  0  0  0  0  0  0  0  0  0  0
   18.8377   23.1436   41.6905 N   0  0  0  0  0  0  0  0  0  0  0  0
   17.9585   23.0113   42.6624 C   0  0  0  0  0  0  0  0  0  0  0  0
   18.3074   23.0955   43.9313 N   0  0  0  0  0  0  0  0  0  0  0  0
   24.2804   20.4214   49.2951 O   0  0  0  0  0  0  0  0  0  0  0  0
   21.4711   22.3680   49.4113 O   0  0  0  0  0  0  0  0  0  0  0  0
   23.5947   20.3873   42.8043 S   0  0  0  0  0  0  0  0  0  0  0  0
   22.4522   21.6683   42.5376 C   0  0  0  0  0  0  0  0  0  0  0  0
   21.8954   20.8230   48.5734 O   0  0  0  0  0  0  0  0  0  0  0  0
   22.7476   24.5851   49.7242 O   0  5  0  0  0  0  0  0  0  0  0  0
   22.7303   22.4948   43.5192 N   0  0  0  0  0  0  0  0  0  0  0  0
   23.7511   22.6556   48.2462 O   0  0  0  0  0  0  0  0  0  0  0  0
   21.6720   23.9634   47.4680 O   0  0  0  0  0  0  0  0  0  0  0  0
   23.6843   22.2340   44.3861 C   0  0  2  0  0  0  0  0  0  0  0  0
   24.3808   21.0765   44.2531 C   0  0  2  0  0  0  0  0  0  0  0  0
   25.5058   20.5278   45.0911 C   0  0  0  0  0  0  0  0  0  0  0  0
   25.1915   20.7412   46.5736 C   0  0  0  0  0  0  0  0  0  0  0  0
   23.8128   20.4525   46.8138 O   0  0  0  0  0  0  0  0  0  0  0  0
  1 11  1  0  0  0  0
  3 13  1  1  0  0  0
  3 17  1  0  0  0  0
  3 20  1  0  0  0  0
  3 26  1  0  0  0  0
  4 14  1  0  0  0  0
  4 18  1  1  0  0  0
  4 21  2  0  0  0  0
  4 20  1  0  0  0  0
  5 19  1  0  0  0  0
  5  7  1  0  0  0  0
  6  7  2  0  0  0  0
  6 12  1  0  0  0  0
  7  8  1  0  0  0  0
  8  9  1  0  0  0  0
  8 10  2  0  0  0  0
 10 11  1  0  0  0  0
 11 12  2  0  0  0  0
 14 17  1  0  0  0  0
 15 23  1  0  0  0  0
 15 16  1  0  0  0  0
 16 19  1  0  0  0  0
 19 22  1  0  0  0  0
 22  2  1  1  0  0  0
 22 23  1  0  0  0  0
 23 24  1  6  0  0  0
 24 25  1  0  0  0  0
 25 26  1  0  0  0  0
M  CHG  1  18  -1
M  END
>  <CHROM.1>
37.81495764,101.51736674,-137.58250913,41.55577445,-164.68589548,-61.61714544
22.18217361,22.25790499,45.55177793,2.19789969,0.47334036,-1.72690963

>  <Name>
ligand

>  <RI>
0

>  <Rbt.Current_Directory>
/home/itssahil/PROJECTS/Mol_Feturizer/New_Systems/rnas/2HOL

>  <Rbt.Executable>
rbdock ($Id: //depot/dev/client3/rdock/2013.1/src/exe/rbdock.cxx#4 $)

>  <Rbt.Library>
libRbt.so (2013.1, Build901 2013/11/27)

>  <Rbt.Parameter_File>
/export/apps/rDock/src/rDock_2013.1_src/data/scripts/dock_solv.prm

>  <Rbt.Receptor>
prm/blind_docking_60.prm

>  <SCORE>
2.15255

>  <SCORE.INTER>
-7.69921

>  <SCORE.INTER.CONST>
1

>  <SCORE.INTER.POLAR>
0

>  <SCORE.INTER.ROT>
6

>  <SCORE.INTER.SOLV>
21.0965

>  <SCORE.INTER.VDW>
-19.765

>  <SCORE.INTER.norm>
-0.296124

>  <SCORE.INTRA>
2.51578

>  <SCORE.INTRA.DIHEDRAL>
-2.38084

>  <SCORE.INTRA.DIHEDRAL.0>
9.33621

>  <SCORE.INTRA.POLAR>
0

>  <SCORE.INTRA.POLAR.0>
0

>  <SCORE.INTRA.REPUL>
0

>  <SCORE.INTRA.REPUL.0>
0

>  <SCORE.INTRA.SOLV>
4.01483

>  <SCORE.INTRA.SOLV.lig_0>
-65.9238

>  <SCORE.INTRA.VDW>
1.69878

>  <SCORE.INTRA.VDW.0>
-0.405582

>  <SCORE.INTRA.norm>
0.0967607

>  <SCORE.RESTR>
7.33599

>  <SCORE.RESTR.CAVITY>
7.33599

>  <SCORE.RESTR.norm>
0.282153

>  <SCORE.SYSTEM>
0

>  <SCORE.SYSTEM.CONST>
0

>  <SCORE.SYSTEM.DIHEDRAL>
0

>  <SCORE.SYSTEM.SOLV>
0

>  <SCORE.SYSTEM.norm>
0

>  <SCORE.heavy>
26

>  <SCORE.norm>
0.0827905

>  <RMSD>
28.471

$$$$
ligand
 OpenBabel11021811443D
libRbt.so/2013.1/901 2013/11/27
 26 28  0  0  0  0  0  0  0  0999 V2000
   20.2799   26.7508   42.8022 C   0  0  0  0  0  0  0  0  0  0  0  0
   21.2629   21.0892   45.2472 C   0  0  0  0  0  0  0  0  0  0  0  0
   22.9847   23.3207   47.3149 P   0  0  1  0  0  0  0  0  0  0  0  0
   21.9944   22.1924   49.4203 P   0  0  1  0  0  0  0  0  0  0  0  0
   21.3339   21.1669   42.4439 C   0  0  0  0  0  0  0  0  0  0  0  0
   21.8272   23.4627   43.3372 C   0  0  0  0  0  0  0  0  0  0  0  0
   21.0537   22.6448   42.5378 C   0  0  0  0  0  0  0  0  0  0  0  0
   20.0056   23.2215   41.8184 C   0  0  0  0  0  0  0  0  0  0  0  0
   19.1991   22.4431   41.0016 N   0  0  0  0  0  0  0  0  0  0  0  0
   19.7880   24.5284   41.9323 N   0  0  0  0  0  0  0  0  0  0  0  0
   20.5539   25.2728   42.7033 C   0  0  0  0  0  0  0  0  0  0  0  0
   21.5514   24.7587   43.3959 N   0  0  0  0  0  0  0  0  0  0  0  0
   22.1345   24.1911   46.4716 O   0  0  0  0  0  0  0  0  0  0  0  0
   22.3170   23.6436   49.8423 O   0  0  0  0  0  0  0  0  0  0  0  0
   24.8089   20.3107   43.7767 S   0  0  0  0  0  0  0  0  0  0  0  0
   23.6674   20.6221   42.5049 C   0  0  0  0  0  0  0  0  0  0  0  0
   23.5127   24.1538   48.5857 O   0  0  0  0  0  0  0  0  0  0  0  0
   20.4950   21.8208   49.8721 O   0  5  0  0  0  0  0  0  0  0  0  0
   22.5633   20.8551   43.1761 N   0  0  0  0  0  0  0  0  0  0  0  0
   22.1231   22.0577   47.8209 O   0  0  0  0  0  0  0  0  0  0  0  0
   22.9907   21.2267   50.1002 O   0  0  0  0  0  0  0  0  0  0  0  0
   22.5388   20.8179   44.4906 C   0  0  2  0  0  0  0  0  0  0  0  0
   23.6872   20.5223   45.1511 C   0  0  2  0  0  0  0  0  0  0  0  0
   23.9450   20.4083   46.6307 C   0  0  0  0  0  0  0  0  0  0  0  0
   24.7340   21.6293   47.1089 C   0  0  0  0  0  0  0  0  0  0  0  0
   24.2418   22.8000   46.4537 O   0  0  0  0  0  0  0  0  0  0  0  0
  1 11  1  0  0  0  0
  3 13  1  6  0  0  0
  3 17  1  0  0  0  0
  3 20  1  0  0  0  0
  3 26  1  0  0  0  0
  4 14  1  0  0  0  0
  4 18  1  1  0  0  0
  4 21  2  0  0  0  0
  4 20  1  0  0  0  0
  5 19  1  0  0  0  0
  5  7  1  0  0  0  0
  6  7  2  0  0  0  0
  6 12  1  0  0  0  0
  7  8  1  0  0  0  0
  8  9  1  0  0  0  0
  8 10  2  0  0  0  0
 10 11  1  0  0  0  0
 11 12  2  0  0  0  0
 14 17  1  0  0  0  0
 15 23  1  0  0  0  0
 15 16  1  0  0  0  0
 16 19  1  0  0  0  0
 19 22  1  0  0  0  0
 22  2  1  6  0  0  0
 22 23  1  0  0  0  0
 23 24  1  1  0  0  0
 24 25  1  0  0  0  0
 25 26  1  0  0  0  0
M  CHG  1  18  -1
M  END
>  <CHROM.1>
-104.01642830,-6.06724484,73.74402790,39.78885159,85.33502102,-159.30755837
22.29682829,22.47948922,45.58911597,1.97581007,0.90087350,-1.76738689

>  <Name>
ligand

>  <RI>
0

>  <Rbt.Current_Directory>
/home/itssahil/PROJECTS/Mol_Feturizer/New_Systems/rnas/2HOL

>  <Rbt.Executable>
rbdock ($Id: //depot/dev/client3/rdock/2013.1/src/exe/rbdock.cxx#4 $)

>  <Rbt.Library>
libRbt.so (2013.1, Build901 2013/11/27)

>  <Rbt.Parameter_File>
/export/apps/rDock/src/rDock_2013.1_src/data/scripts/dock_solv.prm

>  <Rbt.Receptor>
prm/blind_docking_60.prm

>  <SCORE>
3.54821

>  <SCORE.INTER>
-4.14398

>  <SCORE.INTER.CONST>
1

>  <SCORE.INTER.POLAR>
0

>  <SCORE.INTER.ROT>
6

>  <SCORE.INTER.SOLV>
11.7721

>  <SCORE.INTER.VDW>
-14.2867

>  <SCORE.INTER.norm>
-0.159384

>  <SCORE.INTRA>
1.00717

>  <SCORE.INTRA.DIHEDRAL>
0.508586

>  <SCORE.INTRA.DIHEDRAL.0>
9.33621

>  <SCORE.INTRA.POLAR>
0

>  <SCORE.INTRA.POLAR.0>
0

>  <SCORE.INTRA.REPUL>
0

>  <SCORE.INTRA.REPUL.0>
0

>  <SCORE.INTRA.SOLV>
3.13002

>  <SCORE.INTRA.SOLV.lig_0>
-65.9238

>  <SCORE.INTRA.VDW>
-0.812126

>  <SCORE.INTRA.VDW.0>
-0.405582

>  <SCORE.INTRA.norm>
0.0387375

>  <SCORE.RESTR>
6.68502

>  <SCORE.RESTR.CAVITY>
6.68502

>  <SCORE.RESTR.norm>
0.257116

>  <SCORE.SYSTEM>
0

>  <SCORE.SYSTEM.CONST>
0

>  <SCORE.SYSTEM.DIHEDRAL>
0

>  <SCORE.SYSTEM.SOLV>
0

>  <SCORE.SYSTEM.norm>
0

>  <SCORE.heavy>
26

>  <SCORE.norm>
0.13647

>  <RMSD>
28.473

$$$$
ligand
 OpenBabel11021811443D
libRbt.so/2013.1/901 2013/11/27
 26 28  0  0  0  0  0  0  0  0999 V2000
   17.6625   22.6834   40.4465 C   0  0  0  0  0  0  0  0  0  0  0  0
   22.3819   24.2420   47.3066 C   0  0  0  0  0  0  0  0  0  0  0  0
   24.7940   21.3998   46.8793 P   0  0  1  0  0  0  0  0  0  0  0  0
   23.5861   20.6614   44.7155 P   0  0  1  0  0  0  0  0  0  0  0  0
   20.8468   24.0402   44.9672 C   0  0  0  0  0  0  0  0  0  0  0  0
   18.6510   23.4461   43.9009 C   0  0  0  0  0  0  0  0  0  0  0  0
   20.0052   23.6811   43.7698 C   0  0  0  0  0  0  0  0  0  0  0  0
   20.5750   23.5780   42.4996 C   0  0  0  0  0  0  0  0  0  0  0  0
   21.9309   23.8039   42.3149 N   0  0  0  0  0  0  0  0  0  0  0  0
   19.7992   23.2540   41.4694 N   0  0  0  0  0  0  0  0  0  0  0  0
   18.5101   23.0428   41.6388 C   0  0  0  0  0  0  0  0  0  0  0  0
   17.9414   23.1320   42.8253 N   0  0  0  0  0  0  0  0  0  0  0  0
   25.8911   20.5748   47.4337 O   0  0  0  0  0  0  0  0  0  0  0  0
   24.9000   21.3275   44.2484 O   0  0  0  0  0  0  0  0  0  0  0  0
   20.3183   20.9189   47.1034 S   0  0  0  0  0  0  0  0  0  0  0  0
   20.0445   21.9030   45.6985 C   0  0  0  0  0  0  0  0  0  0  0  0
   25.3625   22.3191   45.6879 O   0  0  0  0  0  0  0  0  0  0  0  0
   23.4106   19.2414   43.9784 O   0  5  0  0  0  0  0  0  0  0  0  0
   20.8001   22.9487   45.9426 N   0  0  0  0  0  0  0  0  0  0  0  0
   23.6352   20.4376   46.3093 O   0  0  0  0  0  0  0  0  0  0  0  0
   22.3925   21.5762   44.3604 O   0  0  0  0  0  0  0  0  0  0  0  0
   21.5179   23.0349   47.0413 C   0  0  2  0  0  0  0  0  0  0  0  0
   21.4574   22.0154   47.9354 C   0  0  2  0  0  0  0  0  0  0  0  0
   22.1585   21.8521   49.2585 C   0  0  0  0  0  0  0  0  0  0  0  0
   23.6202   21.4666   49.0197 C   0  0  0  0  0  0  0  0  0  0  0  0
   24.1877   22.3378   48.0394 O   0  0  0  0  0  0  0  0  0  0  0  0
  1 11  1  0  0  0  0
  3 13  1  1  0  0  0
  3 17  1  0  0  0  0
  3 20  1  0  0  0  0
  3 26  1  0  0  0  0
  4 14  1  0  0  0  0
  4 18  1  6  0  0  0
  4 21  2  0  0  0  0
  4 20  1  0  0  0  0
  5 19  1  0  0  0  0
  5  7  1  0  0  0  0
  6  7  2  0  0  0  0
  6 12  1  0  0  0  0
  7  8  1  0  0  0  0
  8  9  1  0  0  0  0
  8 10  2  0  0  0  0
 10 11  1  0  0  0  0
 11 12  2  0  0  0  0
 14 17  1  0  0  0  0
 15 23  1  0  0  0  0
 15 16  1  0  0  0  0
 16 19  1  0  0  0  0
 19 22  1  0  0  0  0
 22  2  1  1  0  0  0
 22 23  1  0  0  0  0
 23 24  1  6  0  0  0
 24 25  1  0  0  0  0
 25 26  1  0  0  0  0
M  CHG  1  18  -1
M  END
>  <CHROM.1>
-2.76948709,60.98072442,103.38044935,47.93979048,-125.37308505,-63.78507081
22.04560363,22.05219667,45.34688178,-2.42118935,-0.36080624,1.54398590

>  <Name>
ligand

>  <RI>
0

>  <Rbt.Current_Directory>
/home/itssahil/PROJECTS/Mol_Feturizer/New_Systems/rnas/2HOL

>  <Rbt.Executable>
rbdock ($Id: //depot/dev/client3/rdock/2013.1/src/exe/rbdock.cxx#4 $)

>  <Rbt.Library>
libRbt.so (2013.1, Build901 2013/11/27)

>  <Rbt.Parameter_File>
/export/apps/rDock/src/rDock_2013.1_src/data/scripts/dock_solv.prm

>  <Rbt.Receptor>
prm/blind_docking_60.prm

>  <SCORE>
9.7282

>  <SCORE.INTER>
-1.36252

>  <SCORE.INTER.CONST>
1

>  <SCORE.INTER.POLAR>
0

>  <SCORE.INTER.ROT>
6

>  <SCORE.INTER.SOLV>
17.6137

>  <SCORE.INTER.VDW>
-14.3796

>  <SCORE.INTER.norm>
-0.0524048

>  <SCORE.INTRA>
3.67083

>  <SCORE.INTRA.DIHEDRAL>
2.93694

>  <SCORE.INTRA.DIHEDRAL.0>
9.33621

>  <SCORE.INTRA.POLAR>
0

>  <SCORE.INTRA.POLAR.0>
0

>  <SCORE.INTRA.REPUL>
0

>  <SCORE.INTRA.REPUL.0>
0

>  <SCORE.INTRA.SOLV>
6.95034

>  <SCORE.INTRA.SOLV.lig_0>
-65.9238

>  <SCORE.INTRA.VDW>
-1.27281

>  <SCORE.INTRA.VDW.0>
-0.405582

>  <SCORE.INTRA.norm>
0.141186

>  <SCORE.RESTR>
7.41989

>  <SCORE.RESTR.CAVITY>
7.41989

>  <SCORE.RESTR.norm>
0.28538

>  <SCORE.SYSTEM>
0

>  <SCORE.SYSTEM.CONST>
0

>  <SCORE.SYSTEM.DIHEDRAL>
0

>  <SCORE.SYSTEM.SOLV>
0

>  <SCORE.SYSTEM.norm>
0

>  <SCORE.heavy>
26

>  <SCORE.norm>
0.374161

>  <RMSD>
28.476

$$$$
ligand
 OpenBabel11021811443D
libRbt.so/2013.1/901 2013/11/27
 26 28  0  0  0  0  0  0  0  0999 V2000
   19.4350   25.6373   39.7493 C   0  0  0  0  0  0  0  0  0  0  0  0
   23.0877   19.7627   44.2110 C   0  0  0  0  0  0  0  0  0  0  0  0
   23.0505   21.2094   48.8588 P   0  0  1  0  0  0  0  0  0  0  0  0
   21.5985   23.3191   48.5020 P   0  0  1  0  0  0  0  0  0  0  0  0
   21.1007   21.5366   43.3308 C   0  0  0  0  0  0  0  0  0  0  0  0
   21.4200   22.9527   41.2804 C   0  0  0  0  0  0  0  0  0  0  0  0
   20.6586   22.6223   42.3837 C   0  0  0  0  0  0  0  0  0  0  0  0
   19.4685   23.3192   42.5995 C   0  0  0  0  0  0  0  0  0  0  0  0
   18.6682   23.0256   43.6935 N   0  0  0  0  0  0  0  0  0  0  0  0
   19.1160   24.2737   41.7433 N   0  0  0  0  0  0  0  0  0  0  0  0
   19.8705   24.5533   40.7004 C   0  0  0  0  0  0  0  0  0  0  0  0
   21.0002   23.9138   40.4685 N   0  0  0  0  0  0  0  0  0  0  0  0
   23.8001   21.0311   50.1229 O   0  0  0  0  0  0  0  0  0  0  0  0
   20.7445   22.3727   49.3756 O   0  0  0  0  0  0  0  0  0  0  0  0
   23.6053   23.4202   45.5134 S   0  0  0  0  0  0  0  0  0  0  0  0
   22.1807   23.3121   44.5255 C   0  0  0  0  0  0  0  0  0  0  0  0
   21.5192   20.7669   49.0752 O   0  0  0  0  0  0  0  0  0  0  0  0
   21.6095   24.7905   49.1542 O   0  5  0  0  0  0  0  0  0  0  0  0
   22.1746   22.0432   44.1881 N   0  0  0  0  0  0  0  0  0  0  0  0
   23.1050   22.7572   48.4170 O   0  0  0  0  0  0  0  0  0  0  0  0
   20.9947   23.3907   47.0815 O   0  0  0  0  0  0  0  0  0  0  0  0
   23.1093   21.2178   44.6061 C   0  0  2  0  0  0  0  0  0  0  0  0
   24.0990   21.7072   45.3957 C   0  0  2  0  0  0  0  0  0  0  0  0
   25.2817   21.0019   46.0060 C   0  0  0  0  0  0  0  0  0  0  0  0
   25.0394   20.7969   47.5031 C   0  0  0  0  0  0  0  0  0  0  0  0
   23.7149   20.3009   47.7071 O   0  0  0  0  0  0  0  0  0  0  0  0
  1 11  1  0  0  0  0
  3 13  1  1  0  0  0
  3 17  1  0  0  0  0
  3 20  1  0  0  0  0
  3 26  1  0  0  0  0
  4 14  1  0  0  0  0
  4 18  1  1  0  0  0
  4 21  2  0  0  0  0
  4 20  1  0  0  0  0
  5 19  1  0  0  0  0
  5  7  1  0  0  0  0
  6  7  2  0  0  0  0
  6 12  1  0  0  0  0
  7  8  1  0  0  0  0
  8  9  1  0  0  0  0
  8 10  2  0  0  0  0
 10 11  1  0  0  0  0
 11 12  2  0  0  0  0
 14 17  1  0  0  0  0
 15 23  1  0  0  0  0
 15 16  1  0  0  0  0
 16 19  1  0  0  0  0
 19 22  1  0  0  0  0
 22  2  1  6  0  0  0
 22 23  1  0  0  0  0
 23 24  1  1  0  0  0
 24 25  1  0  0  0  0
 25 26  1  0  0  0  0
M  CHG  1  18  -1
M  END
>  <CHROM.1>
32.19201297,76.37706772,74.48574579,45.85619559,-131.08599019,-63.54916990
22.02925473,22.50216900,45.70141183,2.02847822,0.67498100,-1.58914096

>  <Name>
ligand

>  <RI>
0

>  <Rbt.Current_Directory>
/home/itssahil/PROJECTS/Mol_Feturizer/New_Systems/rnas/2HOL

>  <Rbt.Executable>
rbdock ($Id: //depot/dev/client3/rdock/2013.1/src/exe/rbdock.cxx#4 $)

>  <Rbt.Library>
libRbt.so (2013.1, Build901 2013/11/27)

>  <Rbt.Parameter_File>
/export/apps/rDock/src/rDock_2013.1_src/data/scripts/dock_solv.prm

>  <Rbt.Receptor>
prm/blind_docking_60.prm

>  <SCORE>
2.7975

>  <SCORE.INTER>
-6.14216

>  <SCORE.INTER.CONST>
1

>  <SCORE.INTER.POLAR>
0

>  <SCORE.INTER.ROT>
6

>  <SCORE.INTER.SOLV>
21.5158

>  <SCORE.INTER.VDW>
-18.8667

>  <SCORE.INTER.norm>
-0.236237

>  <SCORE.INTRA>
-0.359359

>  <SCORE.INTRA.DIHEDRAL>
3.08245

>  <SCORE.INTRA.DIHEDRAL.0>
9.33621

>  <SCORE.INTRA.POLAR>
0

>  <SCORE.INTRA.POLAR.0>
0

>  <SCORE.INTRA.REPUL>
0

>  <SCORE.INTRA.REPUL.0>
0

>  <SCORE.INTRA.SOLV>
2.75272

>  <SCORE.INTRA.SOLV.lig_0>
-65.9238

>  <SCORE.INTRA.VDW>
-3.27694

>  <SCORE.INTRA.VDW.0>
-0.405582

>  <SCORE.INTRA.norm>
-0.0138215

>  <SCORE.RESTR>
9.29902

>  <SCORE.RESTR.CAVITY>
9.29902

>  <SCORE.RESTR.norm>
0.357654

>  <SCORE.SYSTEM>
0

>  <SCORE.SYSTEM.CONST>
0

>  <SCORE.SYSTEM.DIHEDRAL>
0

>  <SCORE.SYSTEM.SOLV>
0

>  <SCORE.SYSTEM.norm>
0

>  <SCORE.heavy>
26

>  <SCORE.norm>
0.107596

>  <RMSD>
28.479

$$$$
ligand
 OpenBabel11021811443D
libRbt.so/2013.1/901 2013/11/27
 26 28  0  0  0  0  0  0  0  0999 V2000
   19.0556   25.7536   39.7484 C   0  0  0  0  0  0  0  0  0  0  0  0
   22.4885   20.0680   43.6549 C   0  0  0  0  0  0  0  0  0  0  0  0
   23.9878   21.3028   48.0726 P   0  0  1  0  0  0  0  0  0  0  0  0
   22.2153   23.0490   48.7765 P   0  0  1  0  0  0  0  0  0  0  0  0
   20.4401   21.9805   43.7814 C   0  0  0  0  0  0  0  0  0  0  0  0
   21.0122   23.4231   41.8058 C   0  0  0  0  0  0  0  0  0  0  0  0
   20.0723   22.9793   42.7145 C   0  0  0  0  0  0  0  0  0  0  0  0
   18.7722   23.4789   42.6196 C   0  0  0  0  0  0  0  0  0  0  0  0
   17.7915   23.0651   43.5087 N   0  0  0  0  0  0  0  0  0  0  0  0
   18.4891   24.3626   41.6672 N   0  0  0  0  0  0  0  0  0  0  0  0
   19.4159   24.7554   40.8176 C   0  0  0  0  0  0  0  0  0  0  0  0
   20.6530   24.3029   40.8804 N   0  0  0  0  0  0  0  0  0  0  0  0
   24.1921   20.0843   48.8882 O   0  0  0  0  0  0  0  0  0  0  0  0
   21.4280   21.9235   48.0684 O   0  0  0  0  0  0  0  0  0  0  0  0
   23.6108   23.4126   45.3567 S   0  0  0  0  0  0  0  0  0  0  0  0
   21.9457   23.4961   44.8687 C   0  0  0  0  0  0  0  0  0  0  0  0
   22.7173   21.0966   47.1077 O   0  0  0  0  0  0  0  0  0  0  0  0
   21.5080   23.4010   50.1788 O   0  5  0  0  0  0  0  0  0  0  0  0
   21.7565   22.3138   44.3299 N   0  0  0  0  0  0  0  0  0  0  0  0
   23.7261   22.5604   49.0439 O   0  0  0  0  0  0  0  0  0  0  0  0
   22.2321   24.3066   47.8790 O   0  0  0  0  0  0  0  0  0  0  0  0
   22.7219   21.4222   44.2757 C   0  0  2  0  0  0  0  0  0  0  0  0
   23.9363   21.7515   44.7849 C   0  0  2  0  0  0  0  0  0  0  0  0
   25.2040   20.9410   44.8527 C   0  0  0  0  0  0  0  0  0  0  0  0
   25.4351   20.4704   46.2904 C   0  0  0  0  0  0  0  0  0  0  0  0
   25.3002   21.5795   47.1814 O   0  0  0  0  0  0  0  0  0  0  0  0
  1 11  1  0  0  0  0
  3 13  1  1  0  0  0
  3 17  1  0  0  0  0
  3 20  1  0  0  0  0
  3 26  1  0  0  0  0
  4 14  1  0  0  0  0
  4 18  1  1  0  0  0
  4 21  2  0  0  0  0
  4 20  1  0  0  0  0
  5 19  1  0  0  0  0
  5  7  1  0  0  0  0
  6  7  2  0  0  0  0
  6 12  1  0  0  0  0
  7  8  1  0  0  0  0
  8  9  1  0  0  0  0
  8 10  2  0  0  0  0
 10 11  1  0  0  0  0
 11 12  2  0  0  0  0
 14 17  1  0  0  0  0
 15 23  1  0  0  0  0
 15 16  1  0  0  0  0
 16 19  1  0  0  0  0
 19 22  1  0  0  0  0
 22  2  1  6  0  0  0
 22 23  1  0  0  0  0
 23 24  1  1  0  0  0
 24 25  1  0  0  0  0
 25 26  1  0  0  0  0
M  CHG  1  18  -1
M  END
>  <CHROM.1>
58.16359342,41.10901538,73.87261460,-49.21287730,113.06425589,63.35921397
22.15279553,22.56098143,45.48948535,2.22031775,0.57782961,-1.63654479

>  <Name>
ligand

>  <RI>
0

>  <Rbt.Current_Directory>
/home/itssahil/PROJECTS/Mol_Feturizer/New_Systems/rnas/2HOL

>  <Rbt.Executable>
rbdock ($Id: //depot/dev/client3/rdock/2013.1/src/exe/rbdock.cxx#4 $)

>  <Rbt.Library>
libRbt.so (2013.1, Build901 2013/11/27)

>  <Rbt.Parameter_File>
/export/apps/rDock/src/rDock_2013.1_src/data/scripts/dock_solv.prm

>  <Rbt.Receptor>
prm/blind_docking_60.prm

>  <SCORE>
-1.6952

>  <SCORE.INTER>
-8.06978

>  <SCORE.INTER.CONST>
1

>  <SCORE.INTER.POLAR>
0

>  <SCORE.INTER.ROT>
6

>  <SCORE.INTER.SOLV>
24.0488

>  <SCORE.INTER.VDW>
-20.9961

>  <SCORE.INTER.norm>
-0.310376

>  <SCORE.INTRA>
-1.82262

>  <SCORE.INTRA.DIHEDRAL>
3.15063

>  <SCORE.INTRA.DIHEDRAL.0>
9.33621

>  <SCORE.INTRA.POLAR>
0

>  <SCORE.INTRA.POLAR.0>
0

>  <SCORE.INTRA.REPUL>
0

>  <SCORE.INTRA.REPUL.0>
0

>  <SCORE.INTRA.SOLV>
0.851929

>  <SCORE.INTRA.SOLV.lig_0>
-65.9238

>  <SCORE.INTRA.VDW>
-3.8239

>  <SCORE.INTRA.VDW.0>
-0.405582

>  <SCORE.INTRA.norm>
-0.0701007

>  <SCORE.RESTR>
8.19719

>  <SCORE.RESTR.CAVITY>
8.19719

>  <SCORE.RESTR.norm>
0.315277

>  <SCORE.SYSTEM>
0

>  <SCORE.SYSTEM.CONST>
0

>  <SCORE.SYSTEM.DIHEDRAL>
0

>  <SCORE.SYSTEM.SOLV>
0

>  <SCORE.SYSTEM.norm>
0

>  <SCORE.heavy>
26

>  <SCORE.norm>
-0.0652001

>  <RMSD>
28.493

$$$$
ligand
 OpenBabel11021811443D
libRbt.so/2013.1/901 2013/11/27
 26 28  0  0  0  0  0  0  0  0999 V2000
   19.7713   25.2070   39.7147 C   0  0  0  0  0  0  0  0  0  0  0  0
   22.9579   23.1374   45.0341 C   0  0  0  0  0  0  0  0  0  0  0  0
   24.1061   21.4727   47.9661 P   0  0  1  0  0  0  0  0  0  0  0  0
   22.2502   23.0570   48.8218 P   0  0  1  0  0  0  0  0  0  0  0  0
   20.3532   22.2256   44.5304 C   0  0  0  0  0  0  0  0  0  0  0  0
   20.0819   22.3785   42.0374 C   0  0  0  0  0  0  0  0  0  0  0  0
   20.1993   23.0160   43.2565 C   0  0  0  0  0  0  0  0  0  0  0  0
   20.1715   24.4115   43.2792 C   0  0  0  0  0  0  0  0  0  0  0  0
   20.2861   25.0993   44.4780 N   0  0  0  0  0  0  0  0  0  0  0  0
   20.0392   25.0723   42.1329 N   0  0  0  0  0  0  0  0  0  0  0  0
   19.9255   24.4236   40.9921 C   0  0  0  0  0  0  0  0  0  0  0  0
   19.9483   23.1062   40.9366 N   0  0  0  0  0  0  0  0  0  0  0  0
   24.4857   20.2807   48.7576 O   0  0  0  0  0  0  0  0  0  0  0  0
   21.5098   21.8629   48.1782 O   0  0  0  0  0  0  0  0  0  0  0  0
   22.8224   19.3584   44.0128 S   0  0  0  0  0  0  0  0  0  0  0  0
   21.2290   20.0497   44.0356 C   0  0  0  0  0  0  0  0  0  0  0  0
   22.7828   21.1503   47.1101 O   0  0  0  0  0  0  0  0  0  0  0  0
   21.6342   23.3503   50.2795 O   0  5  0  0  0  0  0  0  0  0  0  0
   21.4713   21.2897   44.3928 N   0  0  0  0  0  0  0  0  0  0  0  0
   23.8156   22.7060   48.9601 O   0  0  0  0  0  0  0  0  0  0  0  0
   22.0797   24.3074   47.9302 O   0  0  0  0  0  0  0  0  0  0  0  0
   22.6957   21.7097   44.6259 C   0  0  2  0  0  0  0  0  0  0  0  0
   23.7182   20.8262   44.4979 C   0  0  2  0  0  0  0  0  0  0  0  0
   25.1966   21.0279   44.7037 C   0  0  0  0  0  0  0  0  0  0  0  0
   25.5594   20.7128   46.1567 C   0  0  0  0  0  0  0  0  0  0  0  0
   25.3095   21.8615   46.9691 O   0  0  0  0  0  0  0  0  0  0  0  0
  1 11  1  0  0  0  0
  3 13  1  1  0  0  0
  3 17  1  0  0  0  0
  3 20  1  0  0  0  0
  3 26  1  0  0  0  0
  4 14  1  0  0  0  0
  4 18  1  1  0  0  0
  4 21  2  0  0  0  0
  4 20  1  0  0  0  0
  5 19  1  0  0  0  0
  5  7  1  0  0  0  0
  6  7  2  0  0  0  0
  6 12  1  0  0  0  0
  7  8  1  0  0  0  0
  8  9  1  0  0  0  0
  8 10  2  0  0  0  0
 10 11  1  0  0  0  0
 11 12  2  0  0  0  0
 14 17  1  0  0  0  0
 15 23  1  0  0  0  0
 15 16  1  0  0  0  0
 16 19  1  0  0  0  0
 19 22  1  0  0  0  0
 22  2  1  1  0  0  0
 22 23  1  0  0  0  0
 23 24  1  6  0  0  0
 24 25  1  0  0  0  0
 25 26  1  0  0  0  0
M  CHG  1  18  -1
M  END
>  <CHROM.1>
-95.83246911,53.25020193,-89.48810313,-83.68058584,113.79738256,57.53146798
22.27341316,22.28360100,45.51582875,2.33996718,0.86438993,-1.92166774

>  <Name>
ligand

>  <RI>
0

>  <Rbt.Current_Directory>
/home/itssahil/PROJECTS/Mol_Feturizer/New_Systems/rnas/2HOL

>  <Rbt.Executable>
rbdock ($Id: //depot/dev/client3/rdock/2013.1/src/exe/rbdock.cxx#4 $)

>  <Rbt.Library>
libRbt.so (2013.1, Build901 2013/11/27)

>  <Rbt.Parameter_File>
/export/apps/rDock/src/rDock_2013.1_src/data/scripts/dock_solv.prm

>  <Rbt.Receptor>
prm/blind_docking_60.prm

>  <SCORE>
10.3749

>  <SCORE.INTER>
-0.415656

>  <SCORE.INTER.CONST>
1

>  <SCORE.INTER.POLAR>
0

>  <SCORE.INTER.ROT>
6

>  <SCORE.INTER.SOLV>
27.6063

>  <SCORE.INTER.VDW>
-17.0792

>  <SCORE.INTER.norm>
-0.0159868

>  <SCORE.INTRA>
2.37273

>  <SCORE.INTRA.DIHEDRAL>
4.42355

>  <SCORE.INTRA.DIHEDRAL.0>
9.33621

>  <SCORE.INTRA.POLAR>
0

>  <SCORE.INTRA.POLAR.0>
0

>  <SCORE.INTRA.REPUL>
0.165483

>  <SCORE.INTRA.REPUL.0>
0

>  <SCORE.INTRA.SOLV>
3.89874

>  <SCORE.INTRA.SOLV.lig_0>
-65.9238

>  <SCORE.INTRA.VDW>
-2.61582

>  <SCORE.INTRA.VDW.0>
-0.405582

>  <SCORE.INTRA.norm>
0.0912589

>  <SCORE.RESTR>
8.41783

>  <SCORE.RESTR.CAVITY>
8.41783

>  <SCORE.RESTR.norm>
0.323763

>  <SCORE.SYSTEM>
0

>  <SCORE.SYSTEM.CONST>
0

>  <SCORE.SYSTEM.DIHEDRAL>
0

>  <SCORE.SYSTEM.SOLV>
0

>  <SCORE.SYSTEM.norm>
0

>  <SCORE.heavy>
26

>  <SCORE.norm>
0.399035

>  <RMSD>
28.501

$$$$
ligand
 OpenBabel11021811443D
libRbt.so/2013.1/901 2013/11/27
 26 28  0  0  0  0  0  0  0  0999 V2000
   16.7431   23.2230   42.1514 C   0  0  0  0  0  0  0  0  0  0  0  0
   24.3269   22.8202   45.3158 C   0  0  0  0  0  0  0  0  0  0  0  0
   23.5885   21.1345   48.0941 P   0  0  1  0  0  0  0  0  0  0  0  0
   22.3003   23.3645   48.3268 P   0  0  1  0  0  0  0  0  0  0  0  0
   22.2654   23.4476   43.5196 C   0  0  0  0  0  0  0  0  0  0  0  0
   20.3656   22.6173   42.1007 C   0  0  0  0  0  0  0  0  0  0  0  0
   20.8034   23.3891   43.1586 C   0  0  0  0  0  0  0  0  0  0  0  0
   19.8573   24.1137   43.8855 C   0  0  0  0  0  0  0  0  0  0  0  0
   20.2459   24.9044   44.9566 N   0  0  0  0  0  0  0  0  0  0  0  0
   18.5775   24.0393   43.5320 N   0  0  0  0  0  0  0  0  0  0  0  0
   18.2028   23.2864   42.5182 C   0  0  0  0  0  0  0  0  0  0  0  0
   19.0715   22.5901   41.8114 N   0  0  0  0  0  0  0  0  0  0  0  0
   23.3958   20.0598   49.0938 O   0  0  0  0  0  0  0  0  0  0  0  0
   21.2967   22.3713   47.6987 O   0  0  0  0  0  0  0  0  0  0  0  0
   23.3057   19.8052   43.0335 S   0  0  0  0  0  0  0  0  0  0  0  0
   22.3516   21.2094   42.6656 C   0  0  0  0  0  0  0  0  0  0  0  0
   22.3870   21.0958   47.0251 O   0  0  0  0  0  0  0  0  0  0  0  0
   21.6080   24.1152   49.5709 O   0  5  0  0  0  0  0  0  0  0  0  0
   22.8251   22.0942   43.5123 N   0  0  0  0  0  0  0  0  0  0  0  0
   23.5998   22.5628   48.8380 O   0  0  0  0  0  0  0  0  0  0  0  0
   22.7221   24.4069   47.2671 O   0  0  0  0  0  0  0  0  0  0  0  0
   23.7928   21.7924   44.3503 C   0  0  2  0  0  0  0  0  0  0  0  0
   24.2952   20.5316   44.3317 C   0  0  2  0  0  0  0  0  0  0  0  0
   25.3858   19.9170   45.1693 C   0  0  0  0  0  0  0  0  0  0  0  0
   24.8751   19.6986   46.5953 C   0  0  0  0  0  0  0  0  0  0  0  0
   24.9913   20.9164   47.3339 O   0  0  0  0  0  0  0  0  0  0  0  0
  1 11  1  0  0  0  0
  3 13  1  1  0  0  0
  3 17  1  0  0  0  0
  3 20  1  0  0  0  0
  3 26  1  0  0  0  0
  4 14  1  0  0  0  0
  4 18  1  1  0  0  0
  4 21  2  0  0  0  0
  4 20  1  0  0  0  0
  5 19  1  0  0  0  0
  5  7  1  0  0  0  0
  6  7  2  0  0  0  0
  6 12  1  0  0  0  0
  7  8  1  0  0  0  0
  8  9  1  0  0  0  0
  8 10  2  0  0  0  0
 10 11  1  0  0  0  0
 11 12  2  0  0  0  0
 14 17  1  0  0  0  0
 15 23  1  0  0  0  0
 15 16  1  0  0  0  0
 16 19  1  0  0  0  0
 19 22  1  0  0  0  0
 22  2  1  1  0  0  0
 22 23  1  0  0  0  0
 23 24  1  6  0  0  0
 24 25  1  0  0  0  0
 25 26  1  0  0  0  0
M  CHG  1  18  -1
M  END
>  <CHROM.1>
32.56368016,-45.18768680,-107.68925013,-82.70469594,132.94941900,65.33832611
22.21487700,22.17503112,45.52671016,2.45850440,0.64442715,-1.90400934

>  <Name>
ligand

>  <RI>
0

>  <Rbt.Current_Directory>
/home/itssahil/PROJECTS/Mol_Feturizer/New_Systems/rnas/2HOL

>  <Rbt.Executable>
rbdock ($Id: //depot/dev/client3/rdock/2013.1/src/exe/rbdock.cxx#4 $)

>  <Rbt.Library>
libRbt.so (2013.1, Build901 2013/11/27)

>  <Rbt.Parameter_File>
/export/apps/rDock/src/rDock_2013.1_src/data/scripts/dock_solv.prm

>  <Rbt.Receptor>
prm/blind_docking_60.prm

>  <SCORE>
15.2331

>  <SCORE.INTER>
2.53488

>  <SCORE.INTER.CONST>
1

>  <SCORE.INTER.POLAR>
0

>  <SCORE.INTER.ROT>
6

>  <SCORE.INTER.SOLV>
26.7063

>  <SCORE.INTER.VDW>
-14.8122

>  <SCORE.INTER.norm>
0.0974953

>  <SCORE.INTRA>
5.34049

>  <SCORE.INTRA.DIHEDRAL>
3.46662

>  <SCORE.INTRA.DIHEDRAL.0>
9.33621

>  <SCORE.INTRA.POLAR>
0

>  <SCORE.INTRA.POLAR.0>
0

>  <SCORE.INTRA.REPUL>
0

>  <SCORE.INTRA.REPUL.0>
0

>  <SCORE.INTRA.SOLV>
4.63779

>  <SCORE.INTRA.SOLV.lig_0>
-65.9238

>  <SCORE.INTRA.VDW>
1.28828

>  <SCORE.INTRA.VDW.0>
-0.405582

>  <SCORE.INTRA.norm>
0.205404

>  <SCORE.RESTR>
7.35769

>  <SCORE.RESTR.CAVITY>
7.35769

>  <SCORE.RESTR.norm>
0.282988

>  <SCORE.SYSTEM>
0

>  <SCORE.SYSTEM.CONST>
0

>  <SCORE.SYSTEM.DIHEDRAL>
0

>  <SCORE.SYSTEM.SOLV>
0

>  <SCORE.SYSTEM.norm>
0

>  <SCORE.heavy>
26

>  <SCORE.norm>
0.585887

>  <RMSD>
28.506

$$$$
ligand
 OpenBabel11021811443D
libRbt.so/2013.1/901 2013/11/27
 26 28  0  0  0  0  0  0  0  0999 V2000
   20.5403   23.4981   51.2519 C   0  0  0  0  0  0  0  0  0  0  0  0
   24.5628   22.6609   45.2697 C   0  0  0  0  0  0  0  0  0  0  0  0
   20.6775   23.2179   44.0583 P   0  0  1  0  0  0  0  0  0  0  0  0
   19.2565   23.8442   41.9908 P   0  0  1  0  0  0  0  0  0  0  0  0
   24.7667   21.6884   47.8931 C   0  0  0  0  0  0  0  0  0  0  0  0
   23.3354   21.5023   49.9494 C   0  0  0  0  0  0  0  0  0  0  0  0
   23.6477   22.1685   48.7811 C   0  0  0  0  0  0  0  0  0  0  0  0
   22.9007   23.2984   48.4435 C   0  0  0  0  0  0  0  0  0  0  0  0
   23.1744   24.0025   47.2804 N   0  0  0  0  0  0  0  0  0  0  0  0
   21.9183   23.6868   49.2512 N   0  0  0  0  0  0  0  0  0  0  0  0
   21.6574   23.0241   50.3592 C   0  0  0  0  0  0  0  0  0  0  0  0
   22.3439   21.9530   50.7064 N   0  0  0  0  0  0  0  0  0  0  0  0
   21.1641   24.2768   44.9713 O   0  0  0  0  0  0  0  0  0  0  0  0
   18.2770   23.8617   43.1859 O   0  0  0  0  0  0  0  0  0  0  0  0
   23.2914   18.9753   45.6463 S   0  0  0  0  0  0  0  0  0  0  0  0
   23.8432   19.5974   47.1714 C   0  0  0  0  0  0  0  0  0  0  0  0
   19.1496   22.8620   44.4141 O   0  0  0  0  0  0  0  0  0  0  0  0
   19.0872   25.1975   41.1360 O   0  5  0  0  0  0  0  0  0  0  0  0
   24.2233   20.8129   46.8523 N   0  0  0  0  0  0  0  0  0  0  0  0
   20.7675   23.7387   42.5370 O   0  0  0  0  0  0  0  0  0  0  0  0
   18.9476   22.6260   41.0918 O   0  0  0  0  0  0  0  0  0  0  0  0
   24.1232   21.2617   45.6201 C   0  0  2  0  0  0  0  0  0  0  0  0
   23.6217   20.4337   44.6686 C   0  0  2  0  0  0  0  0  0  0  0  0
   23.4014   20.6777   43.1987 C   0  0  0  0  0  0  0  0  0  0  0  0
   22.3269   21.7515   43.0129 C   0  0  0  0  0  0  0  0  0  0  0  0
   21.5893   21.9014   44.2276 O   0  0  0  0  0  0  0  0  0  0  0  0
  1 11  1  0  0  0  0
  3 13  1  1  0  0  0
  3 17  1  0  0  0  0
  3 20  1  0  0  0  0
  3 26  1  0  0  0  0
  4 14  1  0  0  0  0
  4 18  1  6  0  0  0
  4 21  2  0  0  0  0
  4 20  1  0  0  0  0
  5 19  1  0  0  0  0
  5  7  1  0  0  0  0
  6  7  2  0  0  0  0
  6 12  1  0  0  0  0
  7  8  1  0  0  0  0
  8  9  1  0  0  0  0
  8 10  2  0  0  0  0
 10 11  1  0  0  0  0
 11 12  2  0  0  0  0
 14 17  1  0  0  0  0
 15 23  1  0  0  0  0
 15 16  1  0  0  0  0
 16 19  1  0  0  0  0
 19 22  1  0  0  0  0
 22  2  1  6  0  0  0
 22 23  1  0  0  0  0
 23 24  1  1  0  0  0
 24 25  1  0  0  0  0
 25 26  1  0  0  0  0
M  CHG  1  18  -1
M  END
>  <CHROM.1>
-74.04543706,94.09712307,114.05371210,-17.27563818,169.54449735,-111.66849261
21.79852947,22.41396905,45.49337686,0.90363101,-0.74689452,1.33358303

>  <Name>
ligand

>  <RI>
0

>  <Rbt.Current_Directory>
/home/itssahil/PROJECTS/Mol_Feturizer/New_Systems/rnas/2HOL

>  <Rbt.Executable>
rbdock ($Id: //depot/dev/client3/rdock/2013.1/src/exe/rbdock.cxx#4 $)

>  <Rbt.Library>
libRbt.so (2013.1, Build901 2013/11/27)

>  <Rbt.Parameter_File>
/export/apps/rDock/src/rDock_2013.1_src/data/scripts/dock_solv.prm

>  <Rbt.Receptor>
prm/blind_docking_60.prm

>  <SCORE>
8.09118

>  <SCORE.INTER>
-5.13663

>  <SCORE.INTER.CONST>
1

>  <SCORE.INTER.POLAR>
0

>  <SCORE.INTER.ROT>
6

>  <SCORE.INTER.SOLV>
19.0115

>  <SCORE.INTER.VDW>
-17.3616

>  <SCORE.INTER.norm>
-0.197563

>  <SCORE.INTRA>
5.21614

>  <SCORE.INTRA.DIHEDRAL>
2.5122

>  <SCORE.INTRA.DIHEDRAL.0>
9.33621

>  <SCORE.INTRA.POLAR>
0

>  <SCORE.INTRA.POLAR.0>
0

>  <SCORE.INTRA.REPUL>
0.0273504

>  <SCORE.INTRA.REPUL.0>
0

>  <SCORE.INTRA.SOLV>
5.9982

>  <SCORE.INTRA.SOLV.lig_0>
-65.9238

>  <SCORE.INTRA.VDW>
0.82419

>  <SCORE.INTRA.VDW.0>
-0.405582

>  <SCORE.INTRA.norm>
0.200621

>  <SCORE.RESTR>
8.01167

>  <SCORE.RESTR.CAVITY>
8.01167

>  <SCORE.RESTR.norm>
0.308141

>  <SCORE.SYSTEM>
0

>  <SCORE.SYSTEM.CONST>
0

>  <SCORE.SYSTEM.DIHEDRAL>
0

>  <SCORE.SYSTEM.SOLV>
0

>  <SCORE.SYSTEM.norm>
0

>  <SCORE.heavy>
26

>  <SCORE.norm>
0.311199

>  <RMSD>
28.523

$$$$
ligand
 OpenBabel11021811443D
libRbt.so/2013.1/901 2013/11/27
 26 28  0  0  0  0  0  0  0  0999 V2000
   16.2171   22.8389   42.9814 C   0  0  0  0  0  0  0  0  0  0  0  0
   23.2870   23.1879   44.9452 C   0  0  0  0  0  0  0  0  0  0  0  0
   23.6975   21.7461   48.1926 P   0  0  1  0  0  0  0  0  0  0  0  0
   21.4130   22.6958   48.9448 P   0  0  1  0  0  0  0  0  0  0  0  0
   21.8742   23.2928   42.5239 C   0  0  0  0  0  0  0  0  0  0  0  0
   19.6256   22.6164   41.6306 C   0  0  0  0  0  0  0  0  0  0  0  0
   20.3769   23.1734   42.6463 C   0  0  0  0  0  0  0  0  0  0  0  0
   19.7143   23.6228   43.7899 C   0  0  0  0  0  0  0  0  0  0  0  0
   20.4233   24.1904   44.8380 N   0  0  0  0  0  0  0  0  0  0  0  0
   18.3915   23.5040   43.8571 N   0  0  0  0  0  0  0  0  0  0  0  0
   17.7141   22.9617   42.8661 C   0  0  0  0  0  0  0  0  0  0  0  0
   18.3098   22.5277   41.7726 N   0  0  0  0  0  0  0  0  0  0  0  0
   24.6146   22.5778   47.3809 O   0  0  0  0  0  0  0  0  0  0  0  0
   22.4484   23.2793   49.9326 O   0  0  0  0  0  0  0  0  0  0  0  0
   23.2672   19.7727   43.0274 S   0  0  0  0  0  0  0  0  0  0  0  0
   22.3866   20.9821   42.1446 C   0  0  0  0  0  0  0  0  0  0  0  0
   23.8430   22.1440   49.7445 O   0  0  0  0  0  0  0  0  0  0  0  0
   20.4720   23.8780   48.3904 O   0  5  0  0  0  0  0  0  0  0  0  0
   22.4996   22.0311   42.9260 N   0  0  0  0  0  0  0  0  0  0  0  0
   22.1805   21.9972   47.7137 O   0  0  0  0  0  0  0  0  0  0  0  0
   20.5444   21.6456   49.6728 O   0  0  0  0  0  0  0  0  0  0  0  0
   23.1650   21.9739   44.0591 C   0  0  2  0  0  0  0  0  0  0  0  0
   23.7334   20.7944   44.4169 C   0  0  2  0  0  0  0  0  0  0  0  0
   24.5368   20.4450   45.6422 C   0  0  0  0  0  0  0  0  0  0  0  0
   23.6195   19.8188   46.6950 C   0  0  0  0  0  0  0  0  0  0  0  0
   24.0689   20.1912   47.9994 O   0  0  0  0  0  0  0  0  0  0  0  0
  1 11  1  0  0  0  0
  3 13  1  6  0  0  0
  3 17  1  0  0  0  0
  3 20  1  0  0  0  0
  3 26  1  0  0  0  0
  4 14  1  0  0  0  0
  4 18  1  6  0  0  0
  4 21  2  0  0  0  0
  4 20  1  0  0  0  0
  5 19  1  0  0  0  0
  5  7  1  0  0  0  0
  6  7  2  0  0  0  0
  6 12  1  0  0  0  0
  7  8  1  0  0  0  0
  8  9  1  0  0  0  0
  8 10  2  0  0  0  0
 10 11  1  0  0  0  0
 11 12  2  0  0  0  0
 14 17  1  0  0  0  0
 15 23  1  0  0  0  0
 15 16  1  0  0  0  0
 16 19  1  0  0  0  0
 19 22  1  0  0  0  0
 22  2  1  1  0  0  0
 22 23  1  0  0  0  0
 23 24  1  6  0  0  0
 24 25  1  0  0  0  0
 25 26  1  0  0  0  0
M  CHG  1  18  -1
M  END
>  <CHROM.1>
71.32590251,-84.01966063,-84.50892346,-146.20255027,72.57187303,-73.54381986
21.82284991,22.12189813,45.67905541,2.16211286,0.46129976,-1.75156855

>  <Name>
ligand

>  <RI>
0

>  <Rbt.Current_Directory>
/home/itssahil/PROJECTS/Mol_Feturizer/New_Systems/rnas/2HOL

>  <Rbt.Executable>
rbdock ($Id: //depot/dev/client3/rdock/2013.1/src/exe/rbdock.cxx#4 $)

>  <Rbt.Library>
libRbt.so (2013.1, Build901 2013/11/27)

>  <Rbt.Parameter_File>
/export/apps/rDock/src/rDock_2013.1_src/data/scripts/dock_solv.prm

>  <Rbt.Receptor>
prm/blind_docking_60.prm

>  <SCORE>
16.0925

>  <SCORE.INTER>
4.9352

>  <SCORE.INTER.CONST>
1

>  <SCORE.INTER.POLAR>
0

>  <SCORE.INTER.ROT>
6

>  <SCORE.INTER.SOLV>
23.5237

>  <SCORE.INTER.VDW>
-12.1511

>  <SCORE.INTER.norm>
0.189815

>  <SCORE.INTRA>
2.96735

>  <SCORE.INTRA.DIHEDRAL>
-0.0284377

>  <SCORE.INTRA.DIHEDRAL.0>
9.33621

>  <SCORE.INTRA.POLAR>
0

>  <SCORE.INTRA.POLAR.0>
0

>  <SCORE.INTRA.REPUL>
0.0197429

>  <SCORE.INTRA.REPUL.0>
0

>  <SCORE.INTRA.SOLV>
5.83812

>  <SCORE.INTRA.SOLV.lig_0>
-65.9238

>  <SCORE.INTRA.VDW>
-0.0362053

>  <SCORE.INTRA.VDW.0>
-0.405582

>  <SCORE.INTRA.norm>
0.114129

>  <SCORE.RESTR>
8.18994

>  <SCORE.RESTR.CAVITY>
8.18994

>  <SCORE.RESTR.norm>
0.314998

>  <SCORE.SYSTEM>
0

>  <SCORE.SYSTEM.CONST>
0

>  <SCORE.SYSTEM.DIHEDRAL>
0

>  <SCORE.SYSTEM.SOLV>
0

>  <SCORE.SYSTEM.norm>
0

>  <SCORE.heavy>
26

>  <SCORE.norm>
0.618942

>  <RMSD>
28.529

$$$$
ligand
 OpenBabel11021811443D
libRbt.so/2013.1/901 2013/11/27
 26 28  0  0  0  0  0  0  0  0999 V2000
   16.7476   24.3167   43.5691 C   0  0  0  0  0  0  0  0  0  0  0  0
   23.6452   20.2249   42.4846 C   0  0  0  0  0  0  0  0  0  0  0  0
   23.9602   21.4032   48.1446 P   0  0  1  0  0  0  0  0  0  0  0  0
   22.2462   23.3328   48.3038 P   0  0  1  0  0  0  0  0  0  0  0  0
   21.9003   22.3881   42.1031 C   0  0  0  0  0  0  0  0  0  0  0  0
   20.0067   22.6308   43.7363 C   0  0  0  0  0  0  0  0  0  0  0  0
   20.5363   22.8991   42.4898 C   0  0  0  0  0  0  0  0  0  0  0  0
   19.7762   23.6563   41.5967 C   0  0  0  0  0  0  0  0  0  0  0  0
   20.2628   23.9528   40.3323 N   0  0  0  0  0  0  0  0  0  0  0  0
   18.5751   24.0844   41.9742 N   0  0  0  0  0  0  0  0  0  0  0  0
   18.1103   23.8092   43.1755 C   0  0  0  0  0  0  0  0  0  0  0  0
   18.8031   23.0965   44.0422 N   0  0  0  0  0  0  0  0  0  0  0  0
   24.1326   20.4699   49.2807 O   0  0  0  0  0  0  0  0  0  0  0  0
   21.4204   22.0747   47.9527 O   0  0  0  0  0  0  0  0  0  0  0  0
   23.8944   22.9193   45.3166 S   0  0  0  0  0  0  0  0  0  0  0  0
   22.7116   23.3779   44.1300 C   0  0  0  0  0  0  0  0  0  0  0  0
   22.6778   20.9641   47.2783 O   0  0  0  0  0  0  0  0  0  0  0  0
   21.5590   24.1002   49.5405 O   0  5  0  0  0  0  0  0  0  0  0  0
   22.7704   22.3779   43.2812 N   0  0  0  0  0  0  0  0  0  0  0  0
   23.7431   22.8969   48.7061 O   0  0  0  0  0  0  0  0  0  0  0  0
   22.2953   24.2729   47.0785 O   0  0  0  0  0  0  0  0  0  0  0  0
   23.5904   21.3667   43.4680 C   0  0  2  0  0  0  0  0  0  0  0  0
   24.3924   21.3778   44.5631 C   0  0  2  0  0  0  0  0  0  0  0  0
   25.4145   20.3695   45.0184 C   0  0  0  0  0  0  0  0  0  0  0  0
   25.2538   20.1190   46.5195 C   0  0  0  0  0  0  0  0  0  0  0  0
   25.2745   21.3672   47.2149 O   0  0  0  0  0  0  0  0  0  0  0  0
  1 11  1  0  0  0  0
  3 13  1  1  0  0  0
  3 17  1  0  0  0  0
  3 20  1  0  0  0  0
  3 26  1  0  0  0  0
  4 14  1  0  0  0  0
  4 18  1  1  0  0  0
  4 21  2  0  0  0  0
  4 20  1  0  0  0  0
  5 19  1  0  0  0  0
  5  7  1  0  0  0  0
  6  7  2  0  0  0  0
  6 12  1  0  0  0  0
  7  8  1  0  0  0  0
  8  9  1  0  0  0  0
  8 10  2  0  0  0  0
 10 11  1  0  0  0  0
 11 12  2  0  0  0  0
 14 17  1  0  0  0  0
 15 23  1  0  0  0  0
 15 16  1  0  0  0  0
 16 19  1  0  0  0  0
 19 22  1  0  0  0  0
 22  2  1  6  0  0  0
 22 23  1  0  0  0  0
 23 24  1  1  0  0  0
 24 25  1  0  0  0  0
 25 26  1  0  0  0  0
M  CHG  1  18  -1
M  END
>  <CHROM.1>
-40.29328154,-34.00750786,44.62348604,-52.63972826,127.71328158,72.46610091
22.27675696,22.45330744,45.47062259,2.32947758,0.50592442,-1.69685917

>  <Name>
ligand

>  <RI>
0

>  <Rbt.Current_Directory>
/home/itssahil/PROJECTS/Mol_Feturizer/New_Systems/rnas/2HOL

>  <Rbt.Executable>
rbdock ($Id: //depot/dev/client3/rdock/2013.1/src/exe/rbdock.cxx#4 $)

>  <Rbt.Library>
libRbt.so (2013.1, Build901 2013/11/27)

>  <Rbt.Parameter_File>
/export/apps/rDock/src/rDock_2013.1_src/data/scripts/dock_solv.prm

>  <Rbt.Receptor>
prm/blind_docking_60.prm

>  <SCORE>
-1.05845

>  <SCORE.INTER>
-8.32049

>  <SCORE.INTER.CONST>
1

>  <SCORE.INTER.POLAR>
0

>  <SCORE.INTER.ROT>
6

>  <SCORE.INTER.SOLV>
21.6435

>  <SCORE.INTER.VDW>
-20.3615

>  <SCORE.INTER.norm>
-0.320019

>  <SCORE.INTRA>
1.15061

>  <SCORE.INTRA.DIHEDRAL>
3.10376

>  <SCORE.INTRA.DIHEDRAL.0>
9.33621

>  <SCORE.INTRA.POLAR>
0

>  <SCORE.INTRA.POLAR.0>
0

>  <SCORE.INTRA.REPUL>
0

>  <SCORE.INTRA.REPUL.0>
0

>  <SCORE.INTRA.SOLV>
0.965844

>  <SCORE.INTRA.SOLV.lig_0>
-65.9238

>  <SCORE.INTRA.VDW>
-0.884185

>  <SCORE.INTRA.VDW.0>
-0.405582

>  <SCORE.INTRA.norm>
0.0442544

>  <SCORE.RESTR>
6.11142

>  <SCORE.RESTR.CAVITY>
6.11142

>  <SCORE.RESTR.norm>
0.235055

>  <SCORE.SYSTEM>
0

>  <SCORE.SYSTEM.CONST>
0

>  <SCORE.SYSTEM.DIHEDRAL>
0

>  <SCORE.SYSTEM.SOLV>
0

>  <SCORE.SYSTEM.norm>
0

>  <SCORE.heavy>
26

>  <SCORE.norm>
-0.0407097

>  <RMSD>
28.535

$$$$
ligand
 OpenBabel11021811443D
libRbt.so/2013.1/901 2013/11/27
 26 28  0  0  0  0  0  0  0  0999 V2000
   20.6324   23.7669   51.2520 C   0  0  0  0  0  0  0  0  0  0  0  0
   24.8512   22.3702   45.3840 C   0  0  0  0  0  0  0  0  0  0  0  0
   21.0877   23.5932   43.9553 P   0  0  1  0  0  0  0  0  0  0  0  0
   19.4757   23.9847   41.9717 P   0  0  1  0  0  0  0  0  0  0  0  0
   24.6138   21.3418   47.9831 C   0  0  0  0  0  0  0  0  0  0  0  0
   23.7108   22.0504   50.2179 C   0  0  0  0  0  0  0  0  0  0  0  0
   23.5591   21.9839   48.8472 C   0  0  0  0  0  0  0  0  0  0  0  0
   22.4041   22.5270   48.2818 C   0  0  0  0  0  0  0  0  0  0  0  0
   22.2041   22.4851   46.9100 N   0  0  0  0  0  0  0  0  0  0  0  0
   21.4950   23.0803   49.0790 N   0  0  0  0  0  0  0  0  0  0  0  0
   21.6823   23.1265   50.3820 C   0  0  0  0  0  0  0  0  0  0  0  0
   22.7620   22.6225   50.9471 N   0  0  0  0  0  0  0  0  0  0  0  0
   21.0534   24.4969   45.1273 O   0  0  0  0  0  0  0  0  0  0  0  0
   18.6378   23.2578   43.0477 O   0  0  0  0  0  0  0  0  0  0  0  0
   22.7466   19.0707   45.5457 S   0  0  0  0  0  0  0  0  0  0  0  0
   23.2998   19.5288   47.1273 C   0  0  0  0  0  0  0  0  0  0  0  0
   19.9127   22.5021   44.0835 O   0  0  0  0  0  0  0  0  0  0  0  0
   18.6700   25.2730   41.4412 O   0  5  0  0  0  0  0  0  0  0  0  0
   23.9717   20.6286   46.8768 N   0  0  0  0  0  0  0  0  0  0  0  0
   20.8782   24.4525   42.6094 O   0  0  0  0  0  0  0  0  0  0  0  0
   19.7417   23.0228   40.7920 O   0  0  0  0  0  0  0  0  0  0  0  0
   24.0771   21.1049   45.6554 C   0  0  2  0  0  0  0  0  0  0  0  0
   23.4792   20.4272   44.6427 C   0  0  2  0  0  0  0  0  0  0  0  0
   23.4406   20.7349   43.1687 C   0  0  0  0  0  0  0  0  0  0  0  0
   22.4007   21.8251   42.9000 C   0  0  0  0  0  0  0  0  0  0  0  0
   22.5121   22.8444   43.8953 O   0  0  0  0  0  0  0  0  0  0  0  0
  1 11  1  0  0  0  0
  3 13  1  1  0  0  0
  3 17  1  0  0  0  0
  3 20  1  0  0  0  0
  3 26  1  0  0  0  0
  4 14  1  0  0  0  0
  4 18  1  6  0  0  0
  4 21  2  0  0  0  0
  4 20  1  0  0  0  0
  5 19  1  0  0  0  0
  5  7  1  0  0  0  0
  6  7  2  0  0  0  0
  6 12  1  0  0  0  0
  7  8  1  0  0  0  0
  8  9  1  0  0  0  0
  8 10  2  0  0  0  0
 10 11  1  0  0  0  0
 11 12  2  0  0  0  0
 14 17  1  0  0  0  0
 15 23  1  0  0  0  0
 15 16  1  0  0  0  0
 16 19  1  0  0  0  0
 19 22  1  0  0  0  0
 22  2  1  6  0  0  0
 22 23  1  0  0  0  0
 23 24  1  1  0  0  0
 24 25  1  0  0  0  0
 25 26  1  0  0  0  0
M  CHG  1  18  -1
M  END
>  <CHROM.1>
-70.58114684,143.48437632,100.89248036,43.05721134,-156.77298917,169.96668958
21.84100371,22.43413894,45.45259125,0.96801720,-0.80483088,1.37073575

>  <Name>
ligand

>  <RI>
0

>  <Rbt.Current_Directory>
/home/itssahil/PROJECTS/Mol_Feturizer/New_Systems/rnas/2HOL

>  <Rbt.Executable>
rbdock ($Id: //depot/dev/client3/rdock/2013.1/src/exe/rbdock.cxx#4 $)

>  <Rbt.Library>
libRbt.so (2013.1, Build901 2013/11/27)

>  <Rbt.Parameter_File>
/export/apps/rDock/src/rDock_2013.1_src/data/scripts/dock_solv.prm

>  <Rbt.Receptor>
prm/blind_docking_60.prm

>  <SCORE>
3.52368

>  <SCORE.INTER>
-7.50658

>  <SCORE.INTER.CONST>
1

>  <SCORE.INTER.POLAR>
0

>  <SCORE.INTER.ROT>
6

>  <SCORE.INTER.SOLV>
15.7203

>  <SCORE.INTER.VDW>
-17.8445

>  <SCORE.INTER.norm>
-0.288715

>  <SCORE.INTRA>
3.41538

>  <SCORE.INTRA.DIHEDRAL>
-1.12221

>  <SCORE.INTRA.DIHEDRAL.0>
9.33621

>  <SCORE.INTRA.POLAR>
0

>  <SCORE.INTRA.POLAR.0>
0

>  <SCORE.INTRA.REPUL>
0

>  <SCORE.INTRA.REPUL.0>
0

>  <SCORE.INTRA.SOLV>
10.6919

>  <SCORE.INTRA.SOLV.lig_0>
-65.9238

>  <SCORE.INTRA.VDW>
-1.36948

>  <SCORE.INTRA.VDW.0>
-0.405582

>  <SCORE.INTRA.norm>
0.131361

>  <SCORE.RESTR>
7.61488

>  <SCORE.RESTR.CAVITY>
7.61488

>  <SCORE.RESTR.norm>
0.29288

>  <SCORE.SYSTEM>
0

>  <SCORE.SYSTEM.CONST>
0

>  <SCORE.SYSTEM.DIHEDRAL>
0

>  <SCORE.SYSTEM.SOLV>
0

>  <SCORE.SYSTEM.norm>
0

>  <SCORE.heavy>
26

>  <SCORE.norm>
0.135526

>  <RMSD>
28.539

$$$$
ligand
 OpenBabel11021811443D
libRbt.so/2013.1/901 2013/11/27
 26 28  0  0  0  0  0  0  0  0999 V2000
   22.2771   24.9538   51.2501 C   0  0  0  0  0  0  0  0  0  0  0  0
   21.5228   20.4810   45.2833 C   0  0  0  0  0  0  0  0  0  0  0  0
   20.8059   23.8191   43.8271 P   0  0  1  0  0  0  0  0  0  0  0  0
   19.2712   24.1011   41.7651 P   0  0  1  0  0  0  0  0  0  0  0  0
   22.6812   20.4142   47.8374 C   0  0  0  0  0  0  0  0  0  0  0  0
   23.7035   22.2689   49.1889 C   0  0  0  0  0  0  0  0  0  0  0  0
   22.5727   21.6156   48.7407 C   0  0  0  0  0  0  0  0  0  0  0  0
   21.3263   22.0965   49.1454 C   0  0  0  0  0  0  0  0  0  0  0  0
   20.1603   21.4754   48.7232 N   0  0  0  0  0  0  0  0  0  0  0  0
   21.2733   23.1562   49.9469 N   0  0  0  0  0  0  0  0  0  0  0  0
   22.3777   23.7523   50.3471 C   0  0  0  0  0  0  0  0  0  0  0  0
   23.5702   23.3228   49.9831 N   0  0  0  0  0  0  0  0  0  0  0  0
   20.6994   24.7610   44.9642 O   0  0  0  0  0  0  0  0  0  0  0  0
   18.4061   23.3898   42.8299 O   0  0  0  0  0  0  0  0  0  0  0  0
   25.3482   21.3222   45.2591 S   0  0  0  0  0  0  0  0  0  0  0  0
   24.7975   20.9967   46.8740 C   0  0  0  0  0  0  0  0  0  0  0  0
   19.6534   22.7030   43.9442 O   0  0  0  0  0  0  0  0  0  0  0  0
   18.4578   25.3494   41.1565 O   0  5  0  0  0  0  0  0  0  0  0  0
   23.5231   20.7435   46.6851 N   0  0  0  0  0  0  0  0  0  0  0  0
   20.6334   24.6264   42.4443 O   0  0  0  0  0  0  0  0  0  0  0  0
   19.6110   23.1068   40.6321 O   0  0  0  0  0  0  0  0  0  0  0  0
   22.9880   20.7756   45.4841 C   0  0  2  0  0  0  0  0  0  0  0  0
   23.7834   21.0876   44.4294 C   0  0  2  0  0  0  0  0  0  0  0  0
   23.4427   21.2006   42.9666 C   0  0  0  0  0  0  0  0  0  0  0  0
   22.2579   22.1528   42.7885 C   0  0  0  0  0  0  0  0  0  0  0  0
   22.2494   23.1058   43.8533 O   0  0  0  0  0  0  0  0  0  0  0  0
  1 11  1  0  0  0  0
  3 13  1  1  0  0  0
  3 17  1  0  0  0  0
  3 20  1  0  0  0  0
  3 26  1  0  0  0  0
  4 14  1  0  0  0  0
  4 18  1  6  0  0  0
  4 21  2  0  0  0  0
  4 20  1  0  0  0  0
  5 19  1  0  0  0  0
  5  7  1  0  0  0  0
  6  7  2  0  0  0  0
  6 12  1  0  0  0  0
  7  8  1  0  0  0  0
  8  9  1  0  0  0  0
  8 10  2  0  0  0  0
 10 11  1  0  0  0  0
 11 12  2  0  0  0  0
 14 17  1  0  0  0  0
 15 23  1  0  0  0  0
 15 16  1  0  0  0  0
 16 19  1  0  0  0  0
 19 22  1  0  0  0  0
 22  2  1  1  0  0  0
 22 23  1  0  0  0  0
 23 24  1  6  0  0  0
 24 25  1  0  0  0  0
 25 26  1  0  0  0  0
M  CHG  1  18  -1
M  END
>  <CHROM.1>
66.12170837,-52.47381761,-127.02891929,28.11679206,-165.83352266,176.40057308
21.72662153,22.69695022,45.36587737,1.03331869,-0.63369477,1.44815393

>  <Name>
ligand

>  <RI>
0

>  <Rbt.Current_Directory>
/home/itssahil/PROJECTS/Mol_Feturizer/New_Systems/rnas/2HOL

>  <Rbt.Executable>
rbdock ($Id: //depot/dev/client3/rdock/2013.1/src/exe/rbdock.cxx#4 $)

>  <Rbt.Library>
libRbt.so (2013.1, Build901 2013/11/27)

>  <Rbt.Parameter_File>
/export/apps/rDock/src/rDock_2013.1_src/data/scripts/dock_solv.prm

>  <Rbt.Receptor>
prm/blind_docking_60.prm

>  <SCORE>
2.23765

>  <SCORE.INTER>
-6.44648

>  <SCORE.INTER.CONST>
1

>  <SCORE.INTER.POLAR>
0

>  <SCORE.INTER.ROT>
6

>  <SCORE.INTER.SOLV>
19.6815

>  <SCORE.INTER.VDW>
-18.4582

>  <SCORE.INTER.norm>
-0.247942

>  <SCORE.INTRA>
0.0712783

>  <SCORE.INTRA.DIHEDRAL>
-0.758961

>  <SCORE.INTRA.DIHEDRAL.0>
9.33621

>  <SCORE.INTRA.POLAR>
0

>  <SCORE.INTRA.POLAR.0>
0

>  <SCORE.INTRA.REPUL>
0

>  <SCORE.INTRA.REPUL.0>
0

>  <SCORE.INTRA.SOLV>
1.99036

>  <SCORE.INTRA.SOLV.lig_0>
-65.9238

>  <SCORE.INTRA.VDW>
-0.544419

>  <SCORE.INTRA.VDW.0>
-0.405582

>  <SCORE.INTRA.norm>
0.00274147

>  <SCORE.RESTR>
8.61285

>  <SCORE.RESTR.CAVITY>
8.61285

>  <SCORE.RESTR.norm>
0.331263

>  <SCORE.SYSTEM>
0

>  <SCORE.SYSTEM.CONST>
0

>  <SCORE.SYSTEM.DIHEDRAL>
0

>  <SCORE.SYSTEM.SOLV>
0

>  <SCORE.SYSTEM.norm>
0

>  <SCORE.heavy>
26

>  <SCORE.norm>
0.0860633

>  <RMSD>
28.543

$$$$
ligand
 OpenBabel11021811443D
libRbt.so/2013.1/901 2013/11/27
 26 28  0  0  0  0  0  0  0  0999 V2000
   18.3771   23.6274   43.0314 C   0  0  0  0  0  0  0  0  0  0  0  0
   24.3711   22.6014   45.0096 C   0  0  0  0  0  0  0  0  0  0  0  0
   23.0769   23.2490   49.0135 P   0  0  1  0  0  0  0  0  0  0  0  0
   21.4757   23.3371   46.9850 P   0  0  1  0  0  0  0  0  0  0  0  0
   23.4948   21.1447   42.7780 C   0  0  0  0  0  0  0  0  0  0  0  0
   21.6394   22.2741   44.0405 C   0  0  0  0  0  0  0  0  0  0  0  0
   22.1400   21.8016   42.8437 C   0  0  0  0  0  0  0  0  0  0  0  0
   21.3595   21.9481   41.6957 C   0  0  0  0  0  0  0  0  0  0  0  0
   21.8168   21.4898   40.4692 N   0  0  0  0  0  0  0  0  0  0  0  0
   20.1674   22.5287   41.7964 N   0  0  0  0  0  0  0  0  0  0  0  0
   19.7304   22.9697   42.9581 C   0  0  0  0  0  0  0  0  0  0  0  0
   20.4431   22.8464   44.0608 N   0  0  0  0  0  0  0  0  0  0  0  0
   23.7604   24.4796   49.4718 O   0  0  0  0  0  0  0  0  0  0  0  0
   20.6534   23.8618   48.1835 O   0  0  0  0  0  0  0  0  0  0  0  0
   23.9984   18.7685   45.7251 S   0  0  0  0  0  0  0  0  0  0  0  0
   23.5737   19.1342   44.0810 C   0  0  0  0  0  0  0  0  0  0  0  0
   21.5783   23.2176   49.5973 O   0  0  0  0  0  0  0  0  0  0  0  0
   21.3222   24.3485   45.7425 O   0  5  0  0  0  0  0  0  0  0  0  0
   23.7545   20.4337   44.0318 N   0  0  0  0  0  0  0  0  0  0  0  0
   23.0269   23.2314   47.4039 O   0  0  0  0  0  0  0  0  0  0  0  0
   20.9558   21.9400   46.5782 O   0  0  0  0  0  0  0  0  0  0  0  0
   24.1669   21.1092   45.0823 C   0  0  2  0  0  0  0  0  0  0  0  0
   24.3974   20.4332   46.2366 C   0  0  2  0  0  0  0  0  0  0  0  0
   24.8636   20.9437   47.5748 C   0  0  0  0  0  0  0  0  0  0  0  0
   23.6957   20.9299   48.5637 C   0  0  0  0  0  0  0  0  0  0  0  0
   23.8849   21.9584   49.5376 O   0  0  0  0  0  0  0  0  0  0  0  0
  1 11  1  0  0  0  0
  3 13  1  1  0  0  0
  3 17  1  0  0  0  0
  3 20  1  0  0  0  0
  3 26  1  0  0  0  0
  4 14  1  0  0  0  0
  4 18  1  6  0  0  0
  4 21  2  0  0  0  0
  4 20  1  0  0  0  0
  5 19  1  0  0  0  0
  5  7  1  0  0  0  0
  6  7  2  0  0  0  0
  6 12  1  0  0  0  0
  7  8  1  0  0  0  0
  8  9  1  0  0  0  0
  8 10  2  0  0  0  0
 10 11  1  0  0  0  0
 11 12  2  0  0  0  0
 14 17  1  0  0  0  0
 15 23  1  0  0  0  0
 15 16  1  0  0  0  0
 16 19  1  0  0  0  0
 19 22  1  0  0  0  0
 22  2  1  1  0  0  0
 22 23  1  0  0  0  0
 23 24  1  6  0  0  0
 24 25  1  0  0  0  0
 25 26  1  0  0  0  0
M  CHG  1  18  -1
M  END
>  <CHROM.1>
100.01540932,32.46349734,-73.32968605,-151.24036550,94.40551987,-149.05316848
22.42283096,22.12180864,45.82932120,1.93672278,0.74017892,-1.96788535

>  <Name>
ligand

>  <RI>
0

>  <Rbt.Current_Directory>
/home/itssahil/PROJECTS/Mol_Feturizer/New_Systems/rnas/2HOL

>  <Rbt.Executable>
rbdock ($Id: //depot/dev/client3/rdock/2013.1/src/exe/rbdock.cxx#4 $)

>  <Rbt.Library>
libRbt.so (2013.1, Build901 2013/11/27)

>  <Rbt.Parameter_File>
/export/apps/rDock/src/rDock_2013.1_src/data/scripts/dock_solv.prm

>  <Rbt.Receptor>
prm/blind_docking_60.prm

>  <SCORE>
10.2097

>  <SCORE.INTER>
-1.37507

>  <SCORE.INTER.CONST>
1

>  <SCORE.INTER.POLAR>
0

>  <SCORE.INTER.ROT>
6

>  <SCORE.INTER.SOLV>
19.5802

>  <SCORE.INTER.VDW>
-15.0435

>  <SCORE.INTER.norm>
-0.0528872

>  <SCORE.INTRA>
5.51993

>  <SCORE.INTRA.DIHEDRAL>
4.02601

>  <SCORE.INTRA.DIHEDRAL.0>
9.33621

>  <SCORE.INTRA.POLAR>
0

>  <SCORE.INTRA.POLAR.0>
0

>  <SCORE.INTRA.REPUL>
0

>  <SCORE.INTRA.REPUL.0>
0

>  <SCORE.INTRA.SOLV>
6.35176

>  <SCORE.INTRA.SOLV.lig_0>
-65.9238

>  <SCORE.INTRA.VDW>
0.331044

>  <SCORE.INTRA.VDW.0>
-0.405582

>  <SCORE.INTRA.norm>
0.212305

>  <SCORE.RESTR>
6.06479

>  <SCORE.RESTR.CAVITY>
6.06479

>  <SCORE.RESTR.norm>
0.233261

>  <SCORE.SYSTEM>
0

>  <SCORE.SYSTEM.CONST>
0

>  <SCORE.SYSTEM.DIHEDRAL>
0

>  <SCORE.SYSTEM.SOLV>
0

>  <SCORE.SYSTEM.norm>
0

>  <SCORE.heavy>
26

>  <SCORE.norm>
0.392679

>  <RMSD>
28.551

$$$$
ligand
 OpenBabel11021811443D
libRbt.so/2013.1/901 2013/11/27
 26 28  0  0  0  0  0  0  0  0999 V2000
   19.3082   25.1857   39.5916 C   0  0  0  0  0  0  0  0  0  0  0  0
   22.5243   23.5126   45.0040 C   0  0  0  0  0  0  0  0  0  0  0  0
   23.8699   20.9186   48.0210 P   0  0  1  0  0  0  0  0  0  0  0  0
   22.4319   22.9756   48.6432 P   0  0  1  0  0  0  0  0  0  0  0  0
   19.9586   22.4712   44.5542 C   0  0  0  0  0  0  0  0  0  0  0  0
   20.8793   23.6449   42.5326 C   0  0  0  0  0  0  0  0  0  0  0  0
   19.7850   23.1897   43.2408 C   0  0  0  0  0  0  0  0  0  0  0  0
   18.5135   23.4114   42.7091 C   0  0  0  0  0  0  0  0  0  0  0  0
   17.3821   22.9744   43.3818 N   0  0  0  0  0  0  0  0  0  0  0  0
   18.4024   24.0537   41.5500 N   0  0  0  0  0  0  0  0  0  0  0  0
   19.4740   24.4669   40.9051 C   0  0  0  0  0  0  0  0  0  0  0  0
   20.6888   24.2734   41.3803 N   0  0  0  0  0  0  0  0  0  0  0  0
   23.8636   19.7200   48.8899 O   0  0  0  0  0  0  0  0  0  0  0  0
   21.4570   21.9744   47.9834 O   0  0  0  0  0  0  0  0  0  0  0  0
   22.5397   19.6782   44.2045 S   0  0  0  0  0  0  0  0  0  0  0  0
   20.9203   20.3064   44.1870 C   0  0  0  0  0  0  0  0  0  0  0  0
   22.5779   20.8947   47.0630 O   0  0  0  0  0  0  0  0  0  0  0  0
   21.8040   23.5062   50.0270 O   0  5  0  0  0  0  0  0  0  0  0  0
   21.1129   21.5737   44.4714 N   0  0  0  0  0  0  0  0  0  0  0  0
   23.8360   22.2438   48.9355 O   0  0  0  0  0  0  0  0  0  0  0  0
   22.6623   24.1707   47.6913 O   0  0  0  0  0  0  0  0  0  0  0  0
   22.3193   22.0543   44.6797 C   0  0  2  0  0  0  0  0  0  0  0  0
   23.3760   21.2057   44.6034 C   0  0  2  0  0  0  0  0  0  0  0  0
   24.8449   21.4770   44.7971 C   0  0  0  0  0  0  0  0  0  0  0  0
   25.0845   22.0165   46.2091 C   0  0  0  0  0  0  0  0  0  0  0  0
   25.2057   20.9236   47.1216 O   0  0  0  0  0  0  0  0  0  0  0  0
  1 11  1  0  0  0  0
  3 13  1  1  0  0  0
  3 17  1  0  0  0  0
  3 20  1  0  0  0  0
  3 26  1  0  0  0  0
  4 14  1  0  0  0  0
  4 18  1  1  0  0  0
  4 21  2  0  0  0  0
  4 20  1  0  0  0  0
  5 19  1  0  0  0  0
  5  7  1  0  0  0  0
  6  7  2  0  0  0  0
  6 12  1  0  0  0  0
  7  8  1  0  0  0  0
  8  9  1  0  0  0  0
  8 10  2  0  0  0  0
 10 11  1  0  0  0  0
 11 12  2  0  0  0  0
 14 17  1  0  0  0  0
 15 23  1  0  0  0  0
 15 16  1  0  0  0  0
 16 19  1  0  0  0  0
 19 22  1  0  0  0  0
 22  2  1  1  0  0  0
 22 23  1  0  0  0  0
 23 24  1  6  0  0  0
 24 25  1  0  0  0  0
 25 26  1  0  0  0  0
M  CHG  1  18  -1
M  END
>  <CHROM.1>
-96.38564287,-39.68826378,-120.39731578,84.55407263,-108.62228897,173.85877424
21.94811552,22.24637455,45.46853223,-2.36105099,-0.73962532,1.29987843

>  <Name>
ligand

>  <RI>
0

>  <Rbt.Current_Directory>
/home/itssahil/PROJECTS/Mol_Feturizer/New_Systems/rnas/2HOL

>  <Rbt.Executable>
rbdock ($Id: //depot/dev/client3/rdock/2013.1/src/exe/rbdock.cxx#4 $)

>  <Rbt.Library>
libRbt.so (2013.1, Build901 2013/11/27)

>  <Rbt.Parameter_File>
/export/apps/rDock/src/rDock_2013.1_src/data/scripts/dock_solv.prm

>  <Rbt.Receptor>
prm/blind_docking_60.prm

>  <SCORE>
8.43999

>  <SCORE.INTER>
-2.83172

>  <SCORE.INTER.CONST>
1

>  <SCORE.INTER.POLAR>
0

>  <SCORE.INTER.ROT>
6

>  <SCORE.INTER.SOLV>
21.4526

>  <SCORE.INTER.VDW>
-16.6387

>  <SCORE.INTER.norm>
-0.108912

>  <SCORE.INTRA>
2.03665

>  <SCORE.INTRA.DIHEDRAL>
3.84475

>  <SCORE.INTRA.DIHEDRAL.0>
9.33621

>  <SCORE.INTRA.POLAR>
0

>  <SCORE.INTRA.POLAR.0>
0

>  <SCORE.INTRA.REPUL>
0

>  <SCORE.INTRA.REPUL.0>
0

>  <SCORE.INTRA.SOLV>
2.42285

>  <SCORE.INTRA.SOLV.lig_0>
-65.9238

>  <SCORE.INTRA.VDW>
-1.09715

>  <SCORE.INTRA.VDW.0>
-0.405582

>  <SCORE.INTRA.norm>
0.0783327

>  <SCORE.RESTR>
9.23506

>  <SCORE.RESTR.CAVITY>
9.23506

>  <SCORE.RESTR.norm>
0.355194

>  <SCORE.SYSTEM>
0

>  <SCORE.SYSTEM.CONST>
0

>  <SCORE.SYSTEM.DIHEDRAL>
0

>  <SCORE.SYSTEM.SOLV>
0

>  <SCORE.SYSTEM.norm>
0

>  <SCORE.heavy>
26

>  <SCORE.norm>
0.324615

>  <RMSD>
28.557

$$$$
ligand
 OpenBabel11021811443D
libRbt.so/2013.1/901 2013/11/27
 26 28  0  0  0  0  0  0  0  0999 V2000
   16.3417   22.9378   43.3798 C   0  0  0  0  0  0  0  0  0  0  0  0
   24.1012   23.4137   45.1073 C   0  0  0  0  0  0  0  0  0  0  0  0
   22.8721   20.9959   47.5759 P   0  0  1  0  0  0  0  0  0  0  0  0
   21.1278   22.1032   49.1310 P   0  0  1  0  0  0  0  0  0  0  0  0
   22.0069   23.4901   43.2425 C   0  0  0  0  0  0  0  0  0  0  0  0
   19.8746   22.7958   44.3751 C   0  0  0  0  0  0  0  0  0  0  0  0
   20.5073   23.3444   43.2775 C   0  0  0  0  0  0  0  0  0  0  0  0
   19.7226   23.7613   42.2008 C   0  0  0  0  0  0  0  0  0  0  0  0
   20.3098   24.3183   41.0746 N   0  0  0  0  0  0  0  0  0  0  0  0
   18.4031   23.6109   42.2685 N   0  0  0  0  0  0  0  0  0  0  0  0
   17.8402   23.0865   43.3377 C   0  0  0  0  0  0  0  0  0  0  0  0
   18.5530   22.6827   44.3710 N   0  0  0  0  0  0  0  0  0  0  0  0
   22.4340   20.0431   46.5311 O   0  0  0  0  0  0  0  0  0  0  0  0
   21.0761   22.9082   47.8128 O   0  0  0  0  0  0  0  0  0  0  0  0
   23.2180   19.8902   43.6420 S   0  0  0  0  0  0  0  0  0  0  0  0
   22.1971   21.1176   42.9574 C   0  0  0  0  0  0  0  0  0  0  0  0
   22.6646   22.5022   47.0506 O   0  0  0  0  0  0  0  0  0  0  0  0
   19.6339   21.7030   49.5765 O   0  5  0  0  0  0  0  0  0  0  0  0
   22.6304   22.2026   43.5565 N   0  0  0  0  0  0  0  0  0  0  0  0
   21.9992   20.7674   48.9099 O   0  0  0  0  0  0  0  0  0  0  0  0
   21.7797   22.9666   50.2343 O   0  0  0  0  0  0  0  0  0  0  0  0
   23.6138   22.1584   44.4287 C   0  0  2  0  0  0  0  0  0  0  0  0
   24.1756   20.9552   44.7100 C   0  0  2  0  0  0  0  0  0  0  0  0
   25.2967   20.6135   45.6562 C   0  0  0  0  0  0  0  0  0  0  0  0
   25.1773   21.4662   46.9214 C   0  0  0  0  0  0  0  0  0  0  0  0
   24.4289   20.7520   47.9073 O   0  0  0  0  0  0  0  0  0  0  0  0
  1 11  1  0  0  0  0
  3 13  1  6  0  0  0
  3 17  1  0  0  0  0
  3 20  1  0  0  0  0
  3 26  1  0  0  0  0
  4 14  1  0  0  0  0
  4 18  1  1  0  0  0
  4 21  2  0  0  0  0
  4 20  1  0  0  0  0
  5 19  1  0  0  0  0
  5  7  1  0  0  0  0
  6  7  2  0  0  0  0
  6 12  1  0  0  0  0
  7  8  1  0  0  0  0
  8  9  1  0  0  0  0
  8 10  2  0  0  0  0
 10 11  1  0  0  0  0
 11 12  2  0  0  0  0
 14 17  1  0  0  0  0
 15 23  1  0  0  0  0
 15 16  1  0  0  0  0
 16 19  1  0  0  0  0
 19 22  1  0  0  0  0
 22  2  1  1  0  0  0
 22 23  1  0  0  0  0
 23 24  1  6  0  0  0
 24 25  1  0  0  0  0
 25 26  1  0  0  0  0
M  CHG  1  18  -1
M  END
>  <CHROM.1>
47.04846969,52.21881279,-141.93143298,92.93691753,-83.23918201,83.21361456
21.73781491,22.00517175,45.67513766,2.14816226,0.35538121,-1.48467917

>  <Name>
ligand

>  <RI>
0

>  <Rbt.Current_Directory>
/home/itssahil/PROJECTS/Mol_Feturizer/New_Systems/rnas/2HOL

>  <Rbt.Executable>
rbdock ($Id: //depot/dev/client3/rdock/2013.1/src/exe/rbdock.cxx#4 $)

>  <Rbt.Library>
libRbt.so (2013.1, Build901 2013/11/27)

>  <Rbt.Parameter_File>
/export/apps/rDock/src/rDock_2013.1_src/data/scripts/dock_solv.prm

>  <Rbt.Receptor>
prm/blind_docking_60.prm

>  <SCORE>
17.5474

>  <SCORE.INTER>
3.10258

>  <SCORE.INTER.CONST>
1

>  <SCORE.INTER.POLAR>
0

>  <SCORE.INTER.ROT>
6

>  <SCORE.INTER.SOLV>
18.859

>  <SCORE.INTER.VDW>
-11.818

>  <SCORE.INTER.norm>
0.11933

>  <SCORE.INTRA>
5.88725

>  <SCORE.INTRA.DIHEDRAL>
1.70028

>  <SCORE.INTRA.DIHEDRAL.0>
9.33621

>  <SCORE.INTRA.POLAR>
0

>  <SCORE.INTRA.POLAR.0>
0

>  <SCORE.INTRA.REPUL>
0

>  <SCORE.INTRA.REPUL.0>
0

>  <SCORE.INTRA.SOLV>
1.16018

>  <SCORE.INTRA.SOLV.lig_0>
-65.9238

>  <SCORE.INTRA.VDW>
4.45703

>  <SCORE.INTRA.VDW.0>
-0.405582

>  <SCORE.INTRA.norm>
0.226433

>  <SCORE.RESTR>
8.55761

>  <SCORE.RESTR.CAVITY>
8.55761

>  <SCORE.RESTR.norm>
0.329139

>  <SCORE.SYSTEM>
0

>  <SCORE.SYSTEM.CONST>
0

>  <SCORE.SYSTEM.DIHEDRAL>
0

>  <SCORE.SYSTEM.SOLV>
0

>  <SCORE.SYSTEM.norm>
0

>  <SCORE.heavy>
26

>  <SCORE.norm>
0.674901

>  <RMSD>
28.564

$$$$
ligand
 OpenBabel11021811443D
libRbt.so/2013.1/901 2013/11/27
 26 28  0  0  0  0  0  0  0  0999 V2000
   21.3557   23.1345   40.9879 C   0  0  0  0  0  0  0  0  0  0  0  0
   21.2728   20.7733   46.8161 C   0  0  0  0  0  0  0  0  0  0  0  0
   25.4470   20.9777   45.3209 P   0  0  1  0  0  0  0  0  0  0  0  0
   23.5044   20.8937   43.6163 P   0  0  1  0  0  0  0  0  0  0  0  0
   20.6246   23.4959   46.6229 C   0  0  0  0  0  0  0  0  0  0  0  0
   21.7531   24.1825   44.4859 C   0  0  0  0  0  0  0  0  0  0  0  0
   20.8170   23.3992   45.1313 C   0  0  0  0  0  0  0  0  0  0  0  0
   20.0535   22.5151   44.3671 C   0  0  0  0  0  0  0  0  0  0  0  0
   19.0997   21.7069   44.9676 N   0  0  0  0  0  0  0  0  0  0  0  0
   20.2500   22.4633   43.0530 N   0  0  0  0  0  0  0  0  0  0  0  0
   21.1577   23.2256   42.4785 C   0  0  0  0  0  0  0  0  0  0  0  0
   21.8949   24.0711   43.1718 N   0  0  0  0  0  0  0  0  0  0  0  0
   26.7512   21.5588   44.9298 O   0  0  0  0  0  0  0  0  0  0  0  0
   23.5105   22.3385   44.1648 O   0  0  0  0  0  0  0  0  0  0  0  0
   23.9387   23.1103   48.4814 S   0  0  0  0  0  0  0  0  0  0  0  0
   22.6378   24.0413   47.8044 C   0  0  0  0  0  0  0  0  0  0  0  0
   24.4281   22.1594   45.7124 O   0  0  0  0  0  0  0  0  0  0  0  0
   23.4440   20.9284   42.0083 O   0  5  0  0  0  0  0  0  0  0  0  0
   21.8631   23.1080   47.3016 N   0  0  0  0  0  0  0  0  0  0  0  0
   24.8441   20.1352   44.0879 O   0  0  0  0  0  0  0  0  0  0  0  0
   22.2686   20.1431   44.1614 O   0  0  0  0  0  0  0  0  0  0  0  0
   22.1736   21.8336   47.3976 C   0  0  2  0  0  0  0  0  0  0  0  0
   23.3280   21.4943   48.0258 C   0  0  2  0  0  0  0  0  0  0  0  0
   23.9258   20.1341   48.2735 C   0  0  0  0  0  0  0  0  0  0  0  0
   24.3561   19.5135   46.9425 C   0  0  0  0  0  0  0  0  0  0  0  0
   25.6507   20.0026   46.5861 O   0  0  0  0  0  0  0  0  0  0  0  0
  1 11  1  0  0  0  0
  3 13  1  6  0  0  0
  3 17  1  0  0  0  0
  3 20  1  0  0  0  0
  3 26  1  0  0  0  0
  4 14  1  0  0  0  0
  4 18  1  6  0  0  0
  4 21  2  0  0  0  0
  4 20  1  0  0  0  0
  5 19  1  0  0  0  0
  5  7  1  0  0  0  0
  6  7  2  0  0  0  0
  6 12  1  0  0  0  0
  7  8  1  0  0  0  0
  8  9  1  0  0  0  0
  8 10  2  0  0  0  0
 10 11  1  0  0  0  0
 11 12  2  0  0  0  0
 14 17  1  0  0  0  0
 15 23  1  0  0  0  0
 15 16  1  0  0  0  0
 16 19  1  0  0  0  0
 19 22  1  0  0  0  0
 22  2  1  6  0  0  0
 22 23  1  0  0  0  0
 23 24  1  1  0  0  0
 24 25  1  0  0  0  0
 25 26  1  0  0  0  0
M  CHG  1  18  -1
M  END
>  <CHROM.1>
103.09523089,-62.18535131,-112.59926447,83.40751304,-109.82161090,178.00160387
22.98627050,21.87509404,45.29470885,-2.41037152,-0.50571443,1.43919039

>  <Name>
ligand

>  <RI>
0

>  <Rbt.Current_Directory>
/home/itssahil/PROJECTS/Mol_Feturizer/New_Systems/rnas/2HOL

>  <Rbt.Executable>
rbdock ($Id: //depot/dev/client3/rdock/2013.1/src/exe/rbdock.cxx#4 $)

>  <Rbt.Library>
libRbt.so (2013.1, Build901 2013/11/27)

>  <Rbt.Parameter_File>
/export/apps/rDock/src/rDock_2013.1_src/data/scripts/dock_solv.prm

>  <Rbt.Receptor>
prm/blind_docking_60.prm

>  <SCORE>
10.6313

>  <SCORE.INTER>
0.655156

>  <SCORE.INTER.CONST>
1

>  <SCORE.INTER.POLAR>
0

>  <SCORE.INTER.ROT>
6

>  <SCORE.INTER.SOLV>
15.8117

>  <SCORE.INTER.VDW>
-12.4338

>  <SCORE.INTER.norm>
0.0251983

>  <SCORE.INTRA>
1.42463

>  <SCORE.INTRA.DIHEDRAL>
3.78885

>  <SCORE.INTRA.DIHEDRAL.0>
9.33621

>  <SCORE.INTRA.POLAR>
0

>  <SCORE.INTRA.POLAR.0>
0

>  <SCORE.INTRA.REPUL>
0

>  <SCORE.INTRA.REPUL.0>
0

>  <SCORE.INTRA.SOLV>
8.59052

>  <SCORE.INTRA.SOLV.lig_0>
-65.9238

>  <SCORE.INTRA.VDW>
-4.76505

>  <SCORE.INTRA.VDW.0>
-0.405582

>  <SCORE.INTRA.norm>
0.0547934

>  <SCORE.RESTR>
8.55151

>  <SCORE.RESTR.CAVITY>
8.55151

>  <SCORE.RESTR.norm>
0.328904

>  <SCORE.SYSTEM>
0

>  <SCORE.SYSTEM.CONST>
0

>  <SCORE.SYSTEM.DIHEDRAL>
0

>  <SCORE.SYSTEM.SOLV>
0

>  <SCORE.SYSTEM.norm>
0

>  <SCORE.heavy>
26

>  <SCORE.norm>
0.408896

>  <RMSD>
28.614

$$$$
ligand
 OpenBabel11021811443D
libRbt.so/2013.1/901 2013/11/27
 26 28  0  0  0  0  0  0  0  0999 V2000
   21.0312   22.9779   39.7506 C   0  0  0  0  0  0  0  0  0  0  0  0
   22.6399   24.2561   47.3037 C   0  0  0  0  0  0  0  0  0  0  0  0
   24.6307   21.5721   46.2588 P   0  0  1  0  0  0  0  0  0  0  0  0
   25.0050   19.8545   44.3624 P   0  0  1  0  0  0  0  0  0  0  0  0
   20.6938   24.2789   45.2834 C   0  0  0  0  0  0  0  0  0  0  0  0
   21.9272   23.3734   43.2908 C   0  0  0  0  0  0  0  0  0  0  0  0
   20.7818   23.9351   43.8187 C   0  0  0  0  0  0  0  0  0  0  0  0
   19.7069   24.1762   42.9613 C   0  0  0  0  0  0  0  0  0  0  0  0
   18.5342   24.7393   43.4422 N   0  0  0  0  0  0  0  0  0  0  0  0
   19.8260   23.8633   41.6744 N   0  0  0  0  0  0  0  0  0  0  0  0
   20.9360   23.3243   41.2136 C   0  0  0  0  0  0  0  0  0  0  0  0
   21.9692   23.0841   41.9970 N   0  0  0  0  0  0  0  0  0  0  0  0
   24.5387   23.0156   45.9434 O   0  0  0  0  0  0  0  0  0  0  0  0
   23.4967   20.1888   44.3252 O   0  0  0  0  0  0  0  0  0  0  0  0
   20.6936   20.8701   47.0055 S   0  0  0  0  0  0  0  0  0  0  0  0
   20.1217   22.0168   45.8327 C   0  0  0  0  0  0  0  0  0  0  0  0
   23.2117   20.8689   45.9761 O   0  0  0  0  0  0  0  0  0  0  0  0
   25.6177   19.9643   42.8782 O   0  5  0  0  0  0  0  0  0  0  0  0
   20.8729   23.0644   46.0821 N   0  0  0  0  0  0  0  0  0  0  0  0
   25.7606   20.8923   45.3343 O   0  0  0  0  0  0  0  0  0  0  0  0
   25.1990   18.4166   44.8939 O   0  0  0  0  0  0  0  0  0  0  0  0
   21.7841   23.0451   47.0303 C   0  0  2  0  0  0  0  0  0  0  0  0
   21.9316   21.9120   47.7630 C   0  0  2  0  0  0  0  0  0  0  0  0
   22.8781   21.6145   48.8963 C   0  0  0  0  0  0  0  0  0  0  0  0
   23.9624   20.6464   48.4175 C   0  0  0  0  0  0  0  0  0  0  0  0
   25.0240   21.3846   47.8090 O   0  0  0  0  0  0  0  0  0  0  0  0
  1 11  1  0  0  0  0
  3 13  1  6  0  0  0
  3 17  1  0  0  0  0
  3 20  1  0  0  0  0
  3 26  1  0  0  0  0
  4 14  1  0  0  0  0
  4 18  1  6  0  0  0
  4 21  2  0  0  0  0
  4 20  1  0  0  0  0
  5 19  1  0  0  0  0
  5  7  1  0  0  0  0
  6  7  2  0  0  0  0
  6 12  1  0  0  0  0
  7  8  1  0  0  0  0
  8  9  1  0  0  0  0
  8 10  2  0  0  0  0
 10 11  1  0  0  0  0
 11 12  2  0  0  0  0
 14 17  1  0  0  0  0
 15 23  1  0  0  0  0
 15 16  1  0  0  0  0
 16 19  1  0  0  0  0
 19 22  1  0  0  0  0
 22  2  1  1  0  0  0
 22 23  1  0  0  0  0
 23 24  1  6  0  0  0
 24 25  1  0  0  0  0
 25 26  1  0  0  0  0
M  CHG  1  18  -1
M  END
>  <CHROM.1>
-52.91304516,-60.26259680,71.94431772,85.67463493,-87.35726338,120.04471437
22.65463501,21.95219505,45.11466999,-2.51253942,-0.61775636,1.59249730

>  <Name>
ligand

>  <RI>
0

>  <Rbt.Current_Directory>
/home/itssahil/PROJECTS/Mol_Feturizer/New_Systems/rnas/2HOL

>  <Rbt.Executable>
rbdock ($Id: //depot/dev/client3/rdock/2013.1/src/exe/rbdock.cxx#4 $)

>  <Rbt.Library>
libRbt.so (2013.1, Build901 2013/11/27)

>  <Rbt.Parameter_File>
/export/apps/rDock/src/rDock_2013.1_src/data/scripts/dock_solv.prm

>  <Rbt.Receptor>
prm/blind_docking_60.prm

>  <SCORE>
14.9409

>  <SCORE.INTER>
0.555408

>  <SCORE.INTER.CONST>
1

>  <SCORE.INTER.POLAR>
0

>  <SCORE.INTER.ROT>
6

>  <SCORE.INTER.SOLV>
25.4288

>  <SCORE.INTER.VDW>
-15.706

>  <SCORE.INTER.norm>
0.0213619

>  <SCORE.INTRA>
5.86089

>  <SCORE.INTRA.DIHEDRAL>
3.4057

>  <SCORE.INTRA.DIHEDRAL.0>
9.33621

>  <SCORE.INTRA.POLAR>
0

>  <SCORE.INTRA.POLAR.0>
0

>  <SCORE.INTRA.REPUL>
0

>  <SCORE.INTRA.REPUL.0>
0

>  <SCORE.INTRA.SOLV>
1.80759

>  <SCORE.INTRA.SOLV.lig_0>
-65.9238

>  <SCORE.INTRA.VDW>
3.25425

>  <SCORE.INTRA.VDW.0>
-0.405582

>  <SCORE.INTRA.norm>
0.225419

>  <SCORE.RESTR>
8.52456

>  <SCORE.RESTR.CAVITY>
8.52456

>  <SCORE.RESTR.norm>
0.327868

>  <SCORE.SYSTEM>
0

>  <SCORE.SYSTEM.CONST>
0

>  <SCORE.SYSTEM.DIHEDRAL>
0

>  <SCORE.SYSTEM.SOLV>
0

>  <SCORE.SYSTEM.norm>
0

>  <SCORE.heavy>
26

>  <SCORE.norm>
0.574649

>  <RMSD>
28.648

$$$$
ligand
 OpenBabel11021811443D
libRbt.so/2013.1/901 2013/11/27
 26 28  0  0  0  0  0  0  0  0999 V2000
   22.5588   22.7471   51.9450 C   0  0  0  0  0  0  0  0  0  0  0  0
   21.1496   21.6984   44.7344 C   0  0  0  0  0  0  0  0  0  0  0  0
   21.2091   22.2230   41.5862 P   0  0  1  0  0  0  0  0  0  0  0  0
   19.6709   24.0381   42.5990 P   0  0  1  0  0  0  0  0  0  0  0  0
   22.3175   23.6849   46.3342 C   0  0  0  0  0  0  0  0  0  0  0  0
   23.3013   24.0942   48.6094 C   0  0  0  0  0  0  0  0  0  0  0  0
   22.3803   23.4356   47.8192 C   0  0  0  0  0  0  0  0  0  0  0  0
   21.5085   22.5332   48.4308 C   0  0  0  0  0  0  0  0  0  0  0  0
   20.5655   21.8459   47.6812 N   0  0  0  0  0  0  0  0  0  0  0  0
   21.5992   22.3375   49.7430 N   0  0  0  0  0  0  0  0  0  0  0  0
   22.4902   22.9911   50.4600 C   0  0  0  0  0  0  0  0  0  0  0  0
   23.3281   23.8498   49.9128 N   0  0  0  0  0  0  0  0  0  0  0  0
   21.6858   22.3504   40.1904 O   0  0  0  0  0  0  0  0  0  0  0  0
   21.1024   24.6136   42.6869 O   0  0  0  0  0  0  0  0  0  0  0  0
   25.0617   21.5161   44.8008 S   0  0  0  0  0  0  0  0  0  0  0  0
   24.4874   22.8258   45.7868 C   0  0  0  0  0  0  0  0  0  0  0  0
   22.1242   23.1281   42.5512 O   0  0  0  0  0  0  0  0  0  0  0  0
   18.6873   25.1371   41.9547 O   0  5  0  0  0  0  0  0  0  0  0  0
   23.1860   22.7307   45.6413 N   0  0  0  0  0  0  0  0  0  0  0  0
   19.6793   22.7178   41.6774 O   0  0  0  0  0  0  0  0  0  0  0  0
   19.1764   23.6734   44.0167 O   0  0  0  0  0  0  0  0  0  0  0  0
   22.6463   21.7955   44.8904 C   0  0  2  0  0  0  0  0  0  0  0  0
   23.4679   20.9235   44.2524 C   0  0  2  0  0  0  0  0  0  0  0  0
   23.1300   19.7740   43.3396 C   0  0  0  0  0  0  0  0  0  0  0  0
   22.6804   20.3142   41.9802 C   0  0  0  0  0  0  0  0  0  0  0  0
   21.3015   20.6829   42.0473 O   0  0  0  0  0  0  0  0  0  0  0  0
  1 11  1  0  0  0  0
  3 13  1  6  0  0  0
  3 17  1  0  0  0  0
  3 20  1  0  0  0  0
  3 26  1  0  0  0  0
  4 14  1  0  0  0  0
  4 18  1  6  0  0  0
  4 21  2  0  0  0  0
  4 20  1  0  0  0  0
  5 19  1  0  0  0  0
  5  7  1  0  0  0  0
  6  7  2  0  0  0  0
  6 12  1  0  0  0  0
  7  8  1  0  0  0  0
  8  9  1  0  0  0  0
  8 10  2  0  0  0  0
 10 11  1  0  0  0  0
 11 12  2  0  0  0  0
 14 17  1  0  0  0  0
 15 23  1  0  0  0  0
 15 16  1  0  0  0  0
 16 19  1  0  0  0  0
 19 22  1  0  0  0  0
 22  2  1  6  0  0  0
 22 23  1  0  0  0  0
 23 24  1  1  0  0  0
 24 25  1  0  0  0  0
 25 26  1  0  0  0  0
M  CHG  1  18  -1
M  END
>  <CHROM.1>
-68.50976811,91.05286738,-106.31752532,-82.21527982,124.60978599,61.60448003
21.87580691,22.61393593,44.79422183,1.27365175,-0.60620392,1.37316380

>  <Name>
ligand

>  <RI>
0

>  <Rbt.Current_Directory>
/home/itssahil/PROJECTS/Mol_Feturizer/New_Systems/rnas/2HOL

>  <Rbt.Executable>
rbdock ($Id: //depot/dev/client3/rdock/2013.1/src/exe/rbdock.cxx#4 $)

>  <Rbt.Library>
libRbt.so (2013.1, Build901 2013/11/27)

>  <Rbt.Parameter_File>
/export/apps/rDock/src/rDock_2013.1_src/data/scripts/dock_solv.prm

>  <Rbt.Receptor>
prm/blind_docking_60.prm

>  <SCORE>
6.14906

>  <SCORE.INTER>
-6.30107

>  <SCORE.INTER.CONST>
1

>  <SCORE.INTER.POLAR>
0

>  <SCORE.INTER.ROT>
6

>  <SCORE.INTER.SOLV>
19.2146

>  <SCORE.INTER.VDW>
-18.2056

>  <SCORE.INTER.norm>
-0.242349

>  <SCORE.INTRA>
3.82906

>  <SCORE.INTRA.DIHEDRAL>
4.06924

>  <SCORE.INTRA.DIHEDRAL.0>
9.33621

>  <SCORE.INTRA.POLAR>
0

>  <SCORE.INTRA.POLAR.0>
0

>  <SCORE.INTRA.REPUL>
0

>  <SCORE.INTRA.REPUL.0>
0

>  <SCORE.INTRA.SOLV>
5.45695

>  <SCORE.INTRA.SOLV.lig_0>
-65.9238

>  <SCORE.INTRA.VDW>
-0.934036

>  <SCORE.INTRA.VDW.0>
-0.405582

>  <SCORE.INTRA.norm>
0.147271

>  <SCORE.RESTR>
8.62108

>  <SCORE.RESTR.CAVITY>
8.62108

>  <SCORE.RESTR.norm>
0.33158

>  <SCORE.SYSTEM>
0

>  <SCORE.SYSTEM.CONST>
0

>  <SCORE.SYSTEM.DIHEDRAL>
0

>  <SCORE.SYSTEM.SOLV>
0

>  <SCORE.SYSTEM.norm>
0

>  <SCORE.heavy>
26

>  <SCORE.norm>
0.236502

>  <RMSD>
28.877

$$$$
ligand
 OpenBabel11021811443D
libRbt.so/2013.1/901 2013/11/27
 26 28  0  0  0  0  0  0  0  0999 V2000
   19.2623   24.9730   41.8893 C   0  0  0  0  0  0  0  0  0  0  0  0
   21.6143   20.2330   45.1196 C   0  0  0  0  0  0  0  0  0  0  0  0
   22.5722   23.4674   47.2285 P   0  0  1  0  0  0  0  0  0  0  0  0
   21.2223   22.3781   49.1462 P   0  0  1  0  0  0  0  0  0  0  0  0
   22.3335   20.2068   42.4082 C   0  0  0  0  0  0  0  0  0  0  0  0
   21.7667   22.5618   43.0750 C   0  0  0  0  0  0  0  0  0  0  0  0
   21.5198   21.4677   42.2698 C   0  0  0  0  0  0  0  0  0  0  0  0
   20.4973   21.5593   41.3238 C   0  0  0  0  0  0  0  0  0  0  0  0
   20.2093   20.4881   40.4913 N   0  0  0  0  0  0  0  0  0  0  0  0
   19.7990   22.6876   41.2365 N   0  0  0  0  0  0  0  0  0  0  0  0
   20.0715   23.7093   42.0219 C   0  0  0  0  0  0  0  0  0  0  0  0
   21.0304   23.6548   42.9256 N   0  0  0  0  0  0  0  0  0  0  0  0
   21.8673   24.1670   46.1307 O   0  0  0  0  0  0  0  0  0  0  0  0
   21.2853   23.8837   49.4887 O   0  0  0  0  0  0  0  0  0  0  0  0
   25.4521   20.7619   44.5417 S   0  0  0  0  0  0  0  0  0  0  0  0
   24.6202   20.5705   43.0289 C   0  0  0  0  0  0  0  0  0  0  0  0
   22.6911   24.4455   48.5001 O   0  0  0  0  0  0  0  0  0  0  0  0
   19.7035   21.8603   49.2720 O   0  5  0  0  0  0  0  0  0  0  0  0
   23.3766   20.4065   43.4167 N   0  0  0  0  0  0  0  0  0  0  0  0
   21.7460   22.1480   47.6411 O   0  0  0  0  0  0  0  0  0  0  0  0
   22.1173   21.5903   50.1290 O   0  0  0  0  0  0  0  0  0  0  0  0
   23.0475   20.4214   44.6900 C   0  0  2  0  0  0  0  0  0  0  0  0
   24.0289   20.6029   45.6100 C   0  0  2  0  0  0  0  0  0  0  0  0
   23.9420   20.6586   47.1127 C   0  0  0  0  0  0  0  0  0  0  0  0
   24.4871   22.0001   47.6080 C   0  0  0  0  0  0  0  0  0  0  0  0
   24.0460   23.0435   46.7370 O   0  0  0  0  0  0  0  0  0  0  0  0
  1 11  1  0  0  0  0
  3 13  1  6  0  0  0
  3 17  1  0  0  0  0
  3 20  1  0  0  0  0
  3 26  1  0  0  0  0
  4 14  1  0  0  0  0
  4 18  1  1  0  0  0
  4 21  2  0  0  0  0
  4 20  1  0  0  0  0
  5 19  1  0  0  0  0
  5  7  1  0  0  0  0
  6  7  2  0  0  0  0
  6 12  1  0  0  0  0
  7  8  1  0  0  0  0
  8  9  1  0  0  0  0
  8 10  2  0  0  0  0
 10 11  1  0  0  0  0
 11 12  2  0  0  0  0
 14 17  1  0  0  0  0
 15 23  1  0  0  0  0
 15 16  1  0  0  0  0
 16 19  1  0  0  0  0
 19 22  1  0  0  0  0
 22  2  1  1  0  0  0
 22 23  1  0  0  0  0
 23 24  1  6  0  0  0
 24 25  1  0  0  0  0
 25 26  1  0  0  0  0
M  CHG  1  18  -1
M  END
>  <CHROM.1>
-105.28764528,-2.99800696,58.16351637,40.59868042,84.11706831,-159.93226391
22.20055968,22.13827444,45.50449914,1.71314869,0.59077637,-1.76796857

>  <Name>
ligand

>  <RI>
0

>  <Rbt.Current_Directory>
/home/itssahil/PROJECTS/Mol_Feturizer/New_Systems/rnas/2HOL

>  <Rbt.Executable>
rbdock ($Id: //depot/dev/client3/rdock/2013.1/src/exe/rbdock.cxx#4 $)

>  <Rbt.Library>
libRbt.so (2013.1, Build901 2013/11/27)

>  <Rbt.Parameter_File>
/export/apps/rDock/src/rDock_2013.1_src/data/scripts/dock_solv.prm

>  <Rbt.Receptor>
prm/blind_docking_60.prm

>  <SCORE>
6.35192

>  <SCORE.INTER>
-2.67002

>  <SCORE.INTER.CONST>
1

>  <SCORE.INTER.POLAR>
0

>  <SCORE.INTER.ROT>
6

>  <SCORE.INTER.SOLV>
13.8941

>  <SCORE.INTER.VDW>
-14.0114

>  <SCORE.INTER.norm>
-0.102693

>  <SCORE.INTRA>
0.572373

>  <SCORE.INTRA.DIHEDRAL>
0.234896

>  <SCORE.INTRA.DIHEDRAL.0>
9.33621

>  <SCORE.INTRA.POLAR>
0

>  <SCORE.INTRA.POLAR.0>
0

>  <SCORE.INTRA.REPUL>
0

>  <SCORE.INTRA.REPUL.0>
0

>  <SCORE.INTRA.SOLV>
2.59923

>  <SCORE.INTRA.SOLV.lig_0>
-65.9238

>  <SCORE.INTRA.VDW>
-0.844692

>  <SCORE.INTRA.VDW.0>
-0.405582

>  <SCORE.INTRA.norm>
0.0220143

>  <SCORE.RESTR>
8.44957

>  <SCORE.RESTR.CAVITY>
8.44957

>  <SCORE.RESTR.norm>
0.324984

>  <SCORE.SYSTEM>
0

>  <SCORE.SYSTEM.CONST>
0

>  <SCORE.SYSTEM.DIHEDRAL>
0

>  <SCORE.SYSTEM.SOLV>
0

>  <SCORE.SYSTEM.norm>
0

>  <SCORE.heavy>
26

>  <SCORE.norm>
0.244305

>  <RMSD>
28.913

$$$$
ligand
 OpenBabel11021811443D
libRbt.so/2013.1/901 2013/11/27
 26 28  0  0  0  0  0  0  0  0999 V2000
   23.0035   24.9348   50.3936 C   0  0  0  0  0  0  0  0  0  0  0  0
   21.4814   20.3231   45.0084 C   0  0  0  0  0  0  0  0  0  0  0  0
   20.9275   23.6430   43.6731 P   0  0  1  0  0  0  0  0  0  0  0  0
   19.2218   24.1148   41.7877 P   0  0  1  0  0  0  0  0  0  0  0  0
   22.9838   20.1116   47.3680 C   0  0  0  0  0  0  0  0  0  0  0  0
   24.1620   22.0771   48.3978 C   0  0  0  0  0  0  0  0  0  0  0  0
   22.9876   21.3881   48.1691 C   0  0  0  0  0  0  0  0  0  0  0  0
   21.8035   21.9042   48.6984 C   0  0  0  0  0  0  0  0  0  0  0  0
   20.5974   21.2496   48.4974 N   0  0  0  0  0  0  0  0  0  0  0  0
   21.8497   23.0305   49.4039 N   0  0  0  0  0  0  0  0  0  0  0  0
   22.9920   23.6583   49.5939 C   0  0  0  0  0  0  0  0  0  0  0  0
   24.1277   23.1970   49.1076 N   0  0  0  0  0  0  0  0  0  0  0  0
   21.0756   24.5984   44.7942 O   0  0  0  0  0  0  0  0  0  0  0  0
   18.3950   23.5337   42.9568 O   0  0  0  0  0  0  0  0  0  0  0  0
   25.3373   20.6669   44.4119 S   0  0  0  0  0  0  0  0  0  0  0  0
   24.9926   20.4168   46.0960 C   0  0  0  0  0  0  0  0  0  0  0  0
   19.6573   22.6929   43.9411 O   0  0  0  0  0  0  0  0  0  0  0  0
   18.5183   25.4570   41.2456 O   0  5  0  0  0  0  0  0  0  0  0  0
   23.6825   20.3288   46.0993 N   0  0  0  0  0  0  0  0  0  0  0  0
   20.7093   24.4568   42.3006 O   0  0  0  0  0  0  0  0  0  0  0  0
   19.2968   23.0762   40.6461 O   0  0  0  0  0  0  0  0  0  0  0  0
   22.9855   20.4277   44.9883 C   0  0  2  0  0  0  0  0  0  0  0  0
   23.6508   20.6337   43.8232 C   0  0  2  0  0  0  0  0  0  0  0  0
   23.1164   20.7876   42.4234 C   0  0  0  0  0  0  0  0  0  0  0  0
   22.1076   21.9378   42.3836 C   0  0  0  0  0  0  0  0  0  0  0  0
   22.2570   22.7422   43.5552 O   0  0  0  0  0  0  0  0  0  0  0  0
  1 11  1  0  0  0  0
  3 13  1  1  0  0  0
  3 17  1  0  0  0  0
  3 20  1  0  0  0  0
  3 26  1  0  0  0  0
  4 14  1  0  0  0  0
  4 18  1  6  0  0  0
  4 21  2  0  0  0  0
  4 20  1  0  0  0  0
  5 19  1  0  0  0  0
  5  7  1  0  0  0  0
  6  7  2  0  0  0  0
  6 12  1  0  0  0  0
  7  8  1  0  0  0  0
  8  9  1  0  0  0  0
  8 10  2  0  0  0  0
 10 11  1  0  0  0  0
 11 12  2  0  0  0  0
 14 17  1  0  0  0  0
 15 23  1  0  0  0  0
 15 16  1  0  0  0  0
 16 19  1  0  0  0  0
 19 22  1  0  0  0  0
 22  2  1  1  0  0  0
 22 23  1  0  0  0  0
 23 24  1  6  0  0  0
 24 25  1  0  0  0  0
 25 26  1  0  0  0  0
M  CHG  1  18  -1
M  END
>  <CHROM.1>
74.43273485,-51.17013749,-123.77386581,16.27136551,-163.72818960,-174.44749629
21.87363068,22.48874663,44.98600161,0.84262693,-0.71979242,1.32753951

>  <Name>
ligand

>  <RI>
0

>  <Rbt.Current_Directory>
/home/itssahil/PROJECTS/Mol_Feturizer/New_Systems/rnas/2HOL

>  <Rbt.Executable>
rbdock ($Id: //depot/dev/client3/rdock/2013.1/src/exe/rbdock.cxx#4 $)

>  <Rbt.Library>
libRbt.so (2013.1, Build901 2013/11/27)

>  <Rbt.Parameter_File>
/export/apps/rDock/src/rDock_2013.1_src/data/scripts/dock_solv.prm

>  <Rbt.Receptor>
prm/blind_docking_60.prm

>  <SCORE>
26.4519

>  <SCORE.INTER>
16.9771

>  <SCORE.INTER.CONST>
1

>  <SCORE.INTER.POLAR>
0

>  <SCORE.INTER.ROT>
6

>  <SCORE.INTER.SOLV>
18.4072

>  <SCORE.INTER.VDW>
-2.41769

>  <SCORE.INTER.norm>
0.652965

>  <SCORE.INTRA>
1.28092

>  <SCORE.INTRA.DIHEDRAL>
1.08808

>  <SCORE.INTRA.DIHEDRAL.0>
9.33621

>  <SCORE.INTRA.POLAR>
0

>  <SCORE.INTRA.POLAR.0>
0

>  <SCORE.INTRA.REPUL>
0

>  <SCORE.INTRA.REPUL.0>
0

>  <SCORE.INTRA.SOLV>
2.27807

>  <SCORE.INTRA.SOLV.lig_0>
-65.9238

>  <SCORE.INTRA.VDW>
-0.402158

>  <SCORE.INTRA.VDW.0>
-0.405582

>  <SCORE.INTRA.norm>
0.049266

>  <SCORE.RESTR>
8.19389

>  <SCORE.RESTR.CAVITY>
8.19389

>  <SCORE.RESTR.norm>
0.31515

>  <SCORE.SYSTEM>
0

>  <SCORE.SYSTEM.CONST>
0

>  <SCORE.SYSTEM.DIHEDRAL>
0

>  <SCORE.SYSTEM.SOLV>
0

>  <SCORE.SYSTEM.norm>
0

>  <SCORE.heavy>
26

>  <SCORE.norm>
1.01738

>  <RMSD>
28.973

$$$$
ligand
 OpenBabel11021811443D
libRbt.so/2013.1/901 2013/11/27
 26 28  0  0  0  0  0  0  0  0999 V2000
   22.0376   20.9023   52.3046 C   0  0  0  0  0  0  0  0  0  0  0  0
   24.3951   22.6989   45.3641 C   0  0  0  0  0  0  0  0  0  0  0  0
   20.9853   22.9762   40.5654 P   0  0  1  0  0  0  0  0  0  0  0  0
   18.7216   24.0788   41.1539 P   0  0  1  0  0  0  0  0  0  0  0  0
   23.1580   23.8842   47.5854 C   0  0  0  0  0  0  0  0  0  0  0  0
   22.0614   23.6164   49.8298 C   0  0  0  0  0  0  0  0  0  0  0  0
   22.8624   23.0938   48.8340 C   0  0  0  0  0  0  0  0  0  0  0  0
   23.3912   21.8144   49.0130 C   0  0  0  0  0  0  0  0  0  0  0  0
   24.2020   21.2447   48.0427 N   0  0  0  0  0  0  0  0  0  0  0  0
   23.1107   21.1515   50.1312 N   0  0  0  0  0  0  0  0  0  0  0  0
   22.3376   21.6864   51.0538 C   0  0  0  0  0  0  0  0  0  0  0  0
   21.8228   22.8926   50.9153 N   0  0  0  0  0  0  0  0  0  0  0  0
   21.7467   23.4340   39.3812 O   0  0  0  0  0  0  0  0  0  0  0  0
   19.8029   25.0449   41.6882 O   0  0  0  0  0  0  0  0  0  0  0  0
   20.4907   22.8103   45.0718 S   0  0  0  0  0  0  0  0  0  0  0  0
   21.0189   23.5207   46.5664 C   0  0  0  0  0  0  0  0  0  0  0  0
   21.2561   23.9746   41.7973 O   0  0  0  0  0  0  0  0  0  0  0  0
   17.6389   24.9041   40.2953 O   0  5  0  0  0  0  0  0  0  0  0  0
   22.3232   23.3929   46.4869 N   0  0  0  0  0  0  0  0  0  0  0  0
   19.4124   22.9641   40.2196 O   0  0  0  0  0  0  0  0  0  0  0  0
   18.0169   23.3888   42.3434 O   0  0  0  0  0  0  0  0  0  0  0  0
   22.8956   22.8372   45.4412 C   0  0  2  0  0  0  0  0  0  0  0  0
   22.1047   22.3836   44.4356 C   0  0  2  0  0  0  0  0  0  0  0  0
   22.4828   21.7113   43.1417 C   0  0  0  0  0  0  0  0  0  0  0  0
   21.2158   21.3431   42.3664 C   0  0  0  0  0  0  0  0  0  0  0  0
   21.4562   21.4891   40.9653 O   0  0  0  0  0  0  0  0  0  0  0  0
  1 11  1  0  0  0  0
  3 13  1  6  0  0  0
  3 17  1  0  0  0  0
  3 20  1  0  0  0  0
  3 26  1  0  0  0  0
  4 14  1  0  0  0  0
  4 18  1  6  0  0  0
  4 21  2  0  0  0  0
  4 20  1  0  0  0  0
  5 19  1  0  0  0  0
  5  7  1  0  0  0  0
  6  7  2  0  0  0  0
  6 12  1  0  0  0  0
  7  8  1  0  0  0  0
  8  9  1  0  0  0  0
  8 10  2  0  0  0  0
 10 11  1  0  0  0  0
 11 12  2  0  0  0  0
 14 17  1  0  0  0  0
 15 23  1  0  0  0  0
 15 16  1  0  0  0  0
 16 19  1  0  0  0  0
 19 22  1  0  0  0  0
 22  2  1  1  0  0  0
 22 23  1  0  0  0  0
 23 24  1  6  0  0  0
 24 25  1  0  0  0  0
 25 26  1  0  0  0  0
M  CHG  1  18  -1
M  END
>  <CHROM.1>
64.28660077,-101.84423951,-2.33915206,144.94485736,-93.15827657,153.26620431
21.31394239,22.89895616,44.62199839,1.23491823,-0.43142274,1.57671375

>  <Name>
ligand

>  <RI>
0

>  <Rbt.Current_Directory>
/home/itssahil/PROJECTS/Mol_Feturizer/New_Systems/rnas/2HOL

>  <Rbt.Executable>
rbdock ($Id: //depot/dev/client3/rdock/2013.1/src/exe/rbdock.cxx#4 $)

>  <Rbt.Library>
libRbt.so (2013.1, Build901 2013/11/27)

>  <Rbt.Parameter_File>
/export/apps/rDock/src/rDock_2013.1_src/data/scripts/dock_solv.prm

>  <Rbt.Receptor>
prm/blind_docking_80.prm

>  <SCORE>
-7.71574

>  <SCORE.INTER>
-12.3478

>  <SCORE.INTER.CONST>
1

>  <SCORE.INTER.POLAR>
0

>  <SCORE.INTER.ROT>
6

>  <SCORE.INTER.SOLV>
17.3504

>  <SCORE.INTER.VDW>
-21.6153

>  <SCORE.INTER.norm>
-0.474915

>  <SCORE.INTRA>
2.04127

>  <SCORE.INTRA.DIHEDRAL>
3.89871

>  <SCORE.INTRA.DIHEDRAL.0>
9.33621

>  <SCORE.INTRA.POLAR>
0

>  <SCORE.INTRA.POLAR.0>
0

>  <SCORE.INTRA.REPUL>
0

>  <SCORE.INTRA.REPUL.0>
0

>  <SCORE.INTRA.SOLV>
3.3127

>  <SCORE.INTRA.SOLV.lig_0>
-65.9238

>  <SCORE.INTRA.VDW>
-1.56443

>  <SCORE.INTRA.VDW.0>
-0.405582

>  <SCORE.INTRA.norm>
0.0785104

>  <SCORE.RESTR>
2.59077

>  <SCORE.RESTR.CAVITY>
2.59077

>  <SCORE.RESTR.norm>
0.099645

>  <SCORE.SYSTEM>
0

>  <SCORE.SYSTEM.CONST>
0

>  <SCORE.SYSTEM.DIHEDRAL>
0

>  <SCORE.SYSTEM.SOLV>
0

>  <SCORE.SYSTEM.norm>
0

>  <SCORE.heavy>
26

>  <SCORE.norm>
-0.296759

>  <RMSD>
28.991

$$$$
ligand
 OpenBabel11021811443D
libRbt.so/2013.1/901 2013/11/27
 26 28  0  0  0  0  0  0  0  0999 V2000
   20.5783   23.7310   51.4815 C   0  0  0  0  0  0  0  0  0  0  0  0
   24.8646   20.1210   45.6998 C   0  0  0  0  0  0  0  0  0  0  0  0
   21.1606   22.4290   41.6924 P   0  0  1  0  0  0  0  0  0  0  0  0
   18.5860   22.5437   41.9036 P   0  0  1  0  0  0  0  0  0  0  0  0
   24.4956   22.0420   47.7105 C   0  0  0  0  0  0  0  0  0  0  0  0
   23.4869   23.7623   49.2386 C   0  0  0  0  0  0  0  0  0  0  0  0
   23.4581   22.4877   48.7086 C   0  0  0  0  0  0  0  0  0  0  0  0
   22.4432   21.6223   49.1206 C   0  0  0  0  0  0  0  0  0  0  0  0
   22.3705   20.3315   48.6184 N   0  0  0  0  0  0  0  0  0  0  0  0
   21.5498   22.0520   50.0068 N   0  0  0  0  0  0  0  0  0  0  0  0
   21.6119   23.2784   50.4835 C   0  0  0  0  0  0  0  0  0  0  0  0
   22.5579   24.1201   50.1149 N   0  0  0  0  0  0  0  0  0  0  0  0
   21.9358   23.6570   41.4046 O   0  0  0  0  0  0  0  0  0  0  0  0
   19.1342   23.0317   43.2635 O   0  0  0  0  0  0  0  0  0  0  0  0
   23.0831   23.3654   44.4183 S   0  0  0  0  0  0  0  0  0  0  0  0
   23.4488   23.4893   46.1118 C   0  0  0  0  0  0  0  0  0  0  0  0
   20.8156   22.3669   43.2624 O   0  0  0  0  0  0  0  0  0  0  0  0
   17.4790   23.5809   41.3657 O   0  5  0  0  0  0  0  0  0  0  0  0
   24.0270   22.3357   46.3544 N   0  0  0  0  0  0  0  0  0  0  0  0
   19.7929   22.4469   40.8422 O   0  0  0  0  0  0  0  0  0  0  0  0
   17.9423   21.1501   42.0800 O   0  0  0  0  0  0  0  0  0  0  0  0
   24.1974   21.4409   45.4057 C   0  0  2  0  0  0  0  0  0  0  0  0
   23.7520   21.7295   44.1563 C   0  0  2  0  0  0  0  0  0  0  0  0
   23.8093   20.9027   42.8986 C   0  0  0  0  0  0  0  0  0  0  0  0
   22.3938   20.4811   42.4977 C   0  0  0  0  0  0  0  0  0  0  0  0
   22.0288   21.1366   41.2814 O   0  0  0  0  0  0  0  0  0  0  0  0
  1 11  1  0  0  0  0
  3 13  1  6  0  0  0
  3 17  1  0  0  0  0
  3 20  1  0  0  0  0
  3 26  1  0  0  0  0
  4 14  1  0  0  0  0
  4 18  1  6  0  0  0
  4 21  2  0  0  0  0
  4 20  1  0  0  0  0
  5 19  1  0  0  0  0
  5  7  1  0  0  0  0
  6  7  2  0  0  0  0
  6 12  1  0  0  0  0
  7  8  1  0  0  0  0
  8  9  1  0  0  0  0
  8 10  2  0  0  0  0
 10 11  1  0  0  0  0
 11 12  2  0  0  0  0
 14 17  1  0  0  0  0
 15 23  1  0  0  0  0
 15 16  1  0  0  0  0
 16 19  1  0  0  0  0
 19 22  1  0  0  0  0
 22  2  1  1  0  0  0
 22 23  1  0  0  0  0
 23 24  1  6  0  0  0
 24 25  1  0  0  0  0
 25 26  1  0  0  0  0
M  CHG  1  18  -1
M  END
>  <CHROM.1>
42.81418220,-90.41116424,-68.15218359,112.34283661,-97.29689533,110.48253079
21.73365727,22.35147676,44.88221401,1.20178778,-0.27714113,1.42952561

>  <Name>
ligand

>  <RI>
0

>  <Rbt.Current_Directory>
/home/itssahil/PROJECTS/Mol_Feturizer/New_Systems/rnas/2HOL

>  <Rbt.Executable>
rbdock ($Id: //depot/dev/client3/rdock/2013.1/src/exe/rbdock.cxx#4 $)

>  <Rbt.Library>
libRbt.so (2013.1, Build901 2013/11/27)

>  <Rbt.Parameter_File>
/export/apps/rDock/src/rDock_2013.1_src/data/scripts/dock_solv.prm

>  <Rbt.Receptor>
prm/blind_docking_60.prm

>  <SCORE>
14.1012

>  <SCORE.INTER>
-2.34603

>  <SCORE.INTER.CONST>
1

>  <SCORE.INTER.POLAR>
0

>  <SCORE.INTER.ROT>
6

>  <SCORE.INTER.SOLV>
9.12731

>  <SCORE.INTER.VDW>
-12.2065

>  <SCORE.INTER.norm>
-0.0902318

>  <SCORE.INTRA>
4.96284

>  <SCORE.INTRA.DIHEDRAL>
8.29233

>  <SCORE.INTRA.DIHEDRAL.0>
9.33621

>  <SCORE.INTRA.POLAR>
0

>  <SCORE.INTRA.POLAR.0>
0

>  <SCORE.INTRA.REPUL>
0

>  <SCORE.INTRA.REPUL.0>
0

>  <SCORE.INTRA.SOLV>
1.85517

>  <SCORE.INTRA.SOLV.lig_0>
-65.9238

>  <SCORE.INTRA.VDW>
-0.110905

>  <SCORE.INTRA.VDW.0>
-0.405582

>  <SCORE.INTRA.norm>
0.190879

>  <SCORE.RESTR>
11.4843

>  <SCORE.RESTR.CAVITY>
11.4843

>  <SCORE.RESTR.norm>
0.441706

>  <SCORE.SYSTEM>
0

>  <SCORE.SYSTEM.CONST>
0

>  <SCORE.SYSTEM.DIHEDRAL>
0

>  <SCORE.SYSTEM.SOLV>
0

>  <SCORE.SYSTEM.norm>
0

>  <SCORE.heavy>
26

>  <SCORE.norm>
0.542352

>  <RMSD>
29.056

$$$$
ligand
 OpenBabel11021811443D
libRbt.so/2013.1/901 2013/11/27
 26 28  0  0  0  0  0  0  0  0999 V2000
   22.2148   24.3537   49.5439 C   0  0  0  0  0  0  0  0  0  0  0  0
   22.5613   20.1185   46.0473 C   0  0  0  0  0  0  0  0  0  0  0  0
   21.2074   23.4543   44.0490 P   0  0  1  0  0  0  0  0  0  0  0  0
   19.5510   24.0481   42.1542 P   0  0  1  0  0  0  0  0  0  0  0  0
   25.0470   19.9360   47.3347 C   0  0  0  0  0  0  0  0  0  0  0  0
   24.2790   22.3274   47.2800 C   0  0  0  0  0  0  0  0  0  0  0  0
   24.2970   21.1044   47.9206 C   0  0  0  0  0  0  0  0  0  0  0  0
   23.6023   20.9777   49.1248 C   0  0  0  0  0  0  0  0  0  0  0  0
   23.5898   19.7705   49.8076 N   0  0  0  0  0  0  0  0  0  0  0  0
   22.9571   22.0338   49.6111 N   0  0  0  0  0  0  0  0  0  0  0  0
   22.9623   23.1812   48.9643 C   0  0  0  0  0  0  0  0  0  0  0  0
   23.6088   23.3338   47.8251 N   0  0  0  0  0  0  0  0  0  0  0  0
   21.3887   24.3786   45.1911 O   0  0  0  0  0  0  0  0  0  0  0  0
   18.6818   23.4858   43.3016 O   0  0  0  0  0  0  0  0  0  0  0  0
   25.5852   20.1094   43.5577 S   0  0  0  0  0  0  0  0  0  0  0  0
   26.1373   19.9955   45.2007 C   0  0  0  0  0  0  0  0  0  0  0  0
   19.8884   22.5636   44.2829 O   0  0  0  0  0  0  0  0  0  0  0  0
   18.9218   25.4343   41.6317 O   0  5  0  0  0  0  0  0  0  0  0  0
   25.0095   20.0146   45.8727 N   0  0  0  0  0  0  0  0  0  0  0  0
   21.0471   24.3052   42.6911 O   0  0  0  0  0  0  0  0  0  0  0  0
   19.5885   23.0301   40.9924 O   0  0  0  0  0  0  0  0  0  0  0  0
   23.8480   20.0991   45.2614 C   0  0  2  0  0  0  0  0  0  0  0  0
   23.8341   20.1760   43.9063 C   0  0  2  0  0  0  0  0  0  0  0  0
   22.6674   20.2836   42.9598 C   0  0  0  0  0  0  0  0  0  0  0  0
   22.3449   21.7585   42.7096 C   0  0  0  0  0  0  0  0  0  0  0  0
   22.4919   22.4908   43.9279 O   0  0  0  0  0  0  0  0  0  0  0  0
  1 11  1  0  0  0  0
  3 13  1  1  0  0  0
  3 17  1  0  0  0  0
  3 20  1  0  0  0  0
  3 26  1  0  0  0  0
  4 14  1  0  0  0  0
  4 18  1  6  0  0  0
  4 21  2  0  0  0  0
  4 20  1  0  0  0  0
  5 19  1  0  0  0  0
  5  7  1  0  0  0  0
  6  7  2  0  0  0  0
  6 12  1  0  0  0  0
  7  8  1  0  0  0  0
  8  9  1  0  0  0  0
  8 10  2  0  0  0  0
 10 11  1  0  0  0  0
 11 12  2  0  0  0  0
 14 17  1  0  0  0  0
 15 23  1  0  0  0  0
 15 16  1  0  0  0  0
 16 19  1  0  0  0  0
 19 22  1  0  0  0  0
 22  2  1  1  0  0  0
 22 23  1  0  0  0  0
 23 24  1  6  0  0  0
 24 25  1  0  0  0  0
 25 26  1  0  0  0  0
M  CHG  1  18  -1
M  END
>  <CHROM.1>
125.25146033,-32.54295953,-89.73107797,-39.02646538,-134.82023986,-172.08269897
22.40959465,22.17203886,45.04850566,0.65508831,-0.72981648,1.36636700

>  <Name>
ligand

>  <RI>
0

>  <Rbt.Current_Directory>
/home/itssahil/PROJECTS/Mol_Feturizer/New_Systems/rnas/2HOL

>  <Rbt.Executable>
rbdock ($Id: //depot/dev/client3/rdock/2013.1/src/exe/rbdock.cxx#4 $)

>  <Rbt.Library>
libRbt.so (2013.1, Build901 2013/11/27)

>  <Rbt.Parameter_File>
/export/apps/rDock/src/rDock_2013.1_src/data/scripts/dock_solv.prm

>  <Rbt.Receptor>
prm/blind_docking_60.prm

>  <SCORE>
5.23127

>  <SCORE.INTER>
-7.33084

>  <SCORE.INTER.CONST>
1

>  <SCORE.INTER.POLAR>
0

>  <SCORE.INTER.ROT>
6

>  <SCORE.INTER.SOLV>
15.3599

>  <SCORE.INTER.VDW>
-17.6072

>  <SCORE.INTER.norm>
-0.281955

>  <SCORE.INTRA>
3.10785

>  <SCORE.INTRA.DIHEDRAL>
3.31268

>  <SCORE.INTRA.DIHEDRAL.0>
9.33621

>  <SCORE.INTRA.POLAR>
0

>  <SCORE.INTRA.POLAR.0>
0

>  <SCORE.INTRA.REPUL>
0

>  <SCORE.INTRA.REPUL.0>
0

>  <SCORE.INTRA.SOLV>
1.8882

>  <SCORE.INTRA.SOLV.lig_0>
-65.9238

>  <SCORE.INTRA.VDW>
0.507405

>  <SCORE.INTRA.VDW.0>
-0.405582

>  <SCORE.INTRA.norm>
0.119533

>  <SCORE.RESTR>
9.45427

>  <SCORE.RESTR.CAVITY>
9.45427

>  <SCORE.RESTR.norm>
0.363626

>  <SCORE.SYSTEM>
0

>  <SCORE.SYSTEM.CONST>
0

>  <SCORE.SYSTEM.DIHEDRAL>
0

>  <SCORE.SYSTEM.SOLV>
0

>  <SCORE.SYSTEM.norm>
0

>  <SCORE.heavy>
26

>  <SCORE.norm>
0.201203

>  <RMSD>
29.128

$$$$
ligand
 OpenBabel11021811443D
libRbt.so/2013.1/901 2013/11/27
 26 28  0  0  0  0  0  0  0  0999 V2000
   21.9580   24.3937   49.2270 C   0  0  0  0  0  0  0  0  0  0  0  0
   22.6130   20.1947   45.9699 C   0  0  0  0  0  0  0  0  0  0  0  0
   21.1923   23.3547   44.0401 P   0  0  1  0  0  0  0  0  0  0  0  0
   19.5339   23.9931   42.1617 P   0  0  1  0  0  0  0  0  0  0  0  0
   25.1048   20.0785   47.2532 C   0  0  0  0  0  0  0  0  0  0  0  0
   24.2279   22.4286   47.1109 C   0  0  0  0  0  0  0  0  0  0  0  0
   24.2715   21.2199   47.7768 C   0  0  0  0  0  0  0  0  0  0  0  0
   23.5237   21.0817   48.9475 C   0  0  0  0  0  0  0  0  0  0  0  0
   23.5340   19.8881   49.6537 N   0  0  0  0  0  0  0  0  0  0  0  0
   22.8053   22.1141   49.3791 N   0  0  0  0  0  0  0  0  0  0  0  0
   22.7887   23.2484   48.7097 C   0  0  0  0  0  0  0  0  0  0  0  0
   23.4840   23.4112   47.6010 N   0  0  0  0  0  0  0  0  0  0  0  0
   21.4176   24.2784   45.1749 O   0  0  0  0  0  0  0  0  0  0  0  0
   18.6604   23.4656   43.3222 O   0  0  0  0  0  0  0  0  0  0  0  0
   25.6238   20.0296   43.4699 S   0  0  0  0  0  0  0  0  0  0  0  0
   26.1841   20.0097   45.1140 C   0  0  0  0  0  0  0  0  0  0  0  0
   19.8476   22.5092   44.2944 O   0  0  0  0  0  0  0  0  0  0  0  0
   18.9445   25.3966   41.6389 O   0  5  0  0  0  0  0  0  0  0  0  0
   25.0599   20.0720   45.7894 N   0  0  0  0  0  0  0  0  0  0  0  0
   21.0440   24.2034   42.6795 O   0  0  0  0  0  0  0  0  0  0  0  0
   19.5241   22.9684   41.0052 O   0  0  0  0  0  0  0  0  0  0  0  0
   23.8956   20.1248   45.1800 C   0  0  2  0  0  0  0  0  0  0  0  0
   23.8748   20.1227   43.8228 C   0  0  2  0  0  0  0  0  0  0  0  0
   22.7035   20.1791   42.8775 C   0  0  0  0  0  0  0  0  0  0  0  0
   22.2711   21.6343   42.6837 C   0  0  0  0  0  0  0  0  0  0  0  0
   22.4429   22.3488   43.9093 O   0  0  0  0  0  0  0  0  0  0  0  0
  1 11  1  0  0  0  0
  3 13  1  1  0  0  0
  3 17  1  0  0  0  0
  3 20  1  0  0  0  0
  3 26  1  0  0  0  0
  4 14  1  0  0  0  0
  4 18  1  6  0  0  0
  4 21  2  0  0  0  0
  4 20  1  0  0  0  0
  5 19  1  0  0  0  0
  5  7  1  0  0  0  0
  6  7  2  0  0  0  0
  6 12  1  0  0  0  0
  7  8  1  0  0  0  0
  8  9  1  0  0  0  0
  8 10  2  0  0  0  0
 10 11  1  0  0  0  0
 11 12  2  0  0  0  0
 14 17  1  0  0  0  0
 15 23  1  0  0  0  0
 15 16  1  0  0  0  0
 16 19  1  0  0  0  0
 19 22  1  0  0  0  0
 22  2  1  6  0  0  0
 22 23  1  0  0  0  0
 23 24  1  1  0  0  0
 24 25  1  0  0  0  0
 25 26  1  0  0  0  0
M  CHG  1  18  -1
M  END
>  <CHROM.1>
129.66901754,-36.52740694,-96.90601115,-35.38099971,-141.55011333,-170.96020217
22.38361330,22.15783439,44.96950875,0.62068511,-0.71188511,1.36275804

>  <Name>
ligand

>  <RI>
0

>  <Rbt.Current_Directory>
/home/itssahil/PROJECTS/Mol_Feturizer/New_Systems/rnas/2HOL

>  <Rbt.Executable>
rbdock ($Id: //depot/dev/client3/rdock/2013.1/src/exe/rbdock.cxx#4 $)

>  <Rbt.Library>
libRbt.so (2013.1, Build901 2013/11/27)

>  <Rbt.Parameter_File>
/export/apps/rDock/src/rDock_2013.1_src/data/scripts/dock_solv.prm

>  <Rbt.Receptor>
prm/blind_docking_60.prm

>  <SCORE>
7.07258

>  <SCORE.INTER>
-6.91506

>  <SCORE.INTER.CONST>
1

>  <SCORE.INTER.POLAR>
0

>  <SCORE.INTER.ROT>
6

>  <SCORE.INTER.SOLV>
14.7178

>  <SCORE.INTER.VDW>
-17.116

>  <SCORE.INTER.norm>
-0.265964

>  <SCORE.INTRA>
4.97528

>  <SCORE.INTRA.DIHEDRAL>
2.69132

>  <SCORE.INTRA.DIHEDRAL.0>
9.33621

>  <SCORE.INTRA.POLAR>
0

>  <SCORE.INTRA.POLAR.0>
0

>  <SCORE.INTRA.REPUL>
0

>  <SCORE.INTRA.REPUL.0>
0

>  <SCORE.INTRA.SOLV>
2.17255

>  <SCORE.INTRA.SOLV.lig_0>
-65.9238

>  <SCORE.INTRA.VDW>
2.54334

>  <SCORE.INTRA.VDW.0>
-0.405582

>  <SCORE.INTRA.norm>
0.191357

>  <SCORE.RESTR>
9.01236

>  <SCORE.RESTR.CAVITY>
9.01236

>  <SCORE.RESTR.norm>
0.346629

>  <SCORE.SYSTEM>
0

>  <SCORE.SYSTEM.CONST>
0

>  <SCORE.SYSTEM.DIHEDRAL>
0

>  <SCORE.SYSTEM.SOLV>
0

>  <SCORE.SYSTEM.norm>
0

>  <SCORE.heavy>
26

>  <SCORE.norm>
0.272022

>  <RMSD>
29.178

$$$$
ligand
 OpenBabel11021811443D
libRbt.so/2013.1/901 2013/11/27
 26 28  0  0  0  0  0  0  0  0999 V2000
   21.8642   24.3723   49.1638 C   0  0  0  0  0  0  0  0  0  0  0  0
   22.6345   19.9213   46.0897 C   0  0  0  0  0  0  0  0  0  0  0  0
   21.2677   23.1904   44.1123 P   0  0  1  0  0  0  0  0  0  0  0  0
   19.4032   23.8494   42.4462 P   0  0  1  0  0  0  0  0  0  0  0  0
   25.2015   20.2051   47.1849 C   0  0  0  0  0  0  0  0  0  0  0  0
   24.1710   22.4898   47.0125 C   0  0  0  0  0  0  0  0  0  0  0  0
   24.3179   21.3073   47.7099 C   0  0  0  0  0  0  0  0  0  0  0  0
   23.6269   21.1583   48.9136 C   0  0  0  0  0  0  0  0  0  0  0  0
   23.7413   19.9900   49.6521 N   0  0  0  0  0  0  0  0  0  0  0  0
   22.8612   22.1562   49.3451 N   0  0  0  0  0  0  0  0  0  0  0  0
   22.7458   23.2662   48.6453 C   0  0  0  0  0  0  0  0  0  0  0  0
   23.3853   23.4383   47.5049 N   0  0  0  0  0  0  0  0  0  0  0  0
   21.8481   24.2095   45.0157 O   0  0  0  0  0  0  0  0  0  0  0  0
   18.6951   23.6669   43.8076 O   0  0  0  0  0  0  0  0  0  0  0  0
   25.4602   20.0217   43.3790 S   0  0  0  0  0  0  0  0  0  0  0  0
   26.1301   20.1646   44.9753 C   0  0  0  0  0  0  0  0  0  0  0  0
   19.8800   22.6561   44.7260 O   0  0  0  0  0  0  0  0  0  0  0  0
   18.9537   25.2479   41.7886 O   0  5  0  0  0  0  0  0  0  0  0  0
   25.0571   20.1139   45.7303 N   0  0  0  0  0  0  0  0  0  0  0  0
   20.9982   23.8468   42.6666 O   0  0  0  0  0  0  0  0  0  0  0  0
   19.0116   22.6887   41.5044 O   0  0  0  0  0  0  0  0  0  0  0  0
   23.8572   19.9794   45.2090 C   0  0  2  0  0  0  0  0  0  0  0  0
   23.7434   19.9015   43.8586 C   0  0  2  0  0  0  0  0  0  0  0  0
   22.5128   19.7515   43.0030 C   0  0  0  0  0  0  0  0  0  0  0  0
   21.7263   21.0642   43.0020 C   0  0  0  0  0  0  0  0  0  0  0  0
   22.2959   21.9607   43.9580 O   0  0  0  0  0  0  0  0  0  0  0  0
  1 11  1  0  0  0  0
  3 13  1  1  0  0  0
  3 17  1  0  0  0  0
  3 20  1  0  0  0  0
  3 26  1  0  0  0  0
  4 14  1  0  0  0  0
  4 18  1  6  0  0  0
  4 21  2  0  0  0  0
  4 20  1  0  0  0  0
  5 19  1  0  0  0  0
  5  7  1  0  0  0  0
  6  7  2  0  0  0  0
  6 12  1  0  0  0  0
  7  8  1  0  0  0  0
  8  9  1  0  0  0  0
  8 10  2  0  0  0  0
 10 11  1  0  0  0  0
 11 12  2  0  0  0  0
 14 17  1  0  0  0  0
 15 23  1  0  0  0  0
 15 16  1  0  0  0  0
 16 19  1  0  0  0  0
 19 22  1  0  0  0  0
 22  2  1  6  0  0  0
 22 23  1  0  0  0  0
 23 24  1  1  0  0  0
 24 25  1  0  0  0  0
 25 26  1  0  0  0  0
M  CHG  1  18  -1
M  END
>  <CHROM.1>
126.40727280,-38.88523629,-107.84073615,-8.14913195,-169.28163550,-175.75032947
22.33578082,22.06845166,45.04269636,0.53934763,-0.70475784,1.29171711

>  <Name>
ligand

>  <RI>
0

>  <Rbt.Current_Directory>
/home/itssahil/PROJECTS/Mol_Feturizer/New_Systems/rnas/2HOL

>  <Rbt.Executable>
rbdock ($Id: //depot/dev/client3/rdock/2013.1/src/exe/rbdock.cxx#4 $)

>  <Rbt.Library>
libRbt.so (2013.1, Build901 2013/11/27)

>  <Rbt.Parameter_File>
/export/apps/rDock/src/rDock_2013.1_src/data/scripts/dock_solv.prm

>  <Rbt.Receptor>
prm/blind_docking_60.prm

>  <SCORE>
7.26748

>  <SCORE.INTER>
-5.23311

>  <SCORE.INTER.CONST>
1

>  <SCORE.INTER.POLAR>
0

>  <SCORE.INTER.ROT>
6

>  <SCORE.INTER.SOLV>
14.2386

>  <SCORE.INTER.VDW>
-15.8349

>  <SCORE.INTER.norm>
-0.201274

>  <SCORE.INTRA>
3.2862

>  <SCORE.INTRA.DIHEDRAL>
1.14222

>  <SCORE.INTRA.DIHEDRAL.0>
9.33621

>  <SCORE.INTRA.POLAR>
0

>  <SCORE.INTRA.POLAR.0>
0

>  <SCORE.INTRA.REPUL>
0

>  <SCORE.INTRA.REPUL.0>
0

>  <SCORE.INTRA.SOLV>
2.30593

>  <SCORE.INTRA.SOLV.lig_0>
-65.9238

>  <SCORE.INTRA.VDW>
1.56212

>  <SCORE.INTRA.VDW.0>
-0.405582

>  <SCORE.INTRA.norm>
0.126392

>  <SCORE.RESTR>
9.2144

>  <SCORE.RESTR.CAVITY>
9.2144

>  <SCORE.RESTR.norm>
0.3544

>  <SCORE.SYSTEM>
0

>  <SCORE.SYSTEM.CONST>
0

>  <SCORE.SYSTEM.DIHEDRAL>
0

>  <SCORE.SYSTEM.SOLV>
0

>  <SCORE.SYSTEM.norm>
0

>  <SCORE.heavy>
26

>  <SCORE.norm>
0.279519

>  <RMSD>
29.179

$$$$
ligand
 OpenBabel11021811443D
libRbt.so/2013.1/901 2013/11/27
 26 28  0  0  0  0  0  0  0  0999 V2000
   21.9228   24.3846   49.1858 C   0  0  0  0  0  0  0  0  0  0  0  0
   22.6009   20.0366   45.9931 C   0  0  0  0  0  0  0  0  0  0  0  0
   21.1769   23.2385   44.1502 P   0  0  1  0  0  0  0  0  0  0  0  0
   19.3560   23.8625   42.4234 P   0  0  1  0  0  0  0  0  0  0  0  0
   25.1310   20.1196   47.2020 C   0  0  0  0  0  0  0  0  0  0  0  0
   24.1936   22.4453   47.0469 C   0  0  0  0  0  0  0  0  0  0  0  0
   24.2815   21.2477   47.7283 C   0  0  0  0  0  0  0  0  0  0  0  0
   23.5631   21.1081   48.9170 C   0  0  0  0  0  0  0  0  0  0  0  0
   23.6183   19.9253   49.6391 N   0  0  0  0  0  0  0  0  0  0  0  0
   22.8291   22.1287   49.3504 N   0  0  0  0  0  0  0  0  0  0  0  0
   22.7700   23.2526   48.6659 C   0  0  0  0  0  0  0  0  0  0  0  0
   23.4366   23.4164   47.5399 N   0  0  0  0  0  0  0  0  0  0  0  0
   21.6101   24.2297   45.1609 O   0  0  0  0  0  0  0  0  0  0  0  0
   18.5926   23.5121   43.7205 O   0  0  0  0  0  0  0  0  0  0  0  0
   25.5418   20.0380   43.4059 S   0  0  0  0  0  0  0  0  0  0  0  0
   26.1497   20.0877   45.0324 C   0  0  0  0  0  0  0  0  0  0  0  0
   19.8117   22.5388   44.6345 O   0  0  0  0  0  0  0  0  0  0  0  0
   18.8180   25.2642   41.8437 O   0  5  0  0  0  0  0  0  0  0  0  0
   25.0441   20.0831   45.7404 N   0  0  0  0  0  0  0  0  0  0  0  0
   20.9298   23.9811   42.7427 O   0  0  0  0  0  0  0  0  0  0  0  0
   19.1256   22.7502   41.3758 O   0  0  0  0  0  0  0  0  0  0  0  0
   23.8617   20.0427   45.1659 C   0  0  2  0  0  0  0  0  0  0  0  0
   23.8016   20.0143   43.8101 C   0  0  2  0  0  0  0  0  0  0  0  0
   22.6022   19.9708   42.9000 C   0  0  0  0  0  0  0  0  0  0  0  0
   21.9808   21.3661   42.8044 C   0  0  0  0  0  0  0  0  0  0  0  0
   22.3203   22.1189   43.9706 O   0  0  0  0  0  0  0  0  0  0  0  0
  1 11  1  0  0  0  0
  3 13  1  1  0  0  0
  3 17  1  0  0  0  0
  3 20  1  0  0  0  0
  3 26  1  0  0  0  0
  4 14  1  0  0  0  0
  4 18  1  6  0  0  0
  4 21  2  0  0  0  0
  4 20  1  0  0  0  0
  5 19  1  0  0  0  0
  5  7  1  0  0  0  0
  6  7  2  0  0  0  0
  6 12  1  0  0  0  0
  7  8  1  0  0  0  0
  8  9  1  0  0  0  0
  8 10  2  0  0  0  0
 10 11  1  0  0  0  0
 11 12  2  0  0  0  0
 14 17  1  0  0  0  0
 15 23  1  0  0  0  0
 15 16  1  0  0  0  0
 16 19  1  0  0  0  0
 19 22  1  0  0  0  0
 22  2  1  6  0  0  0
 22 23  1  0  0  0  0
 23 24  1  1  0  0  0
 24 25  1  0  0  0  0
 25 26  1  0  0  0  0
M  CHG  1  18  -1
M  END
>  <CHROM.1>
127.20398538,-37.06368913,-102.37095892,-24.44353525,-155.13771646,-168.08056412
22.32064629,22.09114878,45.03544838,0.55283457,-0.69152141,1.32069637

>  <Name>
ligand

>  <RI>
0

>  <Rbt.Current_Directory>
/home/itssahil/PROJECTS/Mol_Feturizer/New_Systems/rnas/2HOL

>  <Rbt.Executable>
rbdock ($Id: //depot/dev/client3/rdock/2013.1/src/exe/rbdock.cxx#4 $)

>  <Rbt.Library>
libRbt.so (2013.1, Build901 2013/11/27)

>  <Rbt.Parameter_File>
/export/apps/rDock/src/rDock_2013.1_src/data/scripts/dock_solv.prm

>  <Rbt.Receptor>
prm/blind_docking_60.prm

>  <SCORE>
7.0129

>  <SCORE.INTER>
-5.97803

>  <SCORE.INTER.CONST>
1

>  <SCORE.INTER.POLAR>
0

>  <SCORE.INTER.ROT>
6

>  <SCORE.INTER.SOLV>
14.2551

>  <SCORE.INTER.VDW>
-16.3371

>  <SCORE.INTER.norm>
-0.229924

>  <SCORE.INTRA>
3.83209

>  <SCORE.INTRA.DIHEDRAL>
1.77033

>  <SCORE.INTRA.DIHEDRAL.0>
9.33621

>  <SCORE.INTRA.POLAR>
0

>  <SCORE.INTRA.POLAR.0>
0

>  <SCORE.INTRA.REPUL>
0

>  <SCORE.INTRA.REPUL.0>
0

>  <SCORE.INTRA.SOLV>
2.29535

>  <SCORE.INTRA.SOLV.lig_0>
-65.9238

>  <SCORE.INTRA.VDW>
1.79924

>  <SCORE.INTRA.VDW.0>
-0.405582

>  <SCORE.INTRA.norm>
0.147388

>  <SCORE.RESTR>
9.15884

>  <SCORE.RESTR.CAVITY>
9.15884

>  <SCORE.RESTR.norm>
0.352263

>  <SCORE.SYSTEM>
0

>  <SCORE.SYSTEM.CONST>
0

>  <SCORE.SYSTEM.DIHEDRAL>
0

>  <SCORE.SYSTEM.SOLV>
0

>  <SCORE.SYSTEM.norm>
0

>  <SCORE.heavy>
26

>  <SCORE.norm>
0.269727

>  <RMSD>
29.180

$$$$
ligand
 OpenBabel11021811443D
libRbt.so/2013.1/901 2013/11/27
 26 28  0  0  0  0  0  0  0  0999 V2000
   22.1306   24.2335   49.7851 C   0  0  0  0  0  0  0  0  0  0  0  0
   25.0316   21.7107   44.8634 C   0  0  0  0  0  0  0  0  0  0  0  0
   21.2502   23.3643   43.9760 P   0  0  1  0  0  0  0  0  0  0  0  0
   19.4987   23.9392   42.1625 P   0  0  1  0  0  0  0  0  0  0  0  0
   25.0446   20.1041   47.1631 C   0  0  0  0  0  0  0  0  0  0  0  0
   24.2865   22.4898   47.3760 C   0  0  0  0  0  0  0  0  0  0  0  0
   24.2729   21.1962   47.8581 C   0  0  0  0  0  0  0  0  0  0  0  0
   23.5259   20.9253   49.0058 C   0  0  0  0  0  0  0  0  0  0  0  0
   23.4801   19.6422   49.5304 N   0  0  0  0  0  0  0  0  0  0  0  0
   22.8629   21.9174   49.5926 N   0  0  0  0  0  0  0  0  0  0  0  0
   22.8996   23.1368   49.0957 C   0  0  0  0  0  0  0  0  0  0  0  0
   23.5958   23.4256   48.0136 N   0  0  0  0  0  0  0  0  0  0  0  0
   21.4591   24.2794   45.1207 O   0  0  0  0  0  0  0  0  0  0  0  0
   18.6944   23.3424   43.3394 O   0  0  0  0  0  0  0  0  0  0  0  0
   22.9521   18.4172   44.4500 S   0  0  0  0  0  0  0  0  0  0  0  0
   23.6545   18.5094   46.0360 C   0  0  0  0  0  0  0  0  0  0  0  0
   19.9645   22.4388   44.2556 O   0  0  0  0  0  0  0  0  0  0  0  0
   18.8142   25.3154   41.6854 O   0  5  0  0  0  0  0  0  0  0  0  0
   24.2993   19.6520   45.9862 N   0  0  0  0  0  0  0  0  0  0  0  0
   21.0103   24.2266   42.6371 O   0  0  0  0  0  0  0  0  0  0  0  0
   19.5099   22.9358   40.9875 O   0  0  0  0  0  0  0  0  0  0  0  0
   24.2871   20.4000   44.9045 C   0  0  2  0  0  0  0  0  0  0  0  0
   23.5947   19.9616   43.8224 C   0  0  2  0  0  0  0  0  0  0  0  0
   23.4149   20.6010   42.4705 C   0  0  0  0  0  0  0  0  0  0  0  0
   22.3700   21.7150   42.5654 C   0  0  0  0  0  0  0  0  0  0  0  0
   22.5510   22.4341   43.7870 O   0  0  0  0  0  0  0  0  0  0  0  0
  1 11  1  0  0  0  0
  3 13  1  1  0  0  0
  3 17  1  0  0  0  0
  3 20  1  0  0  0  0
  3 26  1  0  0  0  0
  4 14  1  0  0  0  0
  4 18  1  6  0  0  0
  4 21  2  0  0  0  0
  4 20  1  0  0  0  0
  5 19  1  0  0  0  0
  5  7  1  0  0  0  0
  6  7  2  0  0  0  0
  6 12  1  0  0  0  0
  7  8  1  0  0  0  0
  8  9  1  0  0  0  0
  8 10  2  0  0  0  0
 10 11  1  0  0  0  0
 11 12  2  0  0  0  0
 14 17  1  0  0  0  0
 15 23  1  0  0  0  0
 15 16  1  0  0  0  0
 16 19  1  0  0  0  0
 19 22  1  0  0  0  0
 22  2  1  6  0  0  0
 22 23  1  0  0  0  0
 23 24  1  1  0  0  0
 24 25  1  0  0  0  0
 25 26  1  0  0  0  0
M  CHG  1  18  -1
M  END
>  <CHROM.1>
-103.97866575,-78.77641337,101.77516142,40.04531305,-168.05277175,-171.94275308
22.21741910,22.01501511,45.05618431,0.49372273,-0.91449772,1.07949528

>  <Name>
ligand

>  <RI>
0

>  <Rbt.Current_Directory>
/home/itssahil/PROJECTS/Mol_Feturizer/New_Systems/rnas/2HOL

>  <Rbt.Executable>
rbdock ($Id: //depot/dev/client3/rdock/2013.1/src/exe/rbdock.cxx#4 $)

>  <Rbt.Library>
libRbt.so (2013.1, Build901 2013/11/27)

>  <Rbt.Parameter_File>
/export/apps/rDock/src/rDock_2013.1_src/data/scripts/dock_solv.prm

>  <Rbt.Receptor>
prm/blind_docking_60.prm

>  <SCORE>
6.82641

>  <SCORE.INTER>
-3.81748

>  <SCORE.INTER.CONST>
1

>  <SCORE.INTER.POLAR>
0

>  <SCORE.INTER.ROT>
6

>  <SCORE.INTER.SOLV>
15.137

>  <SCORE.INTER.VDW>
-15.1907

>  <SCORE.INTER.norm>
-0.146826

>  <SCORE.INTRA>
0.721122

>  <SCORE.INTRA.DIHEDRAL>
-2.50446

>  <SCORE.INTRA.DIHEDRAL.0>
9.33621

>  <SCORE.INTRA.POLAR>
0

>  <SCORE.INTRA.POLAR.0>
0

>  <SCORE.INTRA.REPUL>
0

>  <SCORE.INTRA.REPUL.0>
0

>  <SCORE.INTRA.SOLV>
1.42903

>  <SCORE.INTRA.SOLV.lig_0>
-65.9238

>  <SCORE.INTRA.VDW>
1.25884

>  <SCORE.INTRA.VDW.0>
-0.405582

>  <SCORE.INTRA.norm>
0.0277355

>  <SCORE.RESTR>
9.92277

>  <SCORE.RESTR.CAVITY>
9.92277

>  <SCORE.RESTR.norm>
0.381645

>  <SCORE.SYSTEM>
0

>  <SCORE.SYSTEM.CONST>
0

>  <SCORE.SYSTEM.DIHEDRAL>
0

>  <SCORE.SYSTEM.SOLV>
0

>  <SCORE.SYSTEM.norm>
0

>  <SCORE.heavy>
26

>  <SCORE.norm>
0.262554

>  <RMSD>
29.192

$$$$
ligand
 OpenBabel11021811443D
libRbt.so/2013.1/901 2013/11/27
 26 28  0  0  0  0  0  0  0  0999 V2000
   22.0383   24.3137   49.4436 C   0  0  0  0  0  0  0  0  0  0  0  0
   22.5807   19.8762   46.1705 C   0  0  0  0  0  0  0  0  0  0  0  0
   21.0481   23.3657   43.7499 P   0  0  1  0  0  0  0  0  0  0  0  0
   19.0366   24.0391   42.2710 P   0  0  1  0  0  0  0  0  0  0  0  0
   25.1676   20.1026   47.2318 C   0  0  0  0  0  0  0  0  0  0  0  0
   23.7516   21.0875   49.0584 C   0  0  0  0  0  0  0  0  0  0  0  0
   24.3395   21.2180   47.8160 C   0  0  0  0  0  0  0  0  0  0  0  0
   24.1477   22.4097   47.1147 C   0  0  0  0  0  0  0  0  0  0  0  0
   24.7165   22.5902   45.8628 N   0  0  0  0  0  0  0  0  0  0  0  0
   23.4061   23.3679   47.6626 N   0  0  0  0  0  0  0  0  0  0  0  0
   22.8673   23.2031   48.8532 C   0  0  0  0  0  0  0  0  0  0  0  0
   23.0292   22.0897   49.5411 N   0  0  0  0  0  0  0  0  0  0  0  0
   22.1825   24.3001   43.9277 O   0  0  0  0  0  0  0  0  0  0  0  0
   18.8044   24.7401   43.6285 O   0  0  0  0  0  0  0  0  0  0  0  0
   25.3587   20.0904   43.4175 S   0  0  0  0  0  0  0  0  0  0  0  0
   26.0570   20.1591   45.0065 C   0  0  0  0  0  0  0  0  0  0  0  0
   19.8522   23.7772   44.7439 O   0  0  0  0  0  0  0  0  0  0  0  0
   18.8508   25.1023   41.0771 O   0  5  0  0  0  0  0  0  0  0  0  0
   24.9973   20.0776   45.7774 N   0  0  0  0  0  0  0  0  0  0  0  0
   20.5291   23.4364   42.2270 O   0  0  0  0  0  0  0  0  0  0  0  0
   18.0135   22.8934   42.1034 O   0  0  0  0  0  0  0  0  0  0  0  0
   23.7879   19.9703   45.2718 C   0  0  2  0  0  0  0  0  0  0  0  0
   23.6501   19.9538   43.9215 C   0  0  2  0  0  0  0  0  0  0  0  0
   22.4042   19.8462   43.0819 C   0  0  0  0  0  0  0  0  0  0  0  0
   21.8333   21.2438   42.8309 C   0  0  0  0  0  0  0  0  0  0  0  0
   21.5303   21.8654   44.0814 O   0  0  0  0  0  0  0  0  0  0  0  0
  1 11  1  0  0  0  0
  3 13  1  1  0  0  0
  3 17  1  0  0  0  0
  3 20  1  0  0  0  0
  3 26  1  0  0  0  0
  4 14  1  0  0  0  0
  4 18  1  6  0  0  0
  4 21  2  0  0  0  0
  4 20  1  0  0  0  0
  5 19  1  0  0  0  0
  5  7  1  0  0  0  0
  6  7  2  0  0  0  0
  6 12  1  0  0  0  0
  7  8  1  0  0  0  0
  8  9  1  0  0  0  0
  8 10  2  0  0  0  0
 10 11  1  0  0  0  0
 11 12  2  0  0  0  0
 14 17  1  0  0  0  0
 15 23  1  0  0  0  0
 15 16  1  0  0  0  0
 16 19  1  0  0  0  0
 19 22  1  0  0  0  0
 22  2  1  6  0  0  0
 22 23  1  0  0  0  0
 23 24  1  1  0  0  0
 24 25  1  0  0  0  0
 25 26  1  0  0  0  0
M  CHG  1  18  -1
M  END
>  <CHROM.1>
124.18041408,146.05769994,-92.10790580,-59.20637880,175.58833038,-97.69687162
22.25151358,22.24674347,44.86023549,0.46014918,-0.69146988,1.23373344

>  <Name>
ligand

>  <RI>
0

>  <Rbt.Current_Directory>
/home/itssahil/PROJECTS/Mol_Feturizer/New_Systems/rnas/2HOL

>  <Rbt.Executable>
rbdock ($Id: //depot/dev/client3/rdock/2013.1/src/exe/rbdock.cxx#4 $)

>  <Rbt.Library>
libRbt.so (2013.1, Build901 2013/11/27)

>  <Rbt.Parameter_File>
/export/apps/rDock/src/rDock_2013.1_src/data/scripts/dock_solv.prm

>  <Rbt.Receptor>
prm/blind_docking_60.prm

>  <SCORE>
7.07083

>  <SCORE.INTER>
-4.85245

>  <SCORE.INTER.CONST>
1

>  <SCORE.INTER.POLAR>
0

>  <SCORE.INTER.ROT>
6

>  <SCORE.INTER.SOLV>
21.0621

>  <SCORE.INTER.VDW>
-17.8557

>  <SCORE.INTER.norm>
-0.186633

>  <SCORE.INTRA>
3.77102

>  <SCORE.INTRA.DIHEDRAL>
-2.72786

>  <SCORE.INTRA.DIHEDRAL.0>
9.33621

>  <SCORE.INTRA.POLAR>
0

>  <SCORE.INTRA.POLAR.0>
0

>  <SCORE.INTRA.REPUL>
0

>  <SCORE.INTRA.REPUL.0>
0

>  <SCORE.INTRA.SOLV>
6.98769

>  <SCORE.INTRA.SOLV.lig_0>
-65.9238

>  <SCORE.INTRA.VDW>
1.64111

>  <SCORE.INTRA.VDW.0>
-0.405582

>  <SCORE.INTRA.norm>
0.145039

>  <SCORE.RESTR>
8.15227

>  <SCORE.RESTR.CAVITY>
8.15227

>  <SCORE.RESTR.norm>
0.313549

>  <SCORE.SYSTEM>
0

>  <SCORE.SYSTEM.CONST>
0

>  <SCORE.SYSTEM.DIHEDRAL>
0

>  <SCORE.SYSTEM.SOLV>
0

>  <SCORE.SYSTEM.norm>
0

>  <SCORE.heavy>
26

>  <SCORE.norm>
0.271955

>  <RMSD>
29.220

$$$$
ligand
 OpenBabel11021811443D
libRbt.so/2013.1/901 2013/11/27
 26 28  0  0  0  0  0  0  0  0999 V2000
   21.9592   24.2828   49.4498 C   0  0  0  0  0  0  0  0  0  0  0  0
   22.6035   19.8000   46.2847 C   0  0  0  0  0  0  0  0  0  0  0  0
   21.4367   23.3843   43.4257 P   0  0  1  0  0  0  0  0  0  0  0  0
   19.2582   23.9454   42.1506 P   0  0  1  0  0  0  0  0  0  0  0  0
   25.2327   20.2217   47.1673 C   0  0  0  0  0  0  0  0  0  0  0  0
   23.8240   21.1461   49.0308 C   0  0  0  0  0  0  0  0  0  0  0  0
   24.3664   21.2974   47.7702 C   0  0  0  0  0  0  0  0  0  0  0  0
   24.0921   22.4725   47.0682 C   0  0  0  0  0  0  0  0  0  0  0  0
   24.6126   22.6727   45.7984 N   0  0  0  0  0  0  0  0  0  0  0  0
   23.3191   23.3953   47.6331 N   0  0  0  0  0  0  0  0  0  0  0  0
   22.8260   23.2119   48.8406 C   0  0  0  0  0  0  0  0  0  0  0  0
   23.0659   22.1134   49.5297 N   0  0  0  0  0  0  0  0  0  0  0  0
   22.2655   24.4729   43.9910 O   0  0  0  0  0  0  0  0  0  0  0  0
   18.8921   24.0271   43.6497 O   0  0  0  0  0  0  0  0  0  0  0  0
   25.1833   20.0841   43.3510 S   0  0  0  0  0  0  0  0  0  0  0  0
   25.9747   20.2524   44.8881 C   0  0  0  0  0  0  0  0  0  0  0  0
   20.2147   23.0664   44.4225 O   0  0  0  0  0  0  0  0  0  0  0  0
   18.7297   25.2644   41.3945 O   0  5  0  0  0  0  0  0  0  0  0  0
   24.9730   20.1341   45.7286 N   0  0  0  0  0  0  0  0  0  0  0  0
   20.8573   23.8401   41.9939 O   0  0  0  0  0  0  0  0  0  0  0  0
   18.5963   22.6957   41.5280 O   0  0  0  0  0  0  0  0  0  0  0  0
   23.7433   19.9352   45.3066 C   0  0  2  0  0  0  0  0  0  0  0  0
   23.5219   19.8618   43.9694 C   0  0  2  0  0  0  0  0  0  0  0  0
   22.2348   19.6483   43.2167 C   0  0  0  0  0  0  0  0  0  0  0  0
   21.4377   20.9543   43.1841 C   0  0  0  0  0  0  0  0  0  0  0  0
   22.3379   22.0626   43.2418 O   0  0  0  0  0  0  0  0  0  0  0  0
  1 11  1  0  0  0  0
  3 13  1  1  0  0  0
  3 17  1  0  0  0  0
  3 20  1  0  0  0  0
  3 26  1  0  0  0  0
  4 14  1  0  0  0  0
  4 18  1  6  0  0  0
  4 21  2  0  0  0  0
  4 20  1  0  0  0  0
  5 19  1  0  0  0  0
  5  7  1  0  0  0  0
  6  7  2  0  0  0  0
  6 12  1  0  0  0  0
  7  8  1  0  0  0  0
  8  9  1  0  0  0  0
  8 10  2  0  0  0  0
 10 11  1  0  0  0  0
 11 12  2  0  0  0  0
 14 17  1  0  0  0  0
 15 23  1  0  0  0  0
 15 16  1  0  0  0  0
 16 19  1  0  0  0  0
 19 22  1  0  0  0  0
 22  2  1  6  0  0  0
 22 23  1  0  0  0  0
 23 24  1  1  0  0  0
 24 25  1  0  0  0  0
 25 26  1  0  0  0  0
M  CHG  1  18  -1
M  END
>  <CHROM.1>
124.62493852,143.38352272,-102.49549062,28.64430191,-171.73437311,158.91046595
22.33275776,22.20969564,44.77077988,0.52411037,-0.72309964,1.21651675

>  <Name>
ligand

>  <RI>
0

>  <Rbt.Current_Directory>
/home/itssahil/PROJECTS/Mol_Feturizer/New_Systems/rnas/2HOL

>  <Rbt.Executable>
rbdock ($Id: //depot/dev/client3/rdock/2013.1/src/exe/rbdock.cxx#4 $)

>  <Rbt.Library>
libRbt.so (2013.1, Build901 2013/11/27)

>  <Rbt.Parameter_File>
/export/apps/rDock/src/rDock_2013.1_src/data/scripts/dock_solv.prm

>  <Rbt.Receptor>
prm/blind_docking_60.prm

>  <SCORE>
7.57048

>  <SCORE.INTER>
-4.83086

>  <SCORE.INTER.CONST>
1

>  <SCORE.INTER.POLAR>
0

>  <SCORE.INTER.ROT>
6

>  <SCORE.INTER.SOLV>
21.9654

>  <SCORE.INTER.VDW>
-18.1424

>  <SCORE.INTER.norm>
-0.185802

>  <SCORE.INTRA>
4.15389

>  <SCORE.INTRA.DIHEDRAL>
-0.700678

>  <SCORE.INTRA.DIHEDRAL.0>
9.33621

>  <SCORE.INTRA.POLAR>
0

>  <SCORE.INTRA.POLAR.0>
0

>  <SCORE.INTRA.REPUL>
0

>  <SCORE.INTRA.REPUL.0>
0

>  <SCORE.INTRA.SOLV>
7.30818

>  <SCORE.INTRA.SOLV.lig_0>
-65.9238

>  <SCORE.INTRA.VDW>
0.850142

>  <SCORE.INTRA.VDW.0>
-0.405582

>  <SCORE.INTRA.norm>
0.159765

>  <SCORE.RESTR>
8.24744

>  <SCORE.RESTR.CAVITY>
8.24744

>  <SCORE.RESTR.norm>
0.317209

>  <SCORE.SYSTEM>
0

>  <SCORE.SYSTEM.CONST>
0

>  <SCORE.SYSTEM.DIHEDRAL>
0

>  <SCORE.SYSTEM.SOLV>
0

>  <SCORE.SYSTEM.norm>
0

>  <SCORE.heavy>
26

>  <SCORE.norm>
0.291172

>  <RMSD>
29.270

$$$$
ligand
 OpenBabel11021811443D
libRbt.so/2013.1/901 2013/11/27
 26 28  0  0  0  0  0  0  0  0999 V2000
   22.0758   24.2339   49.4267 C   0  0  0  0  0  0  0  0  0  0  0  0
   22.5287   19.9024   46.0018 C   0  0  0  0  0  0  0  0  0  0  0  0
   20.9943   23.4507   43.6611 P   0  0  1  0  0  0  0  0  0  0  0  0
   19.0042   24.0599   42.1265 P   0  0  1  0  0  0  0  0  0  0  0  0
   25.0773   19.9525   47.1730 C   0  0  0  0  0  0  0  0  0  0  0  0
   23.6269   20.9353   48.9736 C   0  0  0  0  0  0  0  0  0  0  0  0
   24.2832   21.0866   47.7683 C   0  0  0  0  0  0  0  0  0  0  0  0
   24.1927   22.3170   47.1152 C   0  0  0  0  0  0  0  0  0  0  0  0
   24.8331   22.5197   45.9019 N   0  0  0  0  0  0  0  0  0  0  0  0
   23.4780   23.2909   47.6711 N   0  0  0  0  0  0  0  0  0  0  0  0
   22.8715   23.1048   48.8255 C   0  0  0  0  0  0  0  0  0  0  0  0
   22.9371   21.9548   49.4675 N   0  0  0  0  0  0  0  0  0  0  0  0
   22.0622   24.4432   43.9185 O   0  0  0  0  0  0  0  0  0  0  0  0
   18.6776   24.6935   43.4977 O   0  0  0  0  0  0  0  0  0  0  0  0
   25.4263   20.0759   43.3719 S   0  0  0  0  0  0  0  0  0  0  0  0
   26.0604   20.0473   44.9888 C   0  0  0  0  0  0  0  0  0  0  0  0
   19.7381   23.7524   44.6197 O   0  0  0  0  0  0  0  0  0  0  0  0
   18.8003   25.1551   40.9649 O   0  5  0  0  0  0  0  0  0  0  0  0
   24.9667   19.9920   45.7132 N   0  0  0  0  0  0  0  0  0  0  0  0
   20.5311   23.5487   42.1219 O   0  0  0  0  0  0  0  0  0  0  0  0
   18.0597   22.8628   41.8763 O   0  0  0  0  0  0  0  0  0  0  0  0
   23.7755   19.9674   45.1561 C   0  0  2  0  0  0  0  0  0  0  0  0
   23.6935   20.0097   43.8019 C   0  0  2  0  0  0  0  0  0  0  0  0
   22.4798   19.9995   42.9099 C   0  0  0  0  0  0  0  0  0  0  0  0
   21.9821   21.4322   42.7055 C   0  0  0  0  0  0  0  0  0  0  0  0
   21.5535   21.9701   43.9581 O   0  0  0  0  0  0  0  0  0  0  0  0
  1 11  1  0  0  0  0
  3 13  1  1  0  0  0
  3 17  1  0  0  0  0
  3 20  1  0  0  0  0
  3 26  1  0  0  0  0
  4 14  1  0  0  0  0
  4 18  1  6  0  0  0
  4 21  2  0  0  0  0
  4 20  1  0  0  0  0
  5 19  1  0  0  0  0
  5  7  1  0  0  0  0
  6  7  2  0  0  0  0
  6 12  1  0  0  0  0
  7  8  1  0  0  0  0
  8  9  1  0  0  0  0
  8 10  2  0  0  0  0
 10 11  1  0  0  0  0
 11 12  2  0  0  0  0
 14 17  1  0  0  0  0
 15 23  1  0  0  0  0
 15 16  1  0  0  0  0
 16 19  1  0  0  0  0
 19 22  1  0  0  0  0
 22  2  1  1  0  0  0
 22 23  1  0  0  0  0
 23 24  1  6  0  0  0
 24 25  1  0  0  0  0
 25 26  1  0  0  0  0
M  CHG  1  18  -1
M  END
>  <CHROM.1>
124.18394254,145.39064808,-92.73044725,-63.87010683,-177.92247903,-95.85014100
22.24067854,22.24222419,44.77414514,0.47909920,-0.69123672,1.26670273

>  <Name>
ligand

>  <RI>
0

>  <Rbt.Current_Directory>
/home/itssahil/PROJECTS/Mol_Feturizer/New_Systems/rnas/2HOL

>  <Rbt.Executable>
rbdock ($Id: //depot/dev/client3/rdock/2013.1/src/exe/rbdock.cxx#4 $)

>  <Rbt.Library>
libRbt.so (2013.1, Build901 2013/11/27)

>  <Rbt.Parameter_File>
/export/apps/rDock/src/rDock_2013.1_src/data/scripts/dock_solv.prm

>  <Rbt.Receptor>
prm/blind_docking_60.prm

>  <SCORE>
5.87958

>  <SCORE.INTER>
-5.85443

>  <SCORE.INTER.CONST>
1

>  <SCORE.INTER.POLAR>
0

>  <SCORE.INTER.ROT>
6

>  <SCORE.INTER.SOLV>
21.3967

>  <SCORE.INTER.VDW>
-18.6352

>  <SCORE.INTER.norm>
-0.225171

>  <SCORE.INTRA>
3.29875

>  <SCORE.INTRA.DIHEDRAL>
-2.86652

>  <SCORE.INTRA.DIHEDRAL.0>
9.33621

>  <SCORE.INTRA.POLAR>
0

>  <SCORE.INTRA.POLAR.0>
0

>  <SCORE.INTRA.REPUL>
0

>  <SCORE.INTRA.REPUL.0>
0

>  <SCORE.INTRA.SOLV>
6.22351

>  <SCORE.INTRA.SOLV.lig_0>
-65.9238

>  <SCORE.INTRA.VDW>
1.62025

>  <SCORE.INTRA.VDW.0>
-0.405582

>  <SCORE.INTRA.norm>
0.126875

>  <SCORE.RESTR>
8.43526

>  <SCORE.RESTR.CAVITY>
8.43526

>  <SCORE.RESTR.norm>
0.324433

>  <SCORE.SYSTEM>
0

>  <SCORE.SYSTEM.CONST>
0

>  <SCORE.SYSTEM.DIHEDRAL>
0

>  <SCORE.SYSTEM.SOLV>
0

>  <SCORE.SYSTEM.norm>
0

>  <SCORE.heavy>
26

>  <SCORE.norm>
0.226138

>  <RMSD>
29.301

$$$$
ligand
 OpenBabel11021811443D
libRbt.so/2013.1/901 2013/11/27
 26 28  0  0  0  0  0  0  0  0999 V2000
   21.4686   23.9785   49.1371 C   0  0  0  0  0  0  0  0  0  0  0  0
   24.7549   22.0195   45.0661 C   0  0  0  0  0  0  0  0  0  0  0  0
   21.2548   22.9908   44.1273 P   0  0  1  0  0  0  0  0  0  0  0  0
   19.3915   23.7179   42.4884 P   0  0  1  0  0  0  0  0  0  0  0  0
   25.2183   20.1879   47.1397 C   0  0  0  0  0  0  0  0  0  0  0  0
   24.6457   22.3026   48.3692 C   0  0  0  0  0  0  0  0  0  0  0  0
   24.2247   21.1904   47.6679 C   0  0  0  0  0  0  0  0  0  0  0  0
   22.8551   21.0181   47.4601 C   0  0  0  0  0  0  0  0  0  0  0  0
   22.3810   19.9173   46.7622 N   0  0  0  0  0  0  0  0  0  0  0  0
   22.0104   21.9227   47.9465 N   0  0  0  0  0  0  0  0  0  0  0  0
   22.4559   22.9722   48.6062 C   0  0  0  0  0  0  0  0  0  0  0  0
   23.7431   23.1638   48.8196 N   0  0  0  0  0  0  0  0  0  0  0  0
   21.8934   23.9901   45.0134 O   0  0  0  0  0  0  0  0  0  0  0  0
   18.6998   23.5745   43.8628 O   0  0  0  0  0  0  0  0  0  0  0  0
   24.0617   18.3083   44.0228 S   0  0  0  0  0  0  0  0  0  0  0  0
   24.5833   18.3978   45.6773 C   0  0  0  0  0  0  0  0  0  0  0  0
   19.8564   22.5201   44.7683 O   0  0  0  0  0  0  0  0  0  0  0  0
   18.9905   25.1300   41.8284 O   0  5  0  0  0  0  0  0  0  0  0  0
   24.7644   19.6880   45.8401 N   0  0  0  0  0  0  0  0  0  0  0  0
   20.9885   23.6487   42.6817 O   0  0  0  0  0  0  0  0  0  0  0  0
   18.9347   22.5689   41.5617 O   0  0  0  0  0  0  0  0  0  0  0  0
   24.5436   20.5404   44.8631 C   0  0  2  0  0  0  0  0  0  0  0  0
   24.1281   20.0574   43.6645 C   0  0  2  0  0  0  0  0  0  0  0  0
   23.8082   20.7917   42.3889 C   0  0  0  0  0  0  0  0  0  0  0  0
   22.5202   21.5980   42.5710 C   0  0  0  0  0  0  0  0  0  0  0  0
   22.2270   21.7175   43.9645 O   0  0  0  0  0  0  0  0  0  0  0  0
  1 11  1  0  0  0  0
  3 13  1  1  0  0  0
  3 17  1  0  0  0  0
  3 20  1  0  0  0  0
  3 26  1  0  0  0  0
  4 14  1  0  0  0  0
  4 18  1  6  0  0  0
  4 21  2  0  0  0  0
  4 20  1  0  0  0  0
  5 19  1  0  0  0  0
  5  7  1  0  0  0  0
  6  7  2  0  0  0  0
  6 12  1  0  0  0  0
  7  8  1  0  0  0  0
  8  9  1  0  0  0  0
  8 10  2  0  0  0  0
 10 11  1  0  0  0  0
 11 12  2  0  0  0  0
 14 17  1  0  0  0  0
 15 23  1  0  0  0  0
 15 16  1  0  0  0  0
 16 19  1  0  0  0  0
 19 22  1  0  0  0  0
 22  2  1  6  0  0  0
 22 23  1  0  0  0  0
 23 24  1  1  0  0  0
 24 25  1  0  0  0  0
 25 26  1  0  0  0  0
M  CHG  1  18  -1
M  END
>  <CHROM.1>
-122.60012275,-143.32751459,109.89598885,16.29026727,158.60826875,-120.29133523
22.25080371,21.89790968,44.93376522,0.35983485,-0.77374023,1.16977023

>  <Name>
ligand

>  <RI>
0

>  <Rbt.Current_Directory>
/home/itssahil/PROJECTS/Mol_Feturizer/New_Systems/rnas/2HOL

>  <Rbt.Executable>
rbdock ($Id: //depot/dev/client3/rdock/2013.1/src/exe/rbdock.cxx#4 $)

>  <Rbt.Library>
libRbt.so (2013.1, Build901 2013/11/27)

>  <Rbt.Parameter_File>
/export/apps/rDock/src/rDock_2013.1_src/data/scripts/dock_solv.prm

>  <Rbt.Receptor>
prm/blind_docking_60.prm

>  <SCORE>
16.5043

>  <SCORE.INTER>
-0.387837

>  <SCORE.INTER.CONST>
1

>  <SCORE.INTER.POLAR>
0

>  <SCORE.INTER.ROT>
6

>  <SCORE.INTER.SOLV>
12.7626

>  <SCORE.INTER.VDW>
-12.1128

>  <SCORE.INTER.norm>
-0.0149168

>  <SCORE.INTRA>
8.76976

>  <SCORE.INTRA.DIHEDRAL>
4.26733

>  <SCORE.INTRA.DIHEDRAL.0>
9.33621

>  <SCORE.INTRA.POLAR>
0

>  <SCORE.INTRA.POLAR.0>
0

>  <SCORE.INTRA.REPUL>
0

>  <SCORE.INTRA.REPUL.0>
0

>  <SCORE.INTRA.SOLV>
7.51868

>  <SCORE.INTRA.SOLV.lig_0>
-65.9238

>  <SCORE.INTRA.VDW>
2.87675

>  <SCORE.INTRA.VDW.0>
-0.405582

>  <SCORE.INTRA.norm>
0.337298

>  <SCORE.RESTR>
8.12236

>  <SCORE.RESTR.CAVITY>
8.12236

>  <SCORE.RESTR.norm>
0.312398

>  <SCORE.SYSTEM>
0

>  <SCORE.SYSTEM.CONST>
0

>  <SCORE.SYSTEM.DIHEDRAL>
0

>  <SCORE.SYSTEM.SOLV>
0

>  <SCORE.SYSTEM.norm>
0

>  <SCORE.heavy>
26

>  <SCORE.norm>
0.63478

>  <RMSD>
29.305

$$$$
ligand
 OpenBabel11021811443D
libRbt.so/2013.1/901 2013/11/27
 26 28  0  0  0  0  0  0  0  0999 V2000
   21.8048   24.3746   49.1600 C   0  0  0  0  0  0  0  0  0  0  0  0
   22.7254   19.6288   46.2484 C   0  0  0  0  0  0  0  0  0  0  0  0
   21.5823   22.9317   42.1853 P   0  0  1  0  0  0  0  0  0  0  0  0
   19.4847   23.4300   43.6129 P   0  0  1  0  0  0  0  0  0  0  0  0
   25.2549   20.2488   47.2909 C   0  0  0  0  0  0  0  0  0  0  0  0
   24.1923   22.5154   47.0778 C   0  0  0  0  0  0  0  0  0  0  0  0
   24.3414   21.3401   47.7869 C   0  0  0  0  0  0  0  0  0  0  0  0
   23.6241   21.1880   48.9748 C   0  0  0  0  0  0  0  0  0  0  0  0
   23.7395   20.0267   49.7240 N   0  0  0  0  0  0  0  0  0  0  0  0
   22.8324   22.1763   49.3808 N   0  0  0  0  0  0  0  0  0  0  0  0
   22.7161   23.2795   48.6705 C   0  0  0  0  0  0  0  0  0  0  0  0
   23.3799   23.4542   47.5445 N   0  0  0  0  0  0  0  0  0  0  0  0
   21.7618   23.5969   40.8749 O   0  0  0  0  0  0  0  0  0  0  0  0
   20.4454   24.6145   43.8627 O   0  0  0  0  0  0  0  0  0  0  0  0
   25.4776   20.0010   43.4864 S   0  0  0  0  0  0  0  0  0  0  0  0
   26.1487   20.2646   45.0668 C   0  0  0  0  0  0  0  0  0  0  0  0
   22.0415   23.9287   43.3613 O   0  0  0  0  0  0  0  0  0  0  0  0
   18.0177   23.9913   43.2616 O   0  5  0  0  0  0  0  0  0  0  0  0
   25.1011   20.1038   45.8417 N   0  0  0  0  0  0  0  0  0  0  0  0
   20.0312   22.5464   42.3828 O   0  0  0  0  0  0  0  0  0  0  0  0
   19.4095   22.5535   44.8832 O   0  0  0  0  0  0  0  0  0  0  0  0
   23.9188   19.8118   45.3451 C   0  0  2  0  0  0  0  0  0  0  0  0
   23.7953   19.6863   43.9991 C   0  0  2  0  0  0  0  0  0  0  0  0
   22.5796   19.3668   43.1693 C   0  0  0  0  0  0  0  0  0  0  0  0
   21.7359   20.6307   42.9887 C   0  0  0  0  0  0  0  0  0  0  0  0
   22.4765   21.5934   42.2357 O   0  0  0  0  0  0  0  0  0  0  0  0
  1 11  1  0  0  0  0
  3 13  1  6  0  0  0
  3 17  1  0  0  0  0
  3 20  1  0  0  0  0
  3 26  1  0  0  0  0
  4 14  1  0  0  0  0
  4 18  1  6  0  0  0
  4 21  2  0  0  0  0
  4 20  1  0  0  0  0
  5 19  1  0  0  0  0
  5  7  1  0  0  0  0
  6  7  2  0  0  0  0
  6 12  1  0  0  0  0
  7  8  1  0  0  0  0
  8  9  1  0  0  0  0
  8 10  2  0  0  0  0
 10 11  1  0  0  0  0
 11 12  2  0  0  0  0
 14 17  1  0  0  0  0
 15 23  1  0  0  0  0
 15 16  1  0  0  0  0
 16 19  1  0  0  0  0
 19 22  1  0  0  0  0
 22  2  1  6  0  0  0
 22 23  1  0  0  0  0
 23 24  1  1  0  0  0
 24 25  1  0  0  0  0
 25 26  1  0  0  0  0
M  CHG  1  18  -1
M  END
>  <CHROM.1>
121.20453665,-41.47767288,-99.99473795,64.51601949,-175.57072957,-144.58474583
22.47202240,21.92159413,44.93503396,0.72586755,-0.67794234,1.38457841

>  <Name>
ligand

>  <RI>
0

>  <Rbt.Current_Directory>
/home/itssahil/PROJECTS/Mol_Feturizer/New_Systems/rnas/2HOL

>  <Rbt.Executable>
rbdock ($Id: //depot/dev/client3/rdock/2013.1/src/exe/rbdock.cxx#4 $)

>  <Rbt.Library>
libRbt.so (2013.1, Build901 2013/11/27)

>  <Rbt.Parameter_File>
/export/apps/rDock/src/rDock_2013.1_src/data/scripts/dock_solv.prm

>  <Rbt.Receptor>
prm/blind_docking_60.prm

>  <SCORE>
9.11546

>  <SCORE.INTER>
-1.64672

>  <SCORE.INTER.CONST>
1

>  <SCORE.INTER.POLAR>
0

>  <SCORE.INTER.ROT>
6

>  <SCORE.INTER.SOLV>
18.7714

>  <SCORE.INTER.VDW>
-14.9549

>  <SCORE.INTER.norm>
-0.0633355

>  <SCORE.INTRA>
-0.178868

>  <SCORE.INTRA.DIHEDRAL>
-2.90943

>  <SCORE.INTRA.DIHEDRAL.0>
9.33621

>  <SCORE.INTRA.POLAR>
0

>  <SCORE.INTRA.POLAR.0>
0

>  <SCORE.INTRA.REPUL>
0

>  <SCORE.INTRA.REPUL.0>
0

>  <SCORE.INTRA.SOLV>
1.55933

>  <SCORE.INTRA.SOLV.lig_0>
-65.9238

>  <SCORE.INTRA.VDW>
0.496181

>  <SCORE.INTRA.VDW.0>
-0.405582

>  <SCORE.INTRA.norm>
-0.00687953

>  <SCORE.RESTR>
10.9411

>  <SCORE.RESTR.CAVITY>
10.9411

>  <SCORE.RESTR.norm>
0.42081

>  <SCORE.SYSTEM>
0

>  <SCORE.SYSTEM.CONST>
0

>  <SCORE.SYSTEM.DIHEDRAL>
0

>  <SCORE.SYSTEM.SOLV>
0

>  <SCORE.SYSTEM.norm>
0

>  <SCORE.heavy>
26

>  <SCORE.norm>
0.350595

>  <RMSD>
29.309

$$$$
ligand
 OpenBabel11021811443D
libRbt.so/2013.1/901 2013/11/27
 26 28  0  0  0  0  0  0  0  0999 V2000
   20.4558   21.5115   50.0589 C   0  0  0  0  0  0  0  0  0  0  0  0
   22.2267   23.0745   43.9253 C   0  0  0  0  0  0  0  0  0  0  0  0
   20.1460   23.7917   41.5118 P   0  0  1  0  0  0  0  0  0  0  0  0
   18.3540   23.3789   43.3298 P   0  0  1  0  0  0  0  0  0  0  0  0
   24.1236   23.0689   45.9920 C   0  0  0  0  0  0  0  0  0  0  0  0
   21.9372   23.2933   47.2089 C   0  0  0  0  0  0  0  0  0  0  0  0
   23.1538   22.6557   47.0690 C   0  0  0  0  0  0  0  0  0  0  0  0
   23.4626   21.6181   47.9503 C   0  0  0  0  0  0  0  0  0  0  0  0
   24.6719   20.9463   47.8520 N   0  0  0  0  0  0  0  0  0  0  0  0
   22.5821   21.2870   48.8901 N   0  0  0  0  0  0  0  0  0  0  0  0
   21.4303   21.9191   48.9849 C   0  0  0  0  0  0  0  0  0  0  0  0
   21.1085   22.9033   48.1683 N   0  0  0  0  0  0  0  0  0  0  0  0
   19.8094   24.5813   40.3056 O   0  0  0  0  0  0  0  0  0  0  0  0
   18.8862   24.8061   43.5908 O   0  0  0  0  0  0  0  0  0  0  0  0
   24.7980   20.1332   43.6441 S   0  0  0  0  0  0  0  0  0  0  0  0
   25.1300   21.1127   45.0398 C   0  0  0  0  0  0  0  0  0  0  0  0
   20.4766   24.7877   42.7310 O   0  0  0  0  0  0  0  0  0  0  0  0
   16.7447   23.3979   43.3185 O   0  5  0  0  0  0  0  0  0  0  0  0
   24.1889   22.0253   44.9665 N   0  0  0  0  0  0  0  0  0  0  0  0
   18.8957   22.8564   41.9063 O   0  0  0  0  0  0  0  0  0  0  0  0
   18.8494   22.4341   44.4476 O   0  0  0  0  0  0  0  0  0  0  0  0
   23.3024   22.0201   43.9949 C   0  0  2  0  0  0  0  0  0  0  0  0
   23.3824   21.0478   43.0512 C   0  0  2  0  0  0  0  0  0  0  0  0
   22.5165   20.8050   41.8429 C   0  0  0  0  0  0  0  0  0  0  0  0
   21.2481   21.6555   41.9423 C   0  0  0  0  0  0  0  0  0  0  0  0
   21.4300   22.8684   41.2089 O   0  0  0  0  0  0  0  0  0  0  0  0
  1 11  1  0  0  0  0
  3 13  1  6  0  0  0
  3 17  1  0  0  0  0
  3 20  1  0  0  0  0
  3 26  1  0  0  0  0
  4 14  1  0  0  0  0
  4 18  1  6  0  0  0
  4 21  2  0  0  0  0
  4 20  1  0  0  0  0
  5 19  1  0  0  0  0
  5  7  1  0  0  0  0
  6  7  2  0  0  0  0
  6 12  1  0  0  0  0
  7  8  1  0  0  0  0
  8  9  1  0  0  0  0
  8 10  2  0  0  0  0
 10 11  1  0  0  0  0
 11 12  2  0  0  0  0
 14 17  1  0  0  0  0
 15 23  1  0  0  0  0
 15 16  1  0  0  0  0
 16 19  1  0  0  0  0
 19 22  1  0  0  0  0
 22  2  1  6  0  0  0
 22 23  1  0  0  0  0
 23 24  1  1  0  0  0
 24 25  1  0  0  0  0
 25 26  1  0  0  0  0
M  CHG  1  18  -1
M  END
>  <CHROM.1>
-94.73213912,-109.34917659,166.84696554,95.83223375,-172.78167354,-145.69807672
21.47621880,22.50813636,44.38211154,0.89025270,-0.40938008,1.63204822

>  <Name>
ligand

>  <RI>
0

>  <Rbt.Current_Directory>
/home/itssahil/PROJECTS/Mol_Feturizer/New_Systems/rnas/2HOL

>  <Rbt.Executable>
rbdock ($Id: //depot/dev/client3/rdock/2013.1/src/exe/rbdock.cxx#4 $)

>  <Rbt.Library>
libRbt.so (2013.1, Build901 2013/11/27)

>  <Rbt.Parameter_File>
/export/apps/rDock/src/rDock_2013.1_src/data/scripts/dock_solv.prm

>  <Rbt.Receptor>
prm/blind_docking_60.prm

>  <SCORE>
12.6297

>  <SCORE.INTER>
-8.22733

>  <SCORE.INTER.CONST>
1

>  <SCORE.INTER.POLAR>
0

>  <SCORE.INTER.ROT>
6

>  <SCORE.INTER.SOLV>
15.0672

>  <SCORE.INTER.VDW>
-18.1073

>  <SCORE.INTER.norm>
-0.316436

>  <SCORE.INTRA>
13.3821

>  <SCORE.INTRA.DIHEDRAL>
1.06582

>  <SCORE.INTRA.DIHEDRAL.0>
9.33621

>  <SCORE.INTRA.POLAR>
0

>  <SCORE.INTRA.POLAR.0>
0

>  <SCORE.INTRA.REPUL>
0

>  <SCORE.INTRA.REPUL.0>
0

>  <SCORE.INTRA.SOLV>
3.67188

>  <SCORE.INTRA.SOLV.lig_0>
-65.9238

>  <SCORE.INTRA.VDW>
11.0132

>  <SCORE.INTRA.VDW.0>
-0.405582

>  <SCORE.INTRA.norm>
0.514694

>  <SCORE.RESTR>
7.47495

>  <SCORE.RESTR.CAVITY>
7.47495

>  <SCORE.RESTR.norm>
0.287498

>  <SCORE.SYSTEM>
0

>  <SCORE.SYSTEM.CONST>
0

>  <SCORE.SYSTEM.DIHEDRAL>
0

>  <SCORE.SYSTEM.SOLV>
0

>  <SCORE.SYSTEM.norm>
0

>  <SCORE.heavy>
26

>  <SCORE.norm>
0.485756

>  <RMSD>
29.434

$$$$
ligand
 OpenBabel11021811443D
libRbt.so/2013.1/901 2013/11/27
 26 28  0  0  0  0  0  0  0  0999 V2000
   22.4500   24.4857   49.7755 C   0  0  0  0  0  0  0  0  0  0  0  0
   21.6420   20.3654   45.2047 C   0  0  0  0  0  0  0  0  0  0  0  0
   20.1810   23.8648   41.6095 P   0  0  1  0  0  0  0  0  0  0  0  0
   18.3482   23.3189   43.3500 P   0  0  1  0  0  0  0  0  0  0  0  0
   23.7279   19.7045   46.9602 C   0  0  0  0  0  0  0  0  0  0  0  0
   24.0120   22.1621   47.3979 C   0  0  0  0  0  0  0  0  0  0  0  0
   23.3887   20.9693   47.7063 C   0  0  0  0  0  0  0  0  0  0  0  0
   22.4360   20.9646   48.7265 C   0  0  0  0  0  0  0  0  0  0  0  0
   21.7820   19.7923   49.0748 N   0  0  0  0  0  0  0  0  0  0  0  0
   22.1687   22.1005   49.3641 N   0  0  0  0  0  0  0  0  0  0  0  0
   22.7839   23.2175   49.0342 C   0  0  0  0  0  0  0  0  0  0  0  0
   23.6887   23.2554   48.0756 N   0  0  0  0  0  0  0  0  0  0  0  0
   19.8432   24.6456   40.3979 O   0  0  0  0  0  0  0  0  0  0  0  0
   18.7782   24.7736   43.6452 O   0  0  0  0  0  0  0  0  0  0  0  0
   25.1684   20.4452   43.5017 S   0  0  0  0  0  0  0  0  0  0  0  0
   25.3007   20.0007   45.1757 C   0  0  0  0  0  0  0  0  0  0  0  0
   20.3994   24.8654   42.8500 O   0  0  0  0  0  0  0  0  0  0  0  0
   16.7426   23.2368   43.2740 O   0  5  0  0  0  0  0  0  0  0  0  0
   24.0482   20.0290   45.5685 N   0  0  0  0  0  0  0  0  0  0  0  0
   18.9779   22.8481   41.9448 O   0  0  0  0  0  0  0  0  0  0  0  0
   18.8577   22.3942   44.4782 O   0  0  0  0  0  0  0  0  0  0  0  0
   23.0758   20.3386   44.7387 C   0  0  2  0  0  0  0  0  0  0  0  0
   23.3932   20.6411   43.4540 C   0  0  2  0  0  0  0  0  0  0  0  0
   22.4978   21.0297   42.3068 C   0  0  0  0  0  0  0  0  0  0  0  0
   21.8703   22.3971   42.5871 C   0  0  0  0  0  0  0  0  0  0  0  0
   21.5320   23.0276   41.3501 O   0  0  0  0  0  0  0  0  0  0  0  0
  1 11  1  0  0  0  0
  3 13  1  6  0  0  0
  3 17  1  0  0  0  0
  3 20  1  0  0  0  0
  3 26  1  0  0  0  0
  4 14  1  0  0  0  0
  4 18  1  6  0  0  0
  4 21  2  0  0  0  0
  4 20  1  0  0  0  0
  5 19  1  0  0  0  0
  5  7  1  0  0  0  0
  6  7  2  0  0  0  0
  6 12  1  0  0  0  0
  7  8  1  0  0  0  0
  8  9  1  0  0  0  0
  8 10  2  0  0  0  0
 10 11  1  0  0  0  0
 11 12  2  0  0  0  0
 14 17  1  0  0  0  0
 15 23  1  0  0  0  0
 15 16  1  0  0  0  0
 16 19  1  0  0  0  0
 19 22  1  0  0  0  0
 22  2  1  1  0  0  0
 22 23  1  0  0  0  0
 23 24  1  6  0  0  0
 24 25  1  0  0  0  0
 25 26  1  0  0  0  0
M  CHG  1  18  -1
M  END
>  <CHROM.1>
105.36412101,-33.66859996,-113.28466067,154.56290914,145.26045960,174.78470770
21.61139036,22.24365285,44.66003041,0.81104313,-0.57036731,1.52597315

>  <Name>
ligand

>  <RI>
0

>  <Rbt.Current_Directory>
/home/itssahil/PROJECTS/Mol_Feturizer/New_Systems/rnas/2HOL

>  <Rbt.Executable>
rbdock ($Id: //depot/dev/client3/rdock/2013.1/src/exe/rbdock.cxx#4 $)

>  <Rbt.Library>
libRbt.so (2013.1, Build901 2013/11/27)

>  <Rbt.Parameter_File>
/export/apps/rDock/src/rDock_2013.1_src/data/scripts/dock_solv.prm

>  <Rbt.Receptor>
prm/blind_docking_60.prm

>  <SCORE>
7.99934

>  <SCORE.INTER>
-2.0237

>  <SCORE.INTER.CONST>
1

>  <SCORE.INTER.POLAR>
0

>  <SCORE.INTER.ROT>
6

>  <SCORE.INTER.SOLV>
11.5673

>  <SCORE.INTER.VDW>
-12.8049

>  <SCORE.INTER.norm>
-0.0778344

>  <SCORE.INTRA>
0.102898

>  <SCORE.INTRA.DIHEDRAL>
1.8876

>  <SCORE.INTRA.DIHEDRAL.0>
9.33621

>  <SCORE.INTRA.POLAR>
0

>  <SCORE.INTRA.POLAR.0>
0

>  <SCORE.INTRA.REPUL>
0

>  <SCORE.INTRA.REPUL.0>
0

>  <SCORE.INTRA.SOLV>
1.8319

>  <SCORE.INTRA.SOLV.lig_0>
-65.9238

>  <SCORE.INTRA.VDW>
-1.75685

>  <SCORE.INTRA.VDW.0>
-0.405582

>  <SCORE.INTRA.norm>
0.0039576

>  <SCORE.RESTR>
9.92013

>  <SCORE.RESTR.CAVITY>
9.92013

>  <SCORE.RESTR.norm>
0.381544

>  <SCORE.SYSTEM>
0

>  <SCORE.SYSTEM.CONST>
0

>  <SCORE.SYSTEM.DIHEDRAL>
0

>  <SCORE.SYSTEM.SOLV>
0

>  <SCORE.SYSTEM.norm>
0

>  <SCORE.heavy>
26

>  <SCORE.norm>
0.307667

>  <RMSD>
29.474

$$$$
ligand
 OpenBabel11021811443D
libRbt.so/2013.1/901 2013/11/27
 26 28  0  0  0  0  0  0  0  0999 V2000
   22.1587   24.1777   49.2671 C   0  0  0  0  0  0  0  0  0  0  0  0
   22.5823   20.0042   45.9347 C   0  0  0  0  0  0  0  0  0  0  0  0
   20.5299   23.3623   43.8833 P   0  0  1  0  0  0  0  0  0  0  0  0
   19.0414   24.1405   41.9173 P   0  0  1  0  0  0  0  0  0  0  0  0
   25.3199   20.4227   46.3817 C   0  0  0  0  0  0  0  0  0  0  0  0
   24.1106   22.6163   46.5756 C   0  0  0  0  0  0  0  0  0  0  0  0
   24.4832   21.4157   47.1466 C   0  0  0  0  0  0  0  0  0  0  0  0
   24.0649   21.1448   48.4506 C   0  0  0  0  0  0  0  0  0  0  0  0
   24.4130   19.9534   49.0693 N   0  0  0  0  0  0  0  0  0  0  0  0
   23.3319   22.0491   49.0935 N   0  0  0  0  0  0  0  0  0  0  0  0
   22.9949   23.1803   48.5087 C   0  0  0  0  0  0  0  0  0  0  0  0
   23.3741   23.4664   47.2785 N   0  0  0  0  0  0  0  0  0  0  0  0
   21.0253   24.3464   44.8721 O   0  0  0  0  0  0  0  0  0  0  0  0
   18.0959   24.0360   43.1351 O   0  0  0  0  0  0  0  0  0  0  0  0
   24.6573   20.2737   42.6235 S   0  0  0  0  0  0  0  0  0  0  0  0
   25.6858   20.4449   44.0128 C   0  0  0  0  0  0  0  0  0  0  0  0
   19.0184   22.9492   44.2473 O   0  0  0  0  0  0  0  0  0  0  0  0
   18.8268   25.5597   41.1891 O   0  5  0  0  0  0  0  0  0  0  0  0
   24.8321   20.3314   45.0038 N   0  0  0  0  0  0  0  0  0  0  0  0
   20.5687   24.0151   42.4116 O   0  0  0  0  0  0  0  0  0  0  0  0
   18.7265   22.9997   40.9237 O   0  0  0  0  0  0  0  0  0  0  0  0
   23.5502   20.1339   44.7857 C   0  0  2  0  0  0  0  0  0  0  0  0
   23.1166   20.0570   43.5017 C   0  0  2  0  0  0  0  0  0  0  0  0
   21.7248   19.8441   42.9664 C   0  0  0  0  0  0  0  0  0  0  0  0
   21.0002   21.1889   42.8741 C   0  0  0  0  0  0  0  0  0  0  0  0
   21.4667   22.0529   43.9123 O   0  0  0  0  0  0  0  0  0  0  0  0
  1 11  1  0  0  0  0
  3 13  1  1  0  0  0
  3 17  1  0  0  0  0
  3 20  1  0  0  0  0
  3 26  1  0  0  0  0
  4 14  1  0  0  0  0
  4 18  1  6  0  0  0
  4 21  2  0  0  0  0
  4 20  1  0  0  0  0
  5 19  1  0  0  0  0
  5  7  1  0  0  0  0
  6  7  2  0  0  0  0
  6 12  1  0  0  0  0
  7  8  1  0  0  0  0
  8  9  1  0  0  0  0
  8 10  2  0  0  0  0
 10 11  1  0  0  0  0
 11 12  2  0  0  0  0
 14 17  1  0  0  0  0
 15 23  1  0  0  0  0
 15 16  1  0  0  0  0
 16 19  1  0  0  0  0
 19 22  1  0  0  0  0
 22  2  1  6  0  0  0
 22 23  1  0  0  0  0
 23 24  1  1  0  0  0
 24 25  1  0  0  0  0
 25 26  1  0  0  0  0
M  CHG  1  18  -1
M  END
>  <CHROM.1>
129.58417053,-42.57794657,-94.59427177,-31.61039171,-172.45258602,-175.79513309
22.01695880,22.22123371,44.63232429,0.50590246,-0.70289621,1.22254097

>  <Name>
ligand

>  <RI>
0

>  <Rbt.Current_Directory>
/home/itssahil/PROJECTS/Mol_Feturizer/New_Systems/rnas/2HOL

>  <Rbt.Executable>
rbdock ($Id: //depot/dev/client3/rdock/2013.1/src/exe/rbdock.cxx#4 $)

>  <Rbt.Library>
libRbt.so (2013.1, Build901 2013/11/27)

>  <Rbt.Parameter_File>
/export/apps/rDock/src/rDock_2013.1_src/data/scripts/dock_solv.prm

>  <Rbt.Receptor>
prm/blind_docking_60.prm

>  <SCORE>
4.94758

>  <SCORE.INTER>
-6.7918

>  <SCORE.INTER.CONST>
1

>  <SCORE.INTER.POLAR>
0

>  <SCORE.INTER.ROT>
6

>  <SCORE.INTER.SOLV>
15.9946

>  <SCORE.INTER.VDW>
-17.4594

>  <SCORE.INTER.norm>
-0.261223

>  <SCORE.INTRA>
2.49505

>  <SCORE.INTRA.DIHEDRAL>
-1.70484

>  <SCORE.INTRA.DIHEDRAL.0>
9.33621

>  <SCORE.INTRA.POLAR>
0

>  <SCORE.INTRA.POLAR.0>
0

>  <SCORE.INTRA.REPUL>
0

>  <SCORE.INTRA.REPUL.0>
0

>  <SCORE.INTRA.SOLV>
1.92917

>  <SCORE.INTRA.SOLV.lig_0>
-65.9238

>  <SCORE.INTRA.VDW>
2.38288

>  <SCORE.INTRA.VDW.0>
-0.405582

>  <SCORE.INTRA.norm>
0.0959634

>  <SCORE.RESTR>
9.24433

>  <SCORE.RESTR.CAVITY>
9.24433

>  <SCORE.RESTR.norm>
0.355551

>  <SCORE.SYSTEM>
0

>  <SCORE.SYSTEM.CONST>
0

>  <SCORE.SYSTEM.DIHEDRAL>
0

>  <SCORE.SYSTEM.SOLV>
0

>  <SCORE.SYSTEM.norm>
0

>  <SCORE.heavy>
26

>  <SCORE.norm>
0.190292

>  <RMSD>
29.476

$$$$
ligand
 OpenBabel11021811443D
libRbt.so/2013.1/901 2013/11/27
 26 28  0  0  0  0  0  0  0  0999 V2000
   22.6189   24.1979   49.5235 C   0  0  0  0  0  0  0  0  0  0  0  0
   21.7942   20.4398   45.5032 C   0  0  0  0  0  0  0  0  0  0  0  0
   20.5619   23.7353   43.6123 P   0  0  1  0  0  0  0  0  0  0  0  0
   18.1040   23.1635   43.0484 P   0  0  1  0  0  0  0  0  0  0  0  0
   24.4487   19.9173   46.2452 C   0  0  0  0  0  0  0  0  0  0  0  0
   23.4681   20.8129   48.3779 C   0  0  0  0  0  0  0  0  0  0  0  0
   23.9646   21.0513   47.1118 C   0  0  0  0  0  0  0  0  0  0  0  0
   24.0072   22.3697   46.6549 C   0  0  0  0  0  0  0  0  0  0  0  0
   24.4965   22.6620   45.3905 N   0  0  0  0  0  0  0  0  0  0  0  0
   23.5660   23.3415   47.4482 N   0  0  0  0  0  0  0  0  0  0  0  0
   23.1045   23.0695   48.6515 C   0  0  0  0  0  0  0  0  0  0  0  0
   23.0506   21.8352   49.1126 N   0  0  0  0  0  0  0  0  0  0  0  0
   20.8707   24.8651   44.5177 O   0  0  0  0  0  0  0  0  0  0  0  0
   18.3651   22.5390   44.4376 O   0  0  0  0  0  0  0  0  0  0  0  0
   24.2942   20.6106   42.4928 S   0  0  0  0  0  0  0  0  0  0  0  0
   25.1277   20.2227   43.9667 C   0  0  0  0  0  0  0  0  0  0  0  0
   20.1700   22.4407   44.4829 O   0  0  0  0  0  0  0  0  0  0  0  0
   16.7362   24.0108   43.0874 O   0  5  0  0  0  0  0  0  0  0  0  0
   24.1493   20.2122   44.8422 N   0  0  0  0  0  0  0  0  0  0  0  0
   19.3274   24.1348   42.6583 O   0  0  0  0  0  0  0  0  0  0  0  0
   17.9828   22.0394   41.9951 O   0  0  0  0  0  0  0  0  0  0  0  0
   22.9072   20.4569   44.4859 C   0  0  2  0  0  0  0  0  0  0  0  0
   22.6504   20.7329   43.1819 C   0  0  2  0  0  0  0  0  0  0  0  0
   21.3433   21.0500   42.5040 C   0  0  0  0  0  0  0  0  0  0  0  0
   21.4550   22.3928   41.7783 C   0  0  0  0  0  0  0  0  0  0  0  0
   21.8518   23.4038   42.7070 O   0  0  0  0  0  0  0  0  0  0  0  0
  1 11  1  0  0  0  0
  3 13  1  1  0  0  0
  3 17  1  0  0  0  0
  3 20  1  0  0  0  0
  3 26  1  0  0  0  0
  4 14  1  0  0  0  0
  4 18  1  1  0  0  0
  4 21  2  0  0  0  0
  4 20  1  0  0  0  0
  5 19  1  0  0  0  0
  5  7  1  0  0  0  0
  6  7  2  0  0  0  0
  6 12  1  0  0  0  0
  7  8  1  0  0  0  0
  8  9  1  0  0  0  0
  8 10  2  0  0  0  0
 10 11  1  0  0  0  0
 11 12  2  0  0  0  0
 14 17  1  0  0  0  0
 15 23  1  0  0  0  0
 15 16  1  0  0  0  0
 16 19  1  0  0  0  0
 19 22  1  0  0  0  0
 22  2  1  1  0  0  0
 22 23  1  0  0  0  0
 23 24  1  6  0  0  0
 24 25  1  0  0  0  0
 25 26  1  0  0  0  0
M  CHG  1  18  -1
M  END
>  <CHROM.1>
123.48187669,145.70190406,-56.11297850,-56.07332645,-74.55431815,-174.92625116
21.68801725,22.25338394,44.60697058,0.48517580,-0.50803394,1.24231268

>  <Name>
ligand

>  <RI>
0

>  <Rbt.Current_Directory>
/home/itssahil/PROJECTS/Mol_Feturizer/New_Systems/rnas/2HOL

>  <Rbt.Executable>
rbdock ($Id: //depot/dev/client3/rdock/2013.1/src/exe/rbdock.cxx#4 $)

>  <Rbt.Library>
libRbt.so (2013.1, Build901 2013/11/27)

>  <Rbt.Parameter_File>
/export/apps/rDock/src/rDock_2013.1_src/data/scripts/dock_solv.prm

>  <Rbt.Receptor>
prm/blind_docking_60.prm

>  <SCORE>
4.91669

>  <SCORE.INTER>
-7.14679

>  <SCORE.INTER.CONST>
1

>  <SCORE.INTER.POLAR>
0

>  <SCORE.INTER.ROT>
6

>  <SCORE.INTER.SOLV>
17.0685

>  <SCORE.INTER.VDW>
-18.054

>  <SCORE.INTER.norm>
-0.274877

>  <SCORE.INTRA>
4.40073

>  <SCORE.INTRA.DIHEDRAL>
-3.09156

>  <SCORE.INTRA.DIHEDRAL.0>
9.33621

>  <SCORE.INTRA.POLAR>
0

>  <SCORE.INTRA.POLAR.0>
0

>  <SCORE.INTRA.REPUL>
0

>  <SCORE.INTRA.REPUL.0>
0

>  <SCORE.INTRA.SOLV>
7.44148

>  <SCORE.INTRA.SOLV.lig_0>
-65.9238

>  <SCORE.INTRA.VDW>
2.22577

>  <SCORE.INTRA.VDW.0>
-0.405582

>  <SCORE.INTRA.norm>
0.169259

>  <SCORE.RESTR>
7.66275

>  <SCORE.RESTR.CAVITY>
7.66275

>  <SCORE.RESTR.norm>
0.294721

>  <SCORE.SYSTEM>
0

>  <SCORE.SYSTEM.CONST>
0

>  <SCORE.SYSTEM.DIHEDRAL>
0

>  <SCORE.SYSTEM.SOLV>
0

>  <SCORE.SYSTEM.norm>
0

>  <SCORE.heavy>
26

>  <SCORE.norm>
0.189103

>  <RMSD>
29.500

$$$$
ligand
 OpenBabel11021811443D
libRbt.so/2013.1/901 2013/11/27
 26 28  0  0  0  0  0  0  0  0999 V2000
   22.4055   24.4438   49.7014 C   0  0  0  0  0  0  0  0  0  0  0  0
   21.2644   19.7236   43.9740 C   0  0  0  0  0  0  0  0  0  0  0  0
   20.9001   23.4969   42.0352 P   0  0  1  0  0  0  0  0  0  0  0  0
   18.9879   23.1379   43.7385 P   0  0  1  0  0  0  0  0  0  0  0  0
   22.5974   19.7795   46.4417 C   0  0  0  0  0  0  0  0  0  0  0  0
   21.4392   21.8365   47.3014 C   0  0  0  0  0  0  0  0  0  0  0  0
   22.5480   21.0138   47.3050 C   0  0  0  0  0  0  0  0  0  0  0  0
   23.6222   21.3543   48.1289 C   0  0  0  0  0  0  0  0  0  0  0  0
   24.7593   20.5612   48.1683 N   0  0  0  0  0  0  0  0  0  0  0  0
   23.5416   22.4543   48.8717 N   0  0  0  0  0  0  0  0  0  0  0  0
   22.4621   23.2085   48.8412 C   0  0  0  0  0  0  0  0  0  0  0  0
   21.4307   22.9148   48.0738 N   0  0  0  0  0  0  0  0  0  0  0  0
   20.6276   24.1744   40.7474 O   0  0  0  0  0  0  0  0  0  0  0  0
   19.4363   24.6051   43.9239 O   0  0  0  0  0  0  0  0  0  0  0  0
   25.0677   20.6018   43.6477 S   0  0  0  0  0  0  0  0  0  0  0  0
   24.6342   20.3411   45.3094 C   0  0  0  0  0  0  0  0  0  0  0  0
   21.0897   24.5984   43.1921 O   0  0  0  0  0  0  0  0  0  0  0  0
   17.3853   23.0776   43.6030 O   0  5  0  0  0  0  0  0  0  0  0  0
   23.3532   20.0670   45.2207 N   0  0  0  0  0  0  0  0  0  0  0  0
   19.6633   22.5348   42.4070 O   0  0  0  0  0  0  0  0  0  0  0  0
   19.4323   22.3068   44.9630 O   0  0  0  0  0  0  0  0  0  0  0  0
   22.7360   20.0415   44.0596 C   0  0  2  0  0  0  0  0  0  0  0  0
   23.4525   20.3155   42.9397 C   0  0  2  0  0  0  0  0  0  0  0  0
   23.0100   20.3614   41.5006 C   0  0  0  0  0  0  0  0  0  0  0  0
   21.8579   21.3575   41.3504 C   0  0  0  0  0  0  0  0  0  0  0  0
   22.2423   22.6166   41.9061 O   0  0  0  0  0  0  0  0  0  0  0  0
  1 11  1  0  0  0  0
  3 13  1  6  0  0  0
  3 17  1  0  0  0  0
  3 20  1  0  0  0  0
  3 26  1  0  0  0  0
  4 14  1  0  0  0  0
  4 18  1  6  0  0  0
  4 21  2  0  0  0  0
  4 20  1  0  0  0  0
  5 19  1  0  0  0  0
  5  7  1  0  0  0  0
  6  7  2  0  0  0  0
  6 12  1  0  0  0  0
  7  8  1  0  0  0  0
  8  9  1  0  0  0  0
  8 10  2  0  0  0  0
 10 11  1  0  0  0  0
 11 12  2  0  0  0  0
 14 17  1  0  0  0  0
 15 23  1  0  0  0  0
 15 16  1  0  0  0  0
 16 19  1  0  0  0  0
 19 22  1  0  0  0  0
 22  2  1  1  0  0  0
 22 23  1  0  0  0  0
 23 24  1  6  0  0  0
 24 25  1  0  0  0  0
 25 26  1  0  0  0  0
M  CHG  1  18  -1
M  END
>  <CHROM.1>
65.54136020,98.82890565,-123.61578623,52.97141389,-166.89373830,-84.85551186
21.79590315,22.08604316,44.57992823,0.89645275,-0.63566028,1.40997319

>  <Name>
ligand

>  <RI>
0

>  <Rbt.Current_Directory>
/home/itssahil/PROJECTS/Mol_Feturizer/New_Systems/rnas/2HOL

>  <Rbt.Executable>
rbdock ($Id: //depot/dev/client3/rdock/2013.1/src/exe/rbdock.cxx#4 $)

>  <Rbt.Library>
libRbt.so (2013.1, Build901 2013/11/27)

>  <Rbt.Parameter_File>
/export/apps/rDock/src/rDock_2013.1_src/data/scripts/dock_solv.prm

>  <Rbt.Receptor>
prm/blind_docking_60.prm

>  <SCORE>
11.1098

>  <SCORE.INTER>
2.17116

>  <SCORE.INTER.CONST>
1

>  <SCORE.INTER.POLAR>
0

>  <SCORE.INTER.ROT>
6

>  <SCORE.INTER.SOLV>
18.3368

>  <SCORE.INTER.VDW>
-12.2648

>  <SCORE.INTER.norm>
0.0835061

>  <SCORE.INTRA>
-1.47582

>  <SCORE.INTRA.DIHEDRAL>
-2.88737

>  <SCORE.INTRA.DIHEDRAL.0>
9.33621

>  <SCORE.INTRA.POLAR>
0

>  <SCORE.INTRA.POLAR.0>
0

>  <SCORE.INTRA.REPUL>
0

>  <SCORE.INTRA.REPUL.0>
0

>  <SCORE.INTRA.SOLV>
3.34423

>  <SCORE.INTRA.SOLV.lig_0>
-65.9238

>  <SCORE.INTRA.VDW>
-1.70425

>  <SCORE.INTRA.VDW.0>
-0.405582

>  <SCORE.INTRA.norm>
-0.0567624

>  <SCORE.RESTR>
10.4145

>  <SCORE.RESTR.CAVITY>
10.4145

>  <SCORE.RESTR.norm>
0.400558

>  <SCORE.SYSTEM>
0

>  <SCORE.SYSTEM.CONST>
0

>  <SCORE.SYSTEM.DIHEDRAL>
0

>  <SCORE.SYSTEM.SOLV>
0

>  <SCORE.SYSTEM.norm>
0

>  <SCORE.heavy>
26

>  <SCORE.norm>
0.427301

>  <RMSD>
29.565

$$$$
ligand
 OpenBabel11021811443D
libRbt.so/2013.1/901 2013/11/27
 26 28  0  0  0  0  0  0  0  0999 V2000
   21.9839   24.2736   48.8707 C   0  0  0  0  0  0  0  0  0  0  0  0
   22.4196   19.9082   45.5575 C   0  0  0  0  0  0  0  0  0  0  0  0
   20.4577   23.3687   41.9514 P   0  0  1  0  0  0  0  0  0  0  0  0
   18.1832   23.5518   43.1677 P   0  0  1  0  0  0  0  0  0  0  0  0
   25.1273   20.4725   46.0265 C   0  0  0  0  0  0  0  0  0  0  0  0
   23.9513   22.6852   46.2063 C   0  0  0  0  0  0  0  0  0  0  0  0
   24.2953   21.4777   46.7805 C   0  0  0  0  0  0  0  0  0  0  0  0
   23.8525   21.2113   48.0773 C   0  0  0  0  0  0  0  0  0  0  0  0
   24.1714   20.0132   48.6988 N   0  0  0  0  0  0  0  0  0  0  0  0
   23.1246   22.1263   48.7107 N   0  0  0  0  0  0  0  0  0  0  0  0
   22.8153   23.2639   48.1232 C   0  0  0  0  0  0  0  0  0  0  0  0
   23.2181   23.5461   46.8996 N   0  0  0  0  0  0  0  0  0  0  0  0
   20.7711   24.2775   40.8256 O   0  0  0  0  0  0  0  0  0  0  0  0
   19.0598   24.6786   43.7592 O   0  0  0  0  0  0  0  0  0  0  0  0
   24.4885   20.3632   42.2628 S   0  0  0  0  0  0  0  0  0  0  0  0
   25.5004   20.5640   43.6604 C   0  0  0  0  0  0  0  0  0  0  0  0
   20.7305   24.1252   43.3447 O   0  0  0  0  0  0  0  0  0  0  0  0
   16.7500   24.1500   42.7451 O   0  5  0  0  0  0  0  0  0  0  0  0
   24.6507   20.3818   44.6446 N   0  0  0  0  0  0  0  0  0  0  0  0
   18.9100   22.9308   41.8720 O   0  0  0  0  0  0  0  0  0  0  0  0
   17.9862   22.4448   44.2277 O   0  0  0  0  0  0  0  0  0  0  0  0
   23.3830   20.1163   44.4162 C   0  0  2  0  0  0  0  0  0  0  0  0
   22.9593   20.0412   43.1288 C   0  0  2  0  0  0  0  0  0  0  0  0
   21.5840   19.7606   42.5824 C   0  0  0  0  0  0  0  0  0  0  0  0
   20.7445   21.0394   42.6264 C   0  0  0  0  0  0  0  0  0  0  0  0
   21.3895   22.0585   41.8601 O   0  0  0  0  0  0  0  0  0  0  0  0
  1 11  1  0  0  0  0
  3 13  1  6  0  0  0
  3 17  1  0  0  0  0
  3 20  1  0  0  0  0
  3 26  1  0  0  0  0
  4 14  1  0  0  0  0
  4 18  1  6  0  0  0
  4 21  2  0  0  0  0
  4 20  1  0  0  0  0
  5 19  1  0  0  0  0
  5  7  1  0  0  0  0
  6  7  2  0  0  0  0
  6 12  1  0  0  0  0
  7  8  1  0  0  0  0
  8  9  1  0  0  0  0
  8 10  2  0  0  0  0
 10 11  1  0  0  0  0
 11 12  2  0  0  0  0
 14 17  1  0  0  0  0
 15 23  1  0  0  0  0
 15 16  1  0  0  0  0
 16 19  1  0  0  0  0
 19 22  1  0  0  0  0
 22  2  1  1  0  0  0
 22 23  1  0  0  0  0
 23 24  1  6  0  0  0
 24 25  1  0  0  0  0
 25 26  1  0  0  0  0
M  CHG  1  18  -1
M  END
>  <CHROM.1>
125.42347300,-43.14190360,-99.44399317,58.68073812,-179.92242468,-159.41027722
21.75950755,22.14881353,44.29033533,0.49529648,-0.57924250,1.30112931

>  <Name>
ligand

>  <RI>
0

>  <Rbt.Current_Directory>
/home/itssahil/PROJECTS/Mol_Feturizer/New_Systems/rnas/2HOL

>  <Rbt.Executable>
rbdock ($Id: //depot/dev/client3/rdock/2013.1/src/exe/rbdock.cxx#4 $)

>  <Rbt.Library>
libRbt.so (2013.1, Build901 2013/11/27)

>  <Rbt.Parameter_File>
/export/apps/rDock/src/rDock_2013.1_src/data/scripts/dock_solv.prm

>  <Rbt.Receptor>
prm/blind_docking_60.prm

>  <SCORE>
7.58422

>  <SCORE.INTER>
-2.37416

>  <SCORE.INTER.CONST>
1

>  <SCORE.INTER.POLAR>
0

>  <SCORE.INTER.ROT>
6

>  <SCORE.INTER.SOLV>
13.7437

>  <SCORE.INTER.VDW>
-13.764

>  <SCORE.INTER.norm>
-0.0913137

>  <SCORE.INTRA>
-0.193719

>  <SCORE.INTRA.DIHEDRAL>
-3.97269

>  <SCORE.INTRA.DIHEDRAL.0>
9.33621

>  <SCORE.INTRA.POLAR>
0

>  <SCORE.INTRA.POLAR.0>
0

>  <SCORE.INTRA.REPUL>
0

>  <SCORE.INTRA.REPUL.0>
0

>  <SCORE.INTRA.SOLV>
1.53698

>  <SCORE.INTRA.SOLV.lig_0>
-65.9238

>  <SCORE.INTRA.VDW>
1.02414

>  <SCORE.INTRA.VDW.0>
-0.405582

>  <SCORE.INTRA.norm>
-0.00745073

>  <SCORE.RESTR>
10.1521

>  <SCORE.RESTR.CAVITY>
10.1521

>  <SCORE.RESTR.norm>
0.390465

>  <SCORE.SYSTEM>
0

>  <SCORE.SYSTEM.CONST>
0

>  <SCORE.SYSTEM.DIHEDRAL>
0

>  <SCORE.SYSTEM.SOLV>
0

>  <SCORE.SYSTEM.norm>
0

>  <SCORE.heavy>
26

>  <SCORE.norm>
0.291701

>  <RMSD>
29.808

$$$$
ligand
 OpenBabel11021811443D
libRbt.so/2013.1/901 2013/11/27
 26 28  0  0  0  0  0  0  0  0999 V2000
   23.0683   22.5657   50.5726 C   0  0  0  0  0  0  0  0  0  0  0  0
   20.6355   24.6679   44.0838 C   0  0  0  0  0  0  0  0  0  0  0  0
   19.5257   24.2511   39.5122 P   0  0  1  0  0  0  0  0  0  0  0  0
   18.4749   26.2682   38.2820 P   0  0  1  0  0  0  0  0  0  0  0  0
   22.9324   23.2960   44.9276 C   0  0  0  0  0  0  0  0  0  0  0  0
   22.1454   23.8353   47.2517 C   0  0  0  0  0  0  0  0  0  0  0  0
   22.9695   23.1017   46.4216 C   0  0  0  0  0  0  0  0  0  0  0  0
   23.8377   22.1751   47.0013 C   0  0  0  0  0  0  0  0  0  0  0  0
   24.6860   21.4138   46.2112 N   0  0  0  0  0  0  0  0  0  0  0  0
   23.8437   22.0370   48.3239 N   0  0  0  0  0  0  0  0  0  0  0  0
   23.0368   22.7545   49.0784 C   0  0  0  0  0  0  0  0  0  0  0  0
   22.2053   23.6382   48.5620 N   0  0  0  0  0  0  0  0  0  0  0  0
   19.6827   22.9562   38.8121 O   0  0  0  0  0  0  0  0  0  0  0  0
   19.9444   26.2144   37.8068 O   0  0  0  0  0  0  0  0  0  0  0  0
   20.3923   20.7939   43.5590 S   0  0  0  0  0  0  0  0  0  0  0  0
   21.9181   21.2268   44.2674 C   0  0  0  0  0  0  0  0  0  0  0  0
   20.7333   25.2324   39.1040 O   0  0  0  0  0  0  0  0  0  0  0  0
   17.5012   26.3990   37.0071 O   0  5  0  0  0  0  0  0  0  0  0  0
   21.8175   22.5324   44.3629 N   0  0  0  0  0  0  0  0  0  0  0  0
   18.1232   24.9214   39.0914 O   0  0  0  0  0  0  0  0  0  0  0  0
   18.2788   27.4907   39.2064 O   0  0  0  0  0  0  0  0  0  0  0  0
   20.7365   23.1679   43.9662 C   0  0  2  0  0  0  0  0  0  0  0  0
   19.7159   22.4433   43.4411 C   0  0  2  0  0  0  0  0  0  0  0  0
   18.3827   22.9016   42.9105 C   0  0  0  0  0  0  0  0  0  0  0  0
   18.4766   23.1059   41.3967 C   0  0  0  0  0  0  0  0  0  0  0  0
   19.5458   24.0076   41.1039 O   0  0  0  0  0  0  0  0  0  0  0  0
  1 11  1  0  0  0  0
  3 13  1  6  0  0  0
  3 17  1  0  0  0  0
  3 20  1  0  0  0  0
  3 26  1  0  0  0  0
  4 14  1  0  0  0  0
  4 18  1  6  0  0  0
  4 21  2  0  0  0  0
  4 20  1  0  0  0  0
  5 19  1  0  0  0  0
  5  7  1  0  0  0  0
  6  7  2  0  0  0  0
  6 12  1  0  0  0  0
  7  8  1  0  0  0  0
  8  9  1  0  0  0  0
  8 10  2  0  0  0  0
 10 11  1  0  0  0  0
 11 12  2  0  0  0  0
 14 17  1  0  0  0  0
 15 23  1  0  0  0  0
 15 16  1  0  0  0  0
 16 19  1  0  0  0  0
 19 22  1  0  0  0  0
 22  2  1  6  0  0  0
 22 23  1  0  0  0  0
 23 24  1  1  0  0  0
 24 25  1  0  0  0  0
 25 26  1  0  0  0  0
M  CHG  1  18  -1
M  END
>  <CHROM.1>
-74.42811360,-81.71043670,-86.14604659,-55.01389989,-176.38240854,-58.46302492
20.60407180,23.69505820,42.75425004,-0.30192435,-1.13697318,0.00125437

>  <Name>
ligand

>  <RI>
0

>  <Rbt.Current_Directory>
/home/itssahil/PROJECTS/Mol_Feturizer/New_Systems/rnas/2HOL

>  <Rbt.Executable>
rbdock ($Id: //depot/dev/client3/rdock/2013.1/src/exe/rbdock.cxx#4 $)

>  <Rbt.Library>
libRbt.so (2013.1, Build901 2013/11/27)

>  <Rbt.Parameter_File>
/export/apps/rDock/src/rDock_2013.1_src/data/scripts/dock_solv.prm

>  <Rbt.Receptor>
prm/blind_docking_80.prm

>  <SCORE>
-7.33174

>  <SCORE.INTER>
-7.76

>  <SCORE.INTER.CONST>
1

>  <SCORE.INTER.POLAR>
0

>  <SCORE.INTER.ROT>
6

>  <SCORE.INTER.SOLV>
15.9096

>  <SCORE.INTER.VDW>
-18.0765

>  <SCORE.INTER.norm>
-0.298462

>  <SCORE.INTRA>
-3.88515

>  <SCORE.INTRA.DIHEDRAL>
-4.24751

>  <SCORE.INTRA.DIHEDRAL.0>
9.33621

>  <SCORE.INTRA.POLAR>
0

>  <SCORE.INTRA.POLAR.0>
0

>  <SCORE.INTRA.REPUL>
0

>  <SCORE.INTRA.REPUL.0>
0

>  <SCORE.INTRA.SOLV>
0.676557

>  <SCORE.INTRA.SOLV.lig_0>
-65.9238

>  <SCORE.INTRA.VDW>
-2.09968

>  <SCORE.INTRA.VDW.0>
-0.405582

>  <SCORE.INTRA.norm>
-0.149429

>  <SCORE.RESTR>
4.31342

>  <SCORE.RESTR.CAVITY>
4.31342

>  <SCORE.RESTR.norm>
0.165901

>  <SCORE.SYSTEM>
0

>  <SCORE.SYSTEM.CONST>
0

>  <SCORE.SYSTEM.DIHEDRAL>
0

>  <SCORE.SYSTEM.SOLV>
0

>  <SCORE.SYSTEM.norm>
0

>  <SCORE.heavy>
26

>  <SCORE.norm>
-0.28199

>  <RMSD>
30.171

$$$$
