@<TRIPOS>MOLECULE
2HOL_rdock.pdb
 1685 1882 0 0 0
SMALL
GASTEIGER

@<TRIPOS>ATOM
      1  C5'       36.5800   38.4280   40.1240 C.3     9  G9          0.0000
      2  O5'       36.1720   37.0820   39.8000 O.3     9  G9          0.0000
      3  C4'       35.6390   39.4800   39.5800 C.3     9  G9          0.0000
      4  O4'       35.5710   39.3700   38.1310 O.3     9  G9          0.0000
      5  C3'       34.1870   39.3860   40.0280 C.3     9  G9          0.0000
      6  O3'       33.9900   40.0820   41.2490 O.3     9  G9          0.0000
      7  C2'       33.4820   40.1570   38.9290 C.3     9  G9          0.0000
      8  O2'       33.6640   41.5400   39.1390 O.3     9  G9          0.0000
      9  C1'       34.2620   39.7040   37.6940 C.3     9  G9          0.0000
     10  N1        30.8860   37.9680   34.3240 N.ar    9  G9          0.0000
     11  C2        31.1410   39.2620   34.7060 C.ar    9  G9          0.0000
     12  N2        30.3950   40.2150   34.1080 N.pl3   9  G9          0.0000
     13  N3        32.0530   39.5980   35.6080 N.ar    9  G9          0.0000
     14  C4        32.6860   38.5180   36.1070 C.ar    9  G9          0.0000
     15  C5        32.4950   37.1890   35.7940 C.ar    9  G9          0.0000
     16  C6        31.5290   36.8440   34.8270 C.ar    9  G9          0.0000
     17  O6        31.2230   35.7170   34.4140 O.2     9  G9          0.0000
     18  N7        33.3470   36.3820   36.5290 N.ar    9  G9          0.0000
     19  C8        34.0300   37.2200   37.2600 C.ar    9  G9          0.0000
     20  N9        33.6820   38.5300   37.0500 N.ar    9  G9          0.0000
     21  P         32.6360   39.8610   42.0880 P.3    10  C10         0.0000
     22  C5'       31.2330   41.8160   41.0110 C.3    10  C10         0.0000
     23  O5'       31.4680   40.4160   41.1530 O.3    10  C10         0.0000
     24  C4'       30.0500   42.0660   40.0880 C.3    10  C10         0.0000
     25  O4'       30.3240   41.4650   38.7930 O.3    10  C10         0.0000
     26  C3'       28.7230   41.4400   40.4870 C.3    10  C10         0.0000
     27  O3'       28.0000   42.2310   41.4120 O.3    10  C10         0.0000
     28  C2'       27.9850   41.3790   39.1590 C.3    10  C10         0.0000
     29  O2'       27.4590   42.6330   38.7930 O.3    10  C10         0.0000
     30  C1'       29.1150   41.0120   38.2040 C.3    10  C10         0.0000
     31  N1        29.2100   39.5620   37.9890 N.ar   10  C10         0.0000
     32  C2        28.4570   38.9910   36.9570 C.ar   10  C10         0.0000
     33  O2        27.7480   39.7300   36.2490 O.2    10  C10         0.0000
     34  N3        28.5220   37.6510   36.7600 N.ar   10  C10         0.0000
     35  C4        29.2970   36.8950   37.5430 C.ar   10  C10         0.0000
     36  N4        29.3270   35.5860   37.3070 N.pl3  10  C10         0.0000
     37  C5        30.0720   37.4500   38.5960 C.ar   10  C10         0.0000
     38  C6        30.0040   38.7770   38.7810 C.ar   10  C10         0.0000
     39  OP1       32.7200   40.7240   43.2930 O.3    10  C10        -0.5000
     40  OP2       32.4660   38.3870   42.2350 O.co2  10  C10        -0.5000
     41  P         26.8490   41.5440   42.2930 P.3    11  G11         0.0000
     42  C5'       25.0580   41.9970   40.4610 C.3    11  G11         0.0000
     43  O5'       25.7860   41.0520   41.2200 O.3    11  G11         0.0000
     44  C4'       24.0930   41.2990   39.5360 C.3    11  G11         0.0000
     45  O4'       24.8220   40.4920   38.5730 O.3    11  G11         0.0000
     46  C3'       23.1410   40.3100   40.1810 C.3    11  G11         0.0000
     47  O3'       22.0180   40.9810   40.7400 O.3    11  G11         0.0000
     48  C2'       22.7160   39.4810   38.9820 C.3    11  G11         0.0000
     49  O2'       21.7480   40.1910   38.2410 O.3    11  G11         0.0000
     50  C1'       24.0260   39.3870   38.1900 C.3    11  G11         0.0000
     51  N1        24.6000   34.4640   37.0560 N.ar   11  G11         0.0000
     52  C2        23.6810   35.3670   36.5780 C.ar   11  G11         0.0000
     53  N2        22.7990   34.8980   35.6810 N.pl3  11  G11         0.0000
     54  N3        23.6290   36.6340   36.9490 N.ar   11  G11         0.0000
     55  C4        24.5880   36.9370   37.8470 C.ar   11  G11         0.0000
     56  C5        25.5540   36.1140   38.3820 C.ar   11  G11         0.0000
     57  C6        25.5960   34.7520   37.9800 C.ar   11  G11         0.0000
     58  O6        26.3710   33.8620   38.3450 O.2    11  G11         0.0000
     59  N7        26.3550   36.8100   39.2730 N.ar   11  G11         0.0000
     60  C8        25.8670   38.0210   39.2670 C.ar   11  G11         0.0000
     61  N9        24.7940   38.1670   38.4260 N.ar   11  G11         0.0000
     62  OP1       26.2020   42.5920   43.1240 O.3    11  G11        -0.5000
     63  OP2       27.4420   40.3430   42.9560 O.co2  11  G11        -0.5000
     64  P         21.1010   40.2320   41.8310 P.3    12  A12         0.0000
     65  C5'       19.3980   39.4510   40.0010 C.3    12  A12         0.0000
     66  O5'       20.3580   39.0990   40.9920 O.3    12  A12         0.0000
     67  C4'       19.0550   38.2590   39.1410 C.3    12  A12         0.0000
     68  O4'       20.2660   37.7470   38.5280 O.3    12  A12         0.0000
     69  C3'       18.4670   37.0530   39.8490 C.3    12  A12         0.0000
     70  O3'       17.0650   37.2140   40.0140 O.3    12  A12         0.0000
     71  C2'       18.7610   35.9500   38.8470 C.3    12  A12         0.0000
     72  O2'       17.8550   36.0100   37.7670 O.3    12  A12         0.0000
     73  C1'       20.1530   36.3490   38.3520 C.3    12  A12         0.0000
     74  N1        22.9360   32.0600   39.0850 N.ar   12  A12         0.0000
     75  C2        21.8820   32.3150   38.2990 C.ar   12  A12         0.0000
     76  N3        21.1890   33.4440   38.1600 N.ar   12  A12         0.0000
     77  C4        21.6890   34.4110   38.9540 C.ar   12  A12         0.0000
     78  C5        22.7650   34.2980   39.8140 C.ar   12  A12         0.0000
     79  C6        23.4080   33.0510   39.8740 C.ar   12  A12         0.0000
     80  N6        24.4520   32.7990   40.6680 N.pl3  12  A12         0.0000
     81  N7        22.9970   35.4970   40.4710 N.ar   12  A12         0.0000
     82  C8        22.0730   36.2970   40.0010 C.ar   12  A12         0.0000
     83  N9        21.2530   35.7120   39.0730 N.ar   12  A12         0.0000
     84  OP1       20.0920   41.2180   42.3120 O.2    12  A12        -0.5000
     85  OP2       21.9890   39.5610   42.8120 O.co2  12  A12        -0.5000
     86  P         16.2890   36.4000   41.1690 P.3    13  C13         0.0000
     87  C5'       15.3860   34.4750   39.6430 C.3    13  C13         0.0000
     88  O5'       16.2850   34.8890   40.6660 O.3    13  C13         0.0000
     89  C4'       15.6430   33.0400   39.2650 C.3    13  C13         0.0000
     90  O4'       17.0370   32.9140   38.8790 O.3    13  C13         0.0000
     91  C3'       15.4800   32.0180   40.3800 C.3    13  C13         0.0000
     92  O3'       14.1160   31.6150   40.5120 O.3    13  C13         0.0000
     93  C2'       16.3570   30.8800   39.8790 C.3    13  C13         0.0000
     94  O2'       15.7260   30.1810   38.8280 O.3    13  C13         0.0000
     95  C1'       17.5400   31.6560   39.2990 C.3    13  C13         0.0000
     96  N1        18.6480   31.8970   40.2410 N.ar   13  C13         0.0000
     97  C2        19.5730   30.8760   40.4790 C.ar   13  C13         0.0000
     98  O2        19.4240   29.7860   39.9100 O.2    13  C13         0.0000
     99  N3        20.6080   31.1060   41.3250 N.ar   13  C13         0.0000
    100  C4        20.7320   32.2970   41.9220 C.ar   13  C13         0.0000
    101  N4        21.7680   32.4840   42.7420 N.pl3  13  C13         0.0000
    102  C5        19.7990   33.3490   41.7030 C.ar   13  C13         0.0000
    103  C6        18.7810   33.1080   40.8650 C.ar   13  C13         0.0000
    104  OP1       14.8700   36.8420   41.1490 O.2    13  C13        -0.5000
    105  OP2       17.0710   36.5050   42.4310 O.co2  13  C13        -0.5000
    106  P         13.5150   31.2730   41.9700 P.3    14  U14         0.0000
    107  C5'       13.7180   28.7210   41.4570 C.3    14  U14         0.0000
    108  O5'       14.0960   29.8230   42.2660 O.3    14  U14         0.0000
    109  C4'       14.6850   27.5870   41.6520 C.3    14  U14         0.0000
    110  O4'       16.0140   28.0360   41.2760 O.3    14  U14         0.0000
    111  C3'       14.8620   27.1450   43.0860 C.3    14  U14         0.0000
    112  O3'       13.8290   26.2700   43.4910 O.3    14  U14         0.0000
    113  C2'       16.2230   26.4720   43.0280 C.3    14  U14         0.0000
    114  O2'       16.1890   25.2000   42.4170 O.3    14  U14         0.0000
    115  C1'       16.9800   27.4430   42.1250 C.3    14  U14         0.0000
    116  N1        17.6500   28.5190   42.8700 N.ar   14  U14         0.0000
    117  C2        18.8510   28.2200   43.4930 C.ar   14  U14         0.0000
    118  O2        19.3500   27.1050   43.4670 O.2    14  U14         0.0000
    119  N3        19.4410   29.2750   44.1480 N.ar   14  U14         0.0000
    120  C4        18.9570   30.5650   44.2450 C.ar   14  U14         0.0000
    121  O4        19.6080   31.4130   44.8590 O.2    14  U14         0.0000
    122  C5        17.7040   30.7840   43.5880 C.ar   14  U14         0.0000
    123  C6        17.1090   29.7790   42.9410 C.ar   14  U14         0.0000
    124  OP1       12.0380   31.1570   41.8400 O.2    14  U14        -0.5000
    125  OP2       14.0850   32.2120   42.9740 O.co2  14  U14        -0.5000
    126  P         13.2280   26.3990   44.9760 P.3    15  C15         0.0000
    127  C5'       14.5680   24.2520   45.6440 C.3    15  C15         0.0000
    128  O5'       14.2980   25.6300   45.8750 O.3    15  C15         0.0000
    129  C4'       15.9490   23.8850   46.1330 C.3    15  C15         0.0000
    130  O4'       16.9460   24.6800   45.4340 O.3    15  C15         0.0000
    131  C3'       16.2570   24.1630   47.5950 C.3    15  C15         0.0000
    132  O3'       15.7180   23.1680   48.4570 O.3    15  C15         0.0000
    133  C2'       17.7780   24.1420   47.5800 C.3    15  C15         0.0000
    134  O2'       18.3030   22.8390   47.4460 O.3    15  C15         0.0000
    135  C1'       18.0580   24.9060   46.2920 C.3    15  C15         0.0000
    136  N1        18.1550   26.3380   46.5800 N.ar   15  C15         0.0000
    137  C2        19.3460   26.8220   47.0970 C.ar   15  C15         0.0000
    138  O2        20.2860   26.0340   47.2510 O.2    15  C15         0.0000
    139  N3        19.4490   28.1310   47.4160 N.ar   15  C15         0.0000
    140  C4        18.4090   28.9430   47.2290 C.ar   15  C15         0.0000
    141  N4        18.5470   30.2230   47.5700 N.pl3  15  C15         0.0000
    142  C5        17.1800   28.4760   46.6850 C.ar   15  C15         0.0000
    143  C6        17.0990   27.1780   46.3730 C.ar   15  C15         0.0000
    144  OP1       11.9370   25.6550   45.0440 O.2    15  C15        -0.5000
    145  OP2       13.2580   27.8500   45.3140 O.co2  15  C15        -0.5000
    146  P         15.2080   23.5830   49.9270 P.3    16  G16         0.0000
    147  C5'       17.5890   23.0420   50.8880 C.3    16  G16         0.0000
    148  O5'       16.5380   23.9860   50.7110 O.3    16  G16         0.0000
    149  C4'       18.8670   23.7360   51.3070 C.3    16  G16         0.0000
    150  O4'       19.1720   24.7920   50.3550 O.3    16  G16         0.0000
    151  C3'       18.8790   24.4660   52.6450 C.3    16  G16         0.0000
    152  O3'       19.0710   23.5530   53.7300 O.3    16  G16         0.0000
    153  C2'       20.0810   25.3900   52.4670 C.3    16  G16         0.0000
    154  O2'       21.3090   24.7090   52.6020 O.3    16  G16         0.0000
    155  C1'       19.9310   25.8020   51.0010 C.3    16  G16         0.0000
    156  N1        20.3510   30.7850   51.6590 N.ar   16  G16         0.0000
    157  C2        21.2220   29.7730   51.9850 C.ar   16  G16         0.0000
    158  N2        22.3720   30.1370   52.5660 N.pl3  16  G16         0.0000
    159  N3        20.9870   28.5000   51.7630 N.ar   16  G16         0.0000
    160  C4        19.7900   28.3040   51.1830 C.ar   16  G16         0.0000
    161  C5        18.8400   29.2360   50.8210 C.ar   16  G16         0.0000
    162  C6        19.1080   30.6120   51.0580 C.ar   16  G16         0.0000
    163  O6        18.3980   31.6010   50.7980 O.2    16  G16         0.0000
    164  N7        17.7340   28.6170   50.2590 N.ar   16  G16         0.0000
    165  C8        18.0340   27.3460   50.2830 C.ar   16  G16         0.0000
    166  N9        19.2700   27.0920   50.8270 N.ar   16  G16         0.0000
    167  OP1       14.6330   22.3560   50.5340 O.3    16  G16        -0.5000
    168  OP2       14.3680   24.8070   49.8010 O.co2  16  G16        -0.5000
    169  P         18.7610   24.0150   55.2460 P.3    17  G17         0.0000
    170  C5'       21.2060   24.7340   55.7890 C.3    17  G17         0.0000
    171  O5'       19.8630   25.1120   55.5610 O.3    17  G17         0.0000
    172  C4'       21.9660   25.8840   56.3840 C.3    17  G17         0.0000
    173  O4'       22.0930   26.9550   55.4100 O.3    17  G17         0.0000
    174  C3'       21.2670   26.5540   57.5480 C.3    17  G17         0.0000
    175  O3'       21.4270   25.7940   58.7400 O.3    17  G17         0.0000
    176  C2'       21.9480   27.9200   57.5590 C.3    17  G17         0.0000
    177  O2'       23.2730   27.9040   58.0540 O.3    17  G17         0.0000
    178  C1'       22.0170   28.2140   56.0630 C.3    17  G17         0.0000
    179  N1        19.7290   32.7110   55.5230 N.ar   17  G17         0.0000
    180  C2        20.9170   32.4090   56.1380 C.ar   17  G17         0.0000
    181  N2        21.5890   33.4430   56.6780 N.pl3  17  G17         0.0000
    182  N3        21.4120   31.1870   56.2210 N.ar   17  G17         0.0000
    183  C4        20.6090   30.2780   55.6390 C.ar   17  G17         0.0000
    184  C5        19.4030   30.4770   55.0050 C.ar   17  G17         0.0000
    185  C6        18.8880   31.7890   54.9110 C.ar   17  G17         0.0000
    186  O6        17.8430   32.1720   54.3710 O.2    17  G17         0.0000
    187  N7        18.8890   29.2770   54.5390 N.ar   17  G17         0.0000
    188  C8        19.7770   28.3860   54.8900 C.ar   17  G17         0.0000
    189  N9        20.8480   28.9250   55.5550 N.ar   17  G17         0.0000
    190  OP1       19.0600   22.8500   56.1070 O.3    17  G17        -0.5000
    191  OP2       17.4190   24.6550   55.3200 O.co2  17  G17        -0.5000
    192  P         20.6780   26.2570   60.0750 P.3    18  G18         0.0000
    193  C5'       20.8730   28.4730   61.3790 C.3    18  G18         0.0000
    194  O5'       21.3820   27.6390   60.3860 O.3    18  G18         0.0000
    195  C4'       21.4550   29.8400   61.2350 C.3    18  G18         0.0000
    196  O4'       21.3210   30.3020   59.8710 O.3    18  G18         0.0000
    197  C3'       20.7120   30.8530   62.0720 C.3    18  G18         0.0000
    198  O3'       21.2550   30.8120   63.3780 O.3    18  G18         0.0000
    199  C2'       20.9770   32.1520   61.3240 C.3    18  G18         0.0000
    200  O2'       22.2540   32.6700   61.6440 O.3    18  G18         0.0000
    201  C1'       20.9490   31.6670   59.8690 C.3    18  G18         0.0000
    202  N1        17.3940   34.6880   57.8290 N.ar   18  G18         0.0000
    203  C2        18.5220   35.0380   58.5140 C.ar   18  G18         0.0000
    204  N2        18.7460   36.3560   58.6240 N.pl3  18  G18         0.0000
    205  N3        19.3670   34.1660   59.0450 N.ar   18  G18         0.0000
    206  C4        18.9800   32.8940   58.8170 C.ar   18  G18         0.0000
    207  C5        17.8640   32.4440   58.1430 C.ar   18  G18         0.0000
    208  C6        16.9740   33.3900   57.5880 C.ar   18  G18         0.0000
    209  O6        15.9380   33.1910   56.9530 O.2    18  G18         0.0000
    210  N7        17.8190   31.0570   58.1320 N.ar   18  G18         0.0000
    211  C8        18.8940   30.6920   58.7790 C.ar   18  G18         0.0000
    212  N9        19.6560   31.7530   59.2000 N.ar   18  G18         0.0000
    213  OP1       21.0130   25.3380   61.1870 O.3    18  G18        -0.5000
    214  OP2       19.2680   26.5160   59.7450 O.co2  18  G18        -0.5000
    215  P         20.3320   30.3470   64.5940 P.3    19  G19         0.0000
    216  C5'       21.1690   32.6090   65.5800 C.3    19  G19         0.0000
    217  O5'       20.0770   31.7220   65.3460 O.3    19  G19         0.0000
    218  C4'       20.7100   34.0400   65.5040 C.3    19  G19         0.0000
    219  O4'       20.4320   34.4350   64.1330 O.3    19  G19         0.0000
    220  C3'       19.4120   34.3120   66.2260 C.3    19  G19         0.0000
    221  O3'       19.6640   34.4250   67.6120 O.3    19  G19         0.0000
    222  C2'       18.9630   35.6170   65.5770 C.3    19  G19         0.0000
    223  O2'       19.6490   36.7410   66.0870 O.3    19  G19         0.0000
    224  C1'       19.3890   35.3950   64.1250 C.3    19  G19         0.0000
    225  N1        15.9980   36.5670   60.5560 N.ar   19  G19         0.0000
    226  C2        16.9030   37.3740   61.1920 C.ar   19  G19         0.0000
    227  N2        16.9050   38.6610   60.8270 N.pl3  19  G19         0.0000
    228  N3        17.7420   36.9520   62.1210 N.ar   19  G19         0.0000
    229  C4        17.5890   35.6350   62.3720 C.ar   19  G19         0.0000
    230  C5        16.7110   34.7460   61.7970 C.ar   19  G19         0.0000
    231  C6        15.8260   35.2100   60.8010 C.ar   19  G19         0.0000
    232  O6        14.9750   34.5740   60.1700 O.2    19  G19         0.0000
    233  N7        16.8710   33.4800   62.3330 N.ar   19  G19         0.0000
    234  C8        17.8300   33.6170   63.2050 C.ar   19  G19         0.0000
    235  N9        18.3130   34.8980   63.2760 N.ar   19  G19         0.0000
    236  OP1       21.1690   29.4720   65.4430 O.3    19  G19        -0.5000
    237  OP2       19.0480   29.8310   64.0570 O.co2  19  G19        -0.5000
    238  P         18.5610   33.9250   68.6590 P.3    20  U20         0.0000
    239  C5'       17.7840   36.3970   68.3120 C.3    20  U20         0.0000
    240  O5'       17.4250   35.0390   68.5370 O.3    20  U20         0.0000
    241  C4'       16.5690   37.2870   68.2540 C.3    20  U20         0.0000
    242  O4'       16.0250   37.3010   66.9000 O.3    20  U20         0.0000
    243  C3'       15.4590   36.7170   69.1160 C.3    20  U20         0.0000
    244  O3'       14.9500   37.4480   70.1970 O.3    20  U20         0.0000
    245  C2'       14.4640   36.0390   68.2010 C.3    20  U20         0.0000
    246  O2'       13.1500   36.3970   68.5530 O.3    20  U20         0.0000
    247  C1'       14.7340   36.7290   66.8780 C.3    20  U20         0.0000
    248  N1        14.5760   35.8360   65.7290 N.ar   20  U20         0.0000
    249  C2        13.9840   36.3600   64.6090 C.ar   20  U20         0.0000
    250  O2        13.6600   37.5280   64.5310 O.2    20  U20         0.0000
    251  N3        13.7850   35.4660   63.5850 N.ar   20  U20         0.0000
    252  C4        14.1180   34.1340   63.5810 C.ar   20  U20         0.0000
    253  O4        13.8710   33.4560   62.5950 O.2    20  U20         0.0000
    254  C5        14.7440   33.6720   64.7690 C.ar   20  U20         0.0000
    255  C6        14.9560   34.5200   65.7790 C.ar   20  U20         0.0000
    256  OP1       19.1620   33.9960   70.0100 O.3    20  U20        -0.5000
    257  OP2       18.0000   32.6390   68.1750 O.co2  20  U20        -0.5000
    258  P         14.2320   36.6590   71.3780 P.3    21  G21         0.0000
    259  C5'       15.5420   37.5150   73.4490 C.3    21  G21         0.0000
    260  O5'       15.3970   36.5300   72.4530 O.3    21  G21         0.0000
    261  C4'       16.7580   38.3640   73.1910 C.3    21  G21         0.0000
    262  O4'       16.7120   38.9550   71.8720 O.3    21  G21         0.0000
    263  C3'       16.8090   39.5710   74.0980 C.3    21  G21         0.0000
    264  O3'       17.2820   39.1650   75.3520 O.3    21  G21         0.0000
    265  C2'       17.7390   40.5090   73.3520 C.3    21  G21         0.0000
    266  O2'       19.0940   40.1540   73.4800 O.3    21  G21         0.0000
    267  C1'       17.3070   40.2490   71.9140 C.3    21  G21         0.0000
    268  N1        16.1030   45.1480   71.3740 N.ar   21  G21         0.0000
    269  C2        17.1960   44.5970   71.9790 C.ar   21  G21         0.0000
    270  N2        18.0690   45.4730   72.4870 N.pl3  21  G21         0.0000
    271  N3        17.4080   43.2880   72.0780 N.ar   21  G21         0.0000
    272  C4        16.4120   42.5810   71.5090 C.ar   21  G21         0.0000
    273  C5        15.2780   43.0470   70.8850 C.ar   21  G21         0.0000
    274  C6        15.0680   44.4300   70.7900 C.ar   21  G21         0.0000
    275  O6        14.1190   45.0240   70.2810 O.2    21  G21         0.0000
    276  N7        14.5000   41.9980   70.4290 N.ar   21  G21         0.0000
    277  C8        15.1610   40.9330   70.7760 C.ar   21  G21         0.0000
    278  N9        16.3330   41.2160   71.4270 N.ar   21  G21         0.0000
    279  OP1       13.9000   35.3090   70.8600 O.2    21  G21        -0.5000
    280  OP2       13.1430   37.5320   71.9110 O.co2  21  G21        -0.5000
    281  P         16.3000   39.2410   76.6000 P.3    22  C22         0.0000
    282  C5'       17.7270   41.3120   77.3250 C.3    22  C22         0.0000
    283  O5'       16.4420   40.7640   77.0430 O.3    22  C22         0.0000
    284  C4'       17.6870   42.8120   77.2420 C.3    22  C22         0.0000
    285  O4'       17.4920   43.2240   75.8660 O.3    22  C22         0.0000
    286  C3'       16.5250   43.4530   77.9640 C.3    22  C22         0.0000
    287  O3'       16.7750   43.5230   79.3620 O.3    22  C22         0.0000
    288  C2'       16.4520   44.8090   77.2780 C.3    22  C22         0.0000
    289  O2'       17.5040   45.6580   77.6690 O.3    22  C22         0.0000
    290  C1'       16.7240   44.4190   75.8290 C.3    22  C22         0.0000
    291  N1        15.5130   44.1860   75.0120 N.ar   22  C22         0.0000
    292  C2        14.7480   45.2960   74.5840 C.ar   22  C22         0.0000
    293  O2        15.1070   46.4380   74.9080 O.2    22  C22         0.0000
    294  N3        13.6460   45.0860   73.8250 N.ar   22  C22         0.0000
    295  C4        13.3000   43.8420   73.4860 C.ar   22  C22         0.0000
    296  N4        12.2170   43.6800   72.7340 N.pl3  22  C22         0.0000
    297  C5        14.0540   42.7050   73.9040 C.ar   22  C22         0.0000
    298  C6        15.1380   42.9190   74.6620 C.ar   22  C22         0.0000
    299  OP1       16.8760   38.3370   77.6300 O.3    22  C22        -0.5000
    300  OP2       14.9100   39.0300   76.1290 O.co2  22  C22        -0.5000
    301  P         15.5390   43.4170   80.3910 P.3    23  C23         0.0000
    302  C5'       15.3760   46.0230   80.4490 C.3    23  C23         0.0000
    303  O5'       14.7440   44.7800   80.1490 O.3    23  C23         0.0000
    304  C4'       14.5190   47.1860   80.0180 C.3    23  C23         0.0000
    305  O4'       14.3740   47.2010   78.5760 O.3    23  C23         0.0000
    306  C3'       13.0890   47.2020   80.5080 C.3    23  C23         0.0000
    307  O3'       13.0260   47.6730   81.8370 O.3    23  C23         0.0000
    308  C2'       12.4720   48.2040   79.5460 C.3    23  C23         0.0000
    309  O2'       12.8520   49.5300   79.8420 O.3    23  C23         0.0000
    310  C1'       13.1300   47.7880   78.2340 C.3    23  C23         0.0000
    311  N1        12.3220   46.7860   77.5330 N.ar   23  C23         0.0000
    312  C2        11.2650   47.2230   76.7360 C.ar   23  C23         0.0000
    313  O2        11.0510   48.4440   76.6440 O.2    23  C23         0.0000
    314  N3        10.5040   46.3130   76.0920 N.ar   23  C23         0.0000
    315  C4        10.7690   45.0140   76.2220 C.ar   23  C23         0.0000
    316  N4         9.9920   44.1520   75.5670 N.pl3  23  C23         0.0000
    317  C5        11.8410   44.5390   77.0290 C.ar   23  C23         0.0000
    318  C6        12.5860   45.4510   77.6620 C.ar   23  C23         0.0000
    319  OP1       16.0970   43.4430   81.7720 O.3    23  C23        -0.5000
    320  OP2       14.6810   42.2760   79.9660 O.co2  23  C23        -0.5000
    321  P         11.8780   47.1310   82.8140 P.3    24  C24         0.0000
    322  C5'       10.4180   49.2320   82.2310 C.3    24  C24         0.0000
    323  O5'       10.5410   47.8170   82.2930 O.3    24  C24         0.0000
    324  C4'        9.1380   49.5920   81.5340 C.3    24  C24         0.0000
    325  O4'        9.2120   49.1450   80.1580 O.3    24  C24         0.0000
    326  C3'        7.9200   48.8960   82.1010 C.3    24  C24         0.0000
    327  O3'        7.4540   49.6020   83.2520 O.3    24  C24         0.0000
    328  C2'        6.9810   48.7870   80.9000 C.3    24  C24         0.0000
    329  O2'        6.1610   49.8950   80.6120 O.3    24  C24         0.0000
    330  C1'        7.9710   48.6040   79.7530 C.3    24  C24         0.0000
    331  N1         8.1830   47.2010   79.3860 N.ar   24  C24         0.0000
    332  C2         7.4700   46.6850   78.3120 C.ar   24  C24         0.0000
    333  O2         6.7040   47.4400   77.6900 O.2    24  C24         0.0000
    334  N3         7.6290   45.3860   77.9730 N.ar   24  C24         0.0000
    335  C4         8.4690   44.6180   78.6670 C.ar   24  C24         0.0000
    336  N4         8.5920   43.3360   78.3060 N.pl3  24  C24         0.0000
    337  C5         9.2200   45.1250   79.7620 C.ar   24  C24         0.0000
    338  C6         9.0490   46.4120   80.0830 C.ar   24  C24         0.0000
    339  OP1       12.1840   47.6610   84.1710 O.3    24  C24        -0.5000
    340  OP2       11.7460   45.6640   82.5920 O.co2  24  C24        -0.5000
    341  P          6.7780   51.0560   83.0920 P.3    25  U25         0.0000
    342  C5'        8.7930   52.6270   83.6150 C.3    25  U25         0.0000
    343  O5'        7.6040   51.9990   84.0770 O.3    25  U25         0.0000
    344  C4'        8.5680   54.1080   83.4030 C.3    25  U25         0.0000
    345  O4'        9.6280   54.5880   82.5230 O.3    25  U25         0.0000
    346  C3'        7.2810   54.4870   82.6810 C.3    25  U25         0.0000
    347  O3'        6.2010   54.6570   83.5960 O.3    25  U25         0.0000
    348  C2'        7.6710   55.7920   81.9960 C.3    25  U25         0.0000
    349  O2'        7.6900   56.8960   82.8810 O.3    25  U25         0.0000
    350  C1'        9.0980   55.4720   81.5490 C.3    25  U25         0.0000
    351  N1         9.1330   54.7720   80.2570 N.ar   25  U25         0.0000
    352  C2         9.7630   55.3840   79.1890 C.ar   25  U25         0.0000
    353  O2        10.2910   56.4870   79.2620 O.2    25  U25         0.0000
    354  N3         9.7520   54.6550   78.0270 N.ar   25  U25         0.0000
    355  C4         9.1820   53.4160   77.8320 C.ar   25  U25         0.0000
    356  O4         9.2380   52.8880   76.7240 O.2    25  U25         0.0000
    357  C5         8.5520   52.8650   78.9790 C.ar   25  U25         0.0000
    358  C6         8.5520   53.5400   80.1200 C.ar   25  U25         0.0000
    359  OP1        5.3540   50.9870   83.5370 O.3    25  U25        -0.5000
    360  OP2        7.0970   51.5540   81.7280 O.co2  25  U25        -0.5000
    361  P          5.8030   50.5420   90.6440 P.3    30  C30         0.0000
    362  C5'        5.6260   48.6080   92.4120 C.3    30  C30         0.0000
    363  O5'        5.2270   49.1430   91.1520 O.3    30  C30         0.0000
    364  C4'        5.2080   47.1570   92.5390 C.3    30  C30         0.0000
    365  O4'        3.7600   47.0490   92.6040 O.3    30  C30         0.0000
    366  C3'        5.5760   46.2280   91.3930 C.3    30  C30         0.0000
    367  O3'        6.9360   45.8030   91.4630 O.3    30  C30         0.0000
    368  C2'        4.6170   45.0590   91.6130 C.3    30  C30         0.0000
    369  O2'        5.0790   44.1500   92.5930 O.3    30  C30         0.0000
    370  C1'        3.3630   45.7720   92.1260 C.3    30  C30         0.0000
    371  N1         2.3270   45.9400   91.0920 N.ar   30  C30         0.0000
    372  C2         1.5040   44.8480   90.7840 C.ar   30  C30         0.0000
    373  O2         1.6680   43.7840   91.3980 O.2    30  C30         0.0000
    374  N3         0.5560   44.9790   89.8290 N.ar   30  C30         0.0000
    375  C4         0.4100   46.1440   89.1910 C.ar   30  C30         0.0000
    376  N4        -0.5420   46.2300   88.2510 N.pl3  30  C30         0.0000
    377  C5         1.2320   47.2750   89.4880 C.ar   30  C30         0.0000
    378  C6         2.1680   47.1290   90.4370 C.ar   30  C30         0.0000
    379  OP1        5.5960   50.6420   89.1770 O.3    30  C30         0.0000
    380  OP2        7.1700   50.7170   91.2050 O.co2  30  C30        -1.0000
    381  P          7.6630   45.2510   90.1400 P.3    31  G31         0.0000
    382  C5'        7.4520   42.8420   89.0910 C.3    31  G31         0.0000
    383  O5'        7.5550   43.6620   90.2600 O.3    31  G31         0.0000
    384  C4'        6.3660   41.8080   89.2760 C.3    31  G31         0.0000
    385  O4'        5.1960   42.4870   89.8090 O.3    31  G31         0.0000
    386  C3'        5.8480   41.1250   88.0100 C.3    31  G31         0.0000
    387  O3'        6.6210   40.0080   87.5640 O.3    31  G31         0.0000
    388  C2'        4.4540   40.7080   88.4450 C.3    31  G31         0.0000
    389  O2'        4.4570   39.5890   89.3100 O.3    31  G31         0.0000
    390  C1'        4.0230   41.9490   89.2210 C.3    31  G31         0.0000
    391  N1         0.8210   42.7960   85.3870 N.ar   31  G31         0.0000
    392  C2         1.1790   41.6110   85.9840 C.ar   31  G31         0.0000
    393  N2         0.5880   40.5010   85.5080 N.pl3  31  G31         0.0000
    394  N3         2.0500   41.5180   86.9750 N.ar   31  G31         0.0000
    395  C4         2.5440   42.7230   87.3290 C.ar   31  G31         0.0000
    396  C5         2.2600   43.9620   86.7960 C.ar   31  G31         0.0000
    397  C6         1.3170   44.0480   85.7330 C.ar   31  G31         0.0000
    398  O6         0.9210   45.0530   85.1300 O.2    31  G31         0.0000
    399  N7         2.9910   44.9540   87.4390 N.ar   31  G31         0.0000
    400  C8         3.6870   44.3110   88.3390 C.ar   31  G31         0.0000
    401  N9         3.4520   42.9560   88.3340 N.ar   31  G31         0.0000
    402  OP1        9.0940   45.6560   90.1900 O.3    31  G31        -0.5000
    403  OP2        6.8200   45.6680   88.9890 O.co2  31  G31        -0.5000
    404  P          6.9970   39.8750   85.9980 P.3    32  U32         0.0000
    405  C5'        5.8580   38.7670   83.9220 C.3    32  U32         0.0000
    406  O5'        5.8130   39.0470   85.3230 O.3    32  U32         0.0000
    407  C4'        4.4700   38.7790   83.3270 C.3    32  U32         0.0000
    408  O4'        3.6720   39.7980   83.9820 O.3    32  U32         0.0000
    409  C3'        4.4180   39.1320   81.8430 C.3    32  U32         0.0000
    410  O3'        4.6290   37.9950   80.9990 O.3    32  U32         0.0000
    411  C2'        3.0070   39.7010   81.6860 C.3    32  U32         0.0000
    412  O2'        2.0000   38.7320   81.4740 O.3    32  U32         0.0000
    413  C1'        2.7900   40.3840   83.0400 C.3    32  U32         0.0000
    414  N1         3.0270   41.8330   83.0120 N.ar   32  U32         0.0000
    415  C2         2.2610   42.5780   82.1430 C.ar   32  U32         0.0000
    416  O2         1.4340   42.0780   81.4030 O.2    32  U32         0.0000
    417  N3         2.4990   43.9290   82.1700 N.ar   32  U32         0.0000
    418  C4         3.4130   44.5960   82.9610 C.ar   32  U32         0.0000
    419  O4         3.5100   45.8230   82.8650 O.2    32  U32         0.0000
    420  C5         4.1810   43.7520   83.8330 C.ar   32  U32         0.0000
    421  C6         3.9680   42.4310   83.8270 C.ar   32  U32         0.0000
    422  OP1        8.2350   39.0660   85.8950 O.3    32  U32        -0.5000
    423  OP2        6.9570   41.2320   85.3910 O.co2  32  U32        -0.5000
    424  P          5.8150   38.0080   79.9010 P.3    33  G33         0.0000
    425  C5'        5.7100   39.5210   77.7450 C.3    33  G33         0.0000
    426  O5'        5.6810   39.4140   79.1700 O.3    33  G33         0.0000
    427  C4'        4.4890   40.2740   77.2850 C.3    33  G33         0.0000
    428  O4'        4.0990   41.1580   78.3560 O.3    33  G33         0.0000
    429  C3'        4.6140   41.1640   76.0540 C.3    33  G33         0.0000
    430  O3'        4.3400   40.4030   74.8700 O.3    33  G33         0.0000
    431  C2'        3.5330   42.2230   76.2900 C.3    33  G33         0.0000
    432  O2'        2.2740   41.8150   75.7920 O.3    33  G33         0.0000
    433  C1'        3.4510   42.2860   77.8210 C.3    33  G33         0.0000
    434  N1         6.5700   44.0800   81.3850 N.ar   33  G33         0.0000
    435  C2         6.4670   42.8070   80.8930 C.ar   33  G33         0.0000
    436  N2         7.2720   41.8880   81.4480 N.pl3  33  G33         0.0000
    437  N3         5.6380   42.4600   79.9250 N.ar   33  G33         0.0000
    438  C4         4.9160   43.5110   79.4820 C.ar   33  G33         0.0000
    439  C5         4.9540   44.8200   79.9090 C.ar   33  G33         0.0000
    440  C6         5.8330   45.1720   80.9410 C.ar   33  G33         0.0000
    441  O6         5.9990   46.2750   81.4550 O.2    33  G33         0.0000
    442  N7         4.0570   45.5990   79.1960 N.ar   33  G33         0.0000
    443  C8         3.4970   44.7640   78.3650 C.ar   33  G33         0.0000
    444  N9         3.9520   43.4750   78.5060 N.ar   33  G33         0.0000
    445  OP1        5.5400   36.9490   78.8910 O.2    33  G33        -0.5000
    446  OP2        7.1020   38.0000   80.6500 O.co2  33  G33        -0.5000
    447  P          4.2690   41.1330   73.4300 P.3    34  A34         0.0000
    448  C5'        1.6770   41.1460   72.9580 C.3    34  A34         0.0000
    449  O5'        2.8400   41.8510   73.4020 O.3    34  A34         0.0000
    450  C4'        0.4780   42.0740   72.8610 C.3    34  A34         0.0000
    451  O4'        0.0640   42.5190   74.1790 O.3    34  A34         0.0000
    452  C3'        0.6450   43.3650   72.0710 C.3    34  A34         0.0000
    453  O3'        0.4690   43.1340   70.6760 O.3    34  A34         0.0000
    454  C2'       -0.4970   44.2310   72.6070 C.3    34  A34         0.0000
    455  O2'       -1.7290   43.9830   71.9570 O.3    34  A34         0.0000
    456  C1'       -0.5890   43.7750   74.0670 C.3    34  A34         0.0000
    457  N1        -0.7340   48.5290   76.0530 N.ar   34  A34         0.0000
    458  C2        -1.4350   47.9400   75.0730 C.ar   34  A34         0.0000
    459  N3        -1.3400   46.6970   74.5940 N.ar   34  A34         0.0000
    460  C4        -0.3840   46.0100   75.2440 C.ar   34  A34         0.0000
    461  C5         0.4180   46.4780   76.2700 C.ar   34  A34         0.0000
    462  C6         0.2190   47.8110   76.6860 C.ar   34  A34         0.0000
    463  N6         0.9180   48.3980   77.6650 N.pl3  34  A34         0.0000
    464  N7         1.2920   45.4890   76.6950 N.ar   34  A34         0.0000
    465  C8         1.0050   44.4640   75.9320 C.ar   34  A34         0.0000
    466  N9        -0.0050   44.7040   75.0370 N.ar   34  A34         0.0000
    467  OP1        4.2650   40.0700   72.3910 O.2    34  A34        -0.5000
    468  OP2        5.3280   42.1740   73.4070 O.co2  34  A34        -0.5000
    469  P          1.1820   44.1020   69.6080 P.3    35  A35         0.0000
    470  C5'       -0.1190   46.3750   69.7910 C.3    35  A35         0.0000
    471  O5'        0.9740   45.5640   70.2050 O.3    35  A35         0.0000
    472  C4'       -0.0490   47.7210   70.4680 C.3    35  A35         0.0000
    473  O4'       -0.1360   47.5220   71.9050 O.3    35  A35         0.0000
    474  C3'        1.2580   48.4790   70.2930 C.3    35  A35         0.0000
    475  O3'        1.2970   49.2080   69.0780 O.3    35  A35         0.0000
    476  C2'        1.2370   49.4100   71.4950 C.3    35  A35         0.0000
    477  O2'        0.3840   50.5210   71.3140 O.3    35  A35         0.0000
    478  C1'        0.6740   48.4800   72.5700 C.3    35  A35         0.0000
    479  N1         4.3000   48.7050   76.2020 N.ar   35  A35         0.0000
    480  C2         3.3840   49.5870   75.7940 C.ar   35  A35         0.0000
    481  N3         2.4590   49.4630   74.8480 N.ar   35  A35         0.0000
    482  C4         2.5270   48.2500   74.2720 C.ar   35  A35         0.0000
    483  C5         3.4130   47.2370   74.5810 C.ar   35  A35         0.0000
    484  C6         4.3420   47.4930   75.6010 C.ar   35  A35         0.0000
    485  N6         5.2560   46.6040   76.0020 N.pl3  35  A35         0.0000
    486  N7         3.1870   46.1260   73.7800 N.ar   35  A35         0.0000
    487  C8         2.1860   46.4890   73.0170 C.ar   35  A35         0.0000
    488  N9         1.7420   47.7630   73.2570 N.ar   35  A35         0.0000
    489  OP1        0.4430   44.0120   68.3170 O.2    35  A35        -0.5000
    490  OP2        2.6360   43.7890   69.6450 O.co2  35  A35        -0.5000
    491  P          2.7020   49.4230   68.3290 P.3    36  G36         0.0000
    492  C5'        3.3490   51.6140   69.6040 C.3    36  G36         0.0000
    493  O5'        3.5840   50.2250   69.3870 O.3    36  G36         0.0000
    494  C4'        4.1610   52.1190   70.7700 C.3    36  G36         0.0000
    495  O4'        3.9310   51.2500   71.9110 O.3    36  G36         0.0000
    496  C3'        5.6750   52.1170   70.6170 C.3    36  G36         0.0000
    497  O3'        6.1220   53.2680   69.8970 O.3    36  G36         0.0000
    498  C2'        6.1190   52.1560   72.0760 C.3    36  G36         0.0000
    499  O2'        6.0250   53.4500   72.6460 O.3    36  G36         0.0000
    500  C1'        5.0890   51.2310   72.7330 C.3    36  G36         0.0000
    501  N1         8.4220   48.0430   74.8520 N.ar   36  G36         0.0000
    502  C2         8.1880   49.3610   75.1370 C.ar   36  G36         0.0000
    503  N2         8.9610   49.9020   76.0860 N.pl3  36  G36         0.0000
    504  N3         7.2630   50.0940   74.5370 N.ar   36  G36         0.0000
    505  C4         6.5780   49.3820   73.6170 C.ar   36  G36         0.0000
    506  C5         6.7330   48.0590   73.2660 C.ar   36  G36         0.0000
    507  C6         7.7310   47.2940   73.9050 C.ar   36  G36         0.0000
    508  O6         8.0320   46.1090   73.7140 O.3    36  G36         0.0000
    509  N7         5.8280   47.7030   72.2790 N.pl3  36  G36         0.0000
    510  C8         5.1560   48.7970   72.0430 C.3    36  G36         0.0000
    511  N9         5.5750   49.8590   72.8040 N.pl3  36  G36         0.0000
    512  OP1        2.4400   50.3280   67.1750 O.2    36  G36        -0.5000
    513  OP2        3.3290   48.0940   68.0960 O.co2  36  G36        -0.5000
    514  P          7.5490   53.2460   69.1460 P.3    37  G37         0.0000
    515  C5'        8.7320   54.5550   71.0880 C.3    37  G37         0.0000
    516  O5'        8.6150   53.3590   70.3240 O.3    37  G37         0.0000
    517  C4'        9.8720   54.4420   72.0800 C.3    37  G37         0.0000
    518  O4'        9.5470   53.4880   73.1240 O.3    37  G37         0.0000
    519  C3'       11.1850   53.9370   71.5120 C.3    37  G37         0.0000
    520  O3'       11.9460   54.9790   70.9480 O.3    37  G37         0.0000
    521  C2'       11.8850   53.3950   72.7430 C.3    37  G37         0.0000
    522  O2'       12.4820   54.4100   73.5150 O.3    37  G37         0.0000
    523  C1'       10.7110   52.7730   73.4900 C.3    37  G37         0.0000
    524  N1        12.5980   48.0860   73.6940 N.ar   37  G37         0.0000
    525  C2        13.1200   49.2630   74.1820 C.ar   37  G37         0.0000
    526  N2        14.2780   49.1700   74.8310 N.pl3  37  G37         0.0000
    527  N3        12.5410   50.4420   74.0440 N.ar   37  G37         0.0000
    528  C4        11.3740   50.3520   73.3660 C.ar   37  G37         0.0000
    529  C5        10.7670   49.2340   72.8360 C.ar   37  G37         0.0000
    530  C6        11.3940   47.9740   72.9980 C.ar   37  G37         0.0000
    531  O6        11.0020   46.8670   72.6190 O.2    37  G37         0.0000
    532  N7         9.5770   49.5720   72.2100 N.ar   37  G37         0.0000
    533  C8         9.4790   50.8610   72.3740 C.ar   37  G37         0.0000
    534  N9        10.5280   51.3910   73.0850 N.ar   37  G37         0.0000
    535  OP1        7.6660   54.4800   68.3380 O.2    37  G37        -0.5000
    536  OP2        7.7270   51.9240   68.4870 O.co2  37  G37        -0.5000
    537  P         13.0250   54.6240   69.8330 P.3    38  C38         0.0000
    538  C5'       15.0190   54.4130   71.5220 C.3    38  C38         0.0000
    539  O5'       14.1310   53.7830   70.6110 O.3    38  C38         0.0000
    540  C4'       16.2250   53.5350   71.7710 C.3    38  C38         0.0000
    541  O4'       15.8500   52.3670   72.5470 O.3    38  C38         0.0000
    542  C3'       16.8830   52.9600   70.5320 C.3    38  C38         0.0000
    543  O3'       17.7830   53.8930   69.9680 O.3    38  C38         0.0000
    544  C2'       17.6200   51.7680   71.1140 C.3    38  C38         0.0000
    545  O2'       18.7820   52.1620   71.8110 O.3    38  C38         0.0000
    546  C1'       16.5750   51.2370   72.0950 C.3    38  C38         0.0000
    547  N1        15.6170   50.3330   71.4370 N.ar   38  C38         0.0000
    548  C2        15.9640   49.0010   71.2280 C.ar   38  C38         0.0000
    549  O2        17.0720   48.5970   71.6160 O.2    38  C38         0.0000
    550  N3        15.0920   48.1830   70.6120 N.ar   38  C38         0.0000
    551  C4        13.9150   48.6470   70.2150 C.ar   38  C38         0.0000
    552  N4        13.0800   47.8010   69.6110 N.pl3  38  C38         0.0000
    553  C5        13.5330   49.9960   70.4170 C.ar   38  C38         0.0000
    554  C6        14.4040   50.7970   71.0290 C.ar   38  C38         0.0000
    555  OP1       13.6190   55.9030   69.3750 O.3    38  C38        -0.5000
    556  OP2       12.3530   53.7140   68.8650 O.co2  38  C38        -0.5000
    557  P         18.0820   53.8580   68.4020 P.3    39  U39         0.0000
    558  C5'       20.3350   52.6170   68.7660 C.3    39  U39         0.0000
    559  O5'       19.0390   52.6120   68.2100 O.3    39  U39         0.0000
    560  C4'       20.9830   51.2830   68.5510 C.3    39  U39         0.0000
    561  O4'       20.2740   50.2810   69.3220 O.3    39  U39         0.0000
    562  C3'       20.9020   50.7360   67.1400 C.3    39  U39         0.0000
    563  O3'       21.8860   51.3180   66.2900 O.3    39  U39         0.0000
    564  C2'       21.1930   49.2740   67.3970 C.3    39  U39         0.0000
    565  O2'       22.5660   49.1480   67.6900 O.3    39  U39         0.0000
    566  C1'       20.3710   49.0320   68.6670 C.3    39  U39         0.0000
    567  N1        19.0080   48.5690   68.3860 N.ar   39  U39         0.0000
    568  C2        18.8000   47.2020   68.2330 C.ar   39  U39         0.0000
    569  O2        19.6970   46.3750   68.3530 O.2    39  U39         0.0000
    570  N3        17.5020   46.8400   67.9430 N.ar   39  U39         0.0000
    571  C4        16.4160   47.6860   67.8000 C.ar   39  U39         0.0000
    572  O4        15.2970   47.2170   67.5450 O.2    39  U39         0.0000
    573  C5        16.7220   49.0740   67.9860 C.ar   39  U39         0.0000
    574  C6        17.9750   49.4560   68.2670 C.ar   39  U39         0.0000
    575  OP1       18.8560   55.0830   68.1390 O.3    39  U39        -0.5000
    576  OP2       16.8280   53.5770   67.6570 O.co2  39  U39        -0.5000
    577  P         21.4780   51.7880   64.8060 P.3    40  G40         0.0000
    578  C5'       22.5560   49.6050   63.8830 C.3    40  G40         0.0000
    579  O5'       21.4120   50.4360   63.9800 O.3    40  G40         0.0000
    580  C4'       22.1600   48.2430   63.3900 C.3    40  G40         0.0000
    581  O4'       21.2160   47.6580   64.3290 O.3    40  G40         0.0000
    582  C3'       21.3890   48.2510   62.0910 C.3    40  G40         0.0000
    583  O3'       22.2610   48.3620   60.9720 O.3    40  G40         0.0000
    584  C2'       20.6850   46.9070   62.1640 C.3    40  G40         0.0000
    585  O2'       21.5640   45.8440   61.9070 O.3    40  G40         0.0000
    586  C1'       20.2720   46.8730   63.6320 C.3    40  G40         0.0000
    587  N1        15.3110   46.0220   64.1960 N.ar   40  G40         0.0000
    588  C2        16.3400   45.1260   64.0500 C.ar   40  G40         0.0000
    589  N2        16.0170   43.8300   64.0490 N.pl3  40  G40         0.0000
    590  N3        17.5990   45.4720   63.9170 N.ar   40  G40         0.0000
    591  C4        17.7640   46.8070   63.9430 C.ar   40  G40         0.0000
    592  C5        16.8110   47.7870   64.0850 C.ar   40  G40         0.0000
    593  C6        15.4560   47.4060   64.2300 C.ar   40  G40         0.0000
    594  O6        14.4580   48.1350   64.3780 O.3    40  G40         0.0000
    595  N7        17.3930   49.0460   64.0610 N.pl3  40  G40         0.0000
    596  C8        18.6680   48.8090   63.9120 C.3    40  G40         0.0000
    597  N9        18.9590   47.4710   63.8280 N.pl3  40  G40         0.0000
    598  OP1       22.5980   52.5820   64.2640 O.2    40  G40        -0.5000
    599  OP2       20.1190   52.3760   64.8740 O.co2  40  G40        -0.5000
    600  P         21.7260   49.0410   59.6050 P.3    41  A41         0.0000
    601  C5'       20.0160   48.1870   57.8140 C.3    41  A41         0.0000
    602  O5'       20.7100   47.9600   59.0240 O.3    41  A41         0.0000
    603  C4'       19.3100   46.9280   57.3780 C.3    41  A41         0.0000
    604  O4'       20.2850   45.9210   57.0220 O.3    41  A41         0.0000
    605  C3'       18.4360   46.2480   58.4170 C.3    41  A41         0.0000
    606  O3'       17.1530   46.8590   58.4310 O.3    41  A41         0.0000
    607  C2'       18.3580   44.8200   57.8820 C.3    41  A41         0.0000
    608  O2'       17.4250   44.6840   56.8300 O.3    41  A41         0.0000
    609  C1'       19.7530   44.6350   57.2890 C.3    41  A41         0.0000
    610  N1        21.1130   40.1090   59.3610 N.ar   41  A41         0.0000
    611  C2        20.0160   40.4870   58.6980 C.ar   41  A41         0.0000
    612  N3        19.6950   41.6830   58.2160 N.ar   41  A41         0.0000
    613  C4        20.6680   42.5760   58.4790 C.ar   41  A41         0.0000
    614  C5        21.8460   42.3350   59.1540 C.ar   41  A41         0.0000
    615  C6        22.0660   41.0320   59.6100 C.ar   41  A41         0.0000
    616  N6        23.1670   40.6600   60.2740 N.pl3  41  A41         0.0000
    617  N7        22.6060   43.4910   59.2450 N.pl3  41  A41         0.0000
    618  C8        21.8860   44.3890   58.6260 C.3    41  A41         0.0000
    619  N9        20.7140   43.9020   58.1120 N.pl3  41  A41         0.0000
    620  OP1       22.8890   49.1320   58.6760 O.2    41  A41        -0.5000
    621  OP2       20.9470   50.2690   59.9430 O.co2  41  A41        -0.5000
    622  P         16.4080   47.1260   59.8270 P.3    42  G42         0.0000
    623  C5'       14.8450   45.0630   59.3420 C.3    42  G42         0.0000
    624  O5'       15.7790   45.7130   60.1950 O.3    42  G42         0.0000
    625  C4'       14.8740   43.5850   59.6190 C.3    42  G42         0.0000
    626  O4'       16.2190   43.1210   59.3530 O.3    42  G42         0.0000
    627  C3'       14.6250   43.2080   61.0740 C.3    42  G42         0.0000
    628  O3'       13.2320   43.0150   61.2790 O.3    42  G42         0.0000
    629  C2'       15.3920   41.8960   61.2170 C.3    42  G42         0.0000
    630  O2'       14.6870   40.7890   60.6910 O.3    42  G42         0.0000
    631  C1'       16.5860   42.1360   60.2960 C.3    42  G42         0.0000
    632  N1        20.9470   40.5140   62.3520 N.ar   42  G42         0.0000
    633  C2        19.8600   39.7900   61.9140 C.ar   42  G42         0.0000
    634  N2        19.9610   38.4620   62.0070 N.pl3  42  G42         0.0000
    635  N3        18.7540   40.3340   61.4210 N.ar   42  G42         0.0000
    636  C4        18.8160   41.6870   61.4020 C.ar   42  G42         0.0000
    637  C5        19.8450   42.5070   61.8180 C.ar   42  G42         0.0000
    638  C6        21.0370   41.9070   62.3430 C.ar   42  G42         0.0000
    639  O6        22.0720   42.4600   62.7540 O.2    42  G42         0.0000
    640  N7        19.5130   43.8430   61.6300 N.ar   42  G42         0.0000
    641  C8        18.3130   43.8120   61.1100 C.ar   42  G42         0.0000
    642  N9        17.8410   42.5360   60.9240 N.ar   42  G42         0.0000
    643  OP1       15.2750   48.0640   59.6070 O.2    42  G42        -0.5000
    644  OP2       17.4200   47.4350   60.8620 O.co2  42  G42        -0.5000
    645  P         12.5590   43.4300   62.6740 P.3    43  A43         0.0000
    646  C5'       12.9810   41.2200   64.0250 C.3    43  A43         0.0000
    647  O5'       13.3190   42.5730   63.7730 O.3    43  A43         0.0000
    648  C4'       13.2210   40.9120   65.4750 C.3    43  A43         0.0000
    649  O4'       14.5650   41.2670   65.8430 O.3    43  A43         0.0000
    650  C3'       12.3550   41.6900   66.4450 C.3    43  A43         0.0000
    651  O3'       11.2830   40.8130   66.7390 O.3    43  A43         0.0000
    652  C2'       13.2060   41.8120   67.7150 C.3    43  A43         0.0000
    653  O2'       12.7980   40.9200   68.7350 O.3    43  A43         0.0000
    654  C1'       14.6040   41.4160   67.2320 C.3    43  A43         0.0000
    655  N1        19.2430   41.4540   69.3200 N.ar   43  A43         0.0000
    656  C2        18.3740   40.4700   69.0500 C.ar   43  A43         0.0000
    657  N3        17.1740   40.5430   68.4910 N.ar   43  A43         0.0000
    658  C4        16.8700   41.8190   68.1830 C.ar   43  A43         0.0000
    659  C5        17.6530   42.9340   68.3960 C.ar   43  A43         0.0000
    660  C6        18.9060   42.7230   68.9970 C.ar   43  A43         0.0000
    661  N6        19.7730   43.7010   69.2660 N.pl3  43  A43         0.0000
    662  N7        17.0010   44.0800   67.9570 N.ar   43  A43         0.0000
    663  C8        15.8580   43.6330   67.4920 C.ar   43  A43         0.0000
    664  N9        15.7130   42.2780   67.6040 N.ar   43  A43         0.0000
    665  OP1       11.1440   43.0010   62.6320 O.2    43  A43         0.0000
    666  OP2       12.8890   44.8400   62.9610 O.co2  43  A43        -1.0000
    667  P          9.8150   41.3820   66.9670 P.3    44  A44         0.0000
    668  C5'        9.3650   39.5900   65.1040 C.3    44  A44         0.0000
    669  O5'        9.0310   40.8470   65.6880 O.3    44  A44         0.0000
    670  C4'        8.6460   39.4370   63.7940 C.3    44  A44         0.0000
    671  O4'        9.1180   38.2350   63.1250 O.3    44  A44         0.0000
    672  C3'        7.1500   39.2370   63.9840 C.3    44  A44         0.0000
    673  O3'        6.2530   40.3180   63.6770 O.3    44  A44         0.0000
    674  C2'        6.8740   37.7350   63.8750 C.3    44  A44         0.0000
    675  O2'        5.7590   37.4200   63.0660 O.3    44  A44         0.0000
    676  C1'        8.1080   37.2420   63.1170 C.3    44  A44         0.0000
    677  N1        11.3920   34.7650   66.2450 N.ar   44  A44         0.0000
    678  C2        11.0140   36.0530   66.1810 C.ar   44  A44         0.0000
    679  N3        10.1410   36.6370   65.3610 N.ar   44  A44         0.0000
    680  C4         9.6110   35.7350   64.5210 C.ar   44  A44         0.0000
    681  C5         9.8970   34.3810   64.4670 C.ar   44  A44         0.0000
    682  C6        10.8400   33.8870   65.3780 C.ar   44  A44         0.0000
    683  N6        11.2230   32.6080   65.4310 N.pl3  44  A44         0.0000
    684  N7         9.1580   33.7630   63.4740 N.ar   44  A44         0.0000
    685  C8         8.4560   34.7390   62.9520 C.ar   44  A44         0.0000
    686  N9         8.6940   35.9630   63.5250 N.ar   44  A44         0.0000
    687  OP1        9.8700   42.8710   66.9340 O.2    44  A44        -0.5000
    688  OP2        9.2780   40.6870   68.1630 O.co2  44  A44        -0.5000
    689  P          5.1160   40.1350   62.5550 P.3    45  A45         0.0000
    690  C5'        5.3900   39.2460   60.1080 C.3    45  A45         0.0000
    691  O5'        5.8460   39.2600   61.4490 O.3    45  A45         0.0000
    692  C4'        6.4060   39.9060   59.2100 C.3    45  A45         0.0000
    693  O4'        7.7280   39.8180   59.8030 O.3    45  A45         0.0000
    694  C3'        6.5410   39.2460   57.8510 C.3    45  A45         0.0000
    695  O3'        5.5760   39.7580   56.9470 O.3    45  A45         0.0000
    696  C2'        7.9640   39.6070   57.4490 C.3    45  A45         0.0000
    697  O2'        8.0620   40.9160   56.9230 O.3    45  A45         0.0000
    698  C1'        8.6860   39.5280   58.7970 C.3    45  A45         0.0000
    699  N1        12.1160   37.0050   61.6460 N.ar   45  A45         0.0000
    700  C2        11.8220   38.3030   61.5250 C.ar   45  A45         0.0000
    701  N3        10.9250   38.8950   60.7420 N.ar   45  A45         0.0000
    702  C4        10.2690   37.9830   60.0040 C.ar   45  A45         0.0000
    703  C5        10.4600   36.6150   60.0140 C.ar   45  A45         0.0000
    704  C6        11.4410   36.1170   60.8890 C.ar   45  A45         0.0000
    705  N6        11.7390   34.8260   61.0100 N.pl3  45  A45         0.0000
    706  N7         9.6040   35.9930   59.1140 N.ar   45  A45         0.0000
    707  C8         8.9210   36.9830   58.5940 C.ar   45  A45         0.0000
    708  N9         9.2620   38.2150   59.0990 N.ar   45  A45         0.0000
    709  OP1        4.8310   41.4610   61.9430 O.2    45  A45        -0.5000
    710  OP2        4.0100   39.3510   63.1630 O.co2  45  A45        -0.5000
    711  P          4.4070   38.7980   56.4060 P.3    46  U46         0.0000
    712  C5'        6.3980   37.3110   55.5190 C.3    46  U46         0.0000
    713  O5'        5.1110   37.8840   55.3040 O.3    46  U46         0.0000
    714  C4'        6.7120   36.3270   54.4200 C.3    46  U46         0.0000
    715  O4'        5.9760   35.0910   54.6280 O.3    46  U46         0.0000
    716  C3'        6.3050   36.7900   53.0320 C.3    46  U46         0.0000
    717  O3'        7.2510   37.7230   52.5190 O.3    46  U46         0.0000
    718  C2'        6.0930   35.4810   52.2740 C.3    46  U46         0.0000
    719  O2'        7.2480   34.8800   51.7280 O.3    46  U46         0.0000
    720  C1'        5.5250   34.5830   53.3780 C.3    46  U46         0.0000
    721  OP1        3.4160   39.6660   55.7170 O.2    46  U46        -0.5000
    722  OP2        3.9650   37.9290   57.5310 O.co2  46  U46        -0.5000
    723  P          8.5450   37.2200   51.7060 P.3    47  A47         0.0000
    724  C5'        9.0950   39.7220   52.2380 C.3    47  A47         0.0000
    725  O5'        9.5750   38.4060   51.9650 O.3    47  A47         0.0000
    726  C4'        9.8800   40.3510   53.3610 C.3    47  A47         0.0000
    727  O4'        9.6580   39.6180   54.5910 O.3    47  A47         0.0000
    728  C3'       11.3850   40.3270   53.2010 C.3    47  A47         0.0000
    729  O3'       11.8260   41.3810   52.3640 O.3    47  A47         0.0000
    730  C2'       11.8580   40.5230   54.6340 C.3    47  A47         0.0000
    731  O2'       11.8620   41.8800   55.0350 O.3    47  A47         0.0000
    732  C1'       10.8040   39.7320   55.4150 C.3    47  A47         0.0000
    733  N1        13.6720   36.9770   58.6420 N.ar   47  A47         0.0000
    734  C2        13.4460   38.2900   58.5310 C.ar   47  A47         0.0000
    735  N3        12.6870   38.9440   57.6580 N.ar   47  A47         0.0000
    736  C4        12.1060   38.0870   56.8070 C.ar   47  A47         0.0000
    737  C5        12.2420   36.7140   56.7900 C.ar   47  A47         0.0000
    738  C6        13.0710   36.1440   57.7710 C.ar   47  A47         0.0000
    739  N6        13.2910   34.8360   57.8880 N.pl3  47  A47         0.0000
    740  N7        11.4960   36.1620   55.7620 N.ar   47  A47         0.0000
    741  C8        10.9290   37.1970   55.1940 C.ar   47  A47         0.0000
    742  N9        11.2520   38.3910   55.7780 N.ar   47  A47         0.0000
    743  OP1        8.2080   37.1790   50.2540 O.2    47  A47        -0.5000
    744  OP2        9.1090   36.0130   52.3680 O.co2  47  A47        -0.5000
    745  P         13.2080   41.2290   51.5640 P.3    48  C48         0.0000
    746  C5'       14.4610   42.4340   53.5480 C.3    48  C48         0.0000
    747  O5'       14.3110   41.2830   52.7160 O.3    48  C48         0.0000
    748  C4'       15.4480   42.1540   54.6630 C.3    48  C48         0.0000
    749  O4'       14.8860   41.1990   55.6020 O.3    48  C48         0.0000
    750  C3'       16.7470   41.4920   54.2430 C.3    48  C48         0.0000
    751  O3'       17.6680   42.4300   53.7310 O.3    48  C48         0.0000
    752  C2'       17.2380   40.9170   55.5580 C.3    48  C48         0.0000
    753  O2'       17.7850   41.9320   56.3780 O.3    48  C48         0.0000
    754  C1'       15.9270   40.4040   56.1570 C.3    48  C48         0.0000
    755  N1        15.6640   38.9920   55.8270 N.ar   48  C48         0.0000
    756  C2        16.2690   37.9860   56.6000 C.ar   48  C48         0.0000
    757  O2        16.9930   38.3040   57.5520 O.2    48  C48         0.0000
    758  N3        16.0470   36.6900   56.2880 N.ar   48  C48         0.0000
    759  C4        15.2580   36.3760   55.2620 C.ar   48  C48         0.0000
    760  N4        15.0790   35.0890   55.0010 N.pl3  48  C48         0.0000
    761  C5        14.6240   37.3720   54.4630 C.ar   48  C48         0.0000
    762  C6        14.8510   38.6560   54.7790 C.ar   48  C48         0.0000
    763  OP1       13.3710   42.4050   50.6790 O.2    48  C48        -0.5000
    764  OP2       13.2370   39.8680   50.9780 O.co2  48  C48        -0.5000
    765  P         18.6380   41.9990   52.5360 P.3    49  C49         0.0000
    766  C5'       20.5280   41.7110   54.3120 C.3    49  C49         0.0000
    767  O5'       19.7860   41.1560   53.2440 O.3    49  C49         0.0000
    768  C4'       21.2700   40.6290   55.0420 C.3    49  C49         0.0000
    769  O4'       20.3360   39.7780   55.7550 O.3    49  C49         0.0000
    770  C3'       22.0540   39.6760   54.1600 C.3    49  C49         0.0000
    771  O3'       23.3190   40.2470   53.8490 O.3    49  C49         0.0000
    772  C2'       22.1950   38.4660   55.0770 C.3    49  C49         0.0000
    773  O2'       23.2020   38.6550   56.0490 O.3    49  C49         0.0000
    774  C1'       20.8320   38.4500   55.7750 C.3    49  C49         0.0000
    775  N1        19.8580   37.5780   55.1020 N.ar   49  C49         0.0000
    776  C2        19.9450   36.1910   55.2890 C.ar   49  C49         0.0000
    777  O2        20.8380   35.7340   56.0160 O.2    49  C49         0.0000
    778  N3        19.0530   35.3860   54.6660 N.ar   49  C49         0.0000
    779  C4        18.1060   35.9150   53.8880 C.ar   49  C49         0.0000
    780  N4        17.2500   35.0860   53.3080 N.pl3  49  C49         0.0000
    781  C5        17.9980   37.3180   53.6790 C.ar   49  C49         0.0000
    782  C6        18.8840   38.1050   54.3000 C.ar   49  C49         0.0000
    783  OP1       19.2360   43.2410   51.9830 O.3    49  C49        -0.5000
    784  OP2       17.8720   41.0760   51.6470 O.co2  49  C49        -0.5000
    785  P         24.0760   39.8320   52.5010 P.3    50  C50         0.0000
    786  C5'       25.5360   38.0660   53.7610 C.3    50  C50         0.0000
    787  O5'       24.5630   38.3440   52.7660 O.3    50  C50         0.0000
    788  C4'       25.5620   36.5860   54.0580 C.3    50  C50         0.0000
    789  O4'       24.2440   36.1600   54.4920 O.3    50  C50         0.0000
    790  C3'       25.8560   35.6680   52.8850 C.3    50  C50         0.0000
    791  O3'       27.2620   35.5920   52.6720 O.3    50  C50         0.0000
    792  C2'       25.2970   34.3450   53.3900 C.3    50  C50         0.0000
    793  O2'       26.1440   33.7080   54.3220 O.3    50  C50         0.0000
    794  C1'       24.0430   34.8100   54.1280 C.3    50  C50         0.0000
    795  N1        22.8290   34.7120   53.3110 N.ar   50  C50         0.0000
    796  C2        22.3550   33.4440   52.9980 C.ar   50  C50         0.0000
    797  O2        22.9820   32.4610   53.4140 O.2    50  C50         0.0000
    798  N3        21.2350   33.3160   52.2510 N.ar   50  C50         0.0000
    799  C4        20.5990   34.3990   51.8110 C.ar   50  C50         0.0000
    800  N4        19.5040   34.2150   51.0710 N.pl3  50  C50         0.0000
    801  C5        21.0610   35.7160   52.1110 C.ar   50  C50         0.0000
    802  C6        22.1720   35.8260   52.8610 C.ar   50  C50         0.0000
    803  OP1       25.2840   40.6750   52.4000 O.3    50  C50        -0.5000
    804  OP2       23.1030   39.8030   51.3860 O.co2  50  C50        -0.5000
    805  P         27.8350   35.1440   51.2380 P.3    51  G51         0.0000
    806  C5'       28.3370   32.6790   51.9960 C.3    51  G51         0.0000
    807  O5'       27.5690   33.5750   51.1990 O.3    51  G51         0.0000
    808  C4'       27.9870   31.2540   51.6420 C.3    51  G51         0.0000
    809  O4'       26.5750   31.0390   51.9010 O.3    51  G51         0.0000
    810  C3'       28.1390   30.9190   50.1710 C.3    51  G51         0.0000
    811  O3'       29.4880   30.5580   49.9070 O.3    51  G51         0.0000
    812  C2'       27.1770   29.7500   49.9990 C.3    51  G51         0.0000
    813  O2'       27.7130   28.5370   50.4620 O.3    51  G51         0.0000
    814  C1'       26.0440   30.1400   50.9420 C.3    51  G51         0.0000
    815  N1        21.7490   29.2570   48.4490 N.ar   51  G51         0.0000
    816  C2        22.6710   28.3790   48.9510 C.ar   51  G51         0.0000
    817  N2        22.4170   27.0830   48.7710 N.pl3  51  G51         0.0000
    818  N3        23.7620   28.7420   49.5820 N.ar   51  G51         0.0000
    819  C4        23.8660   30.0790   49.6810 C.ar   51  G51         0.0000
    820  C5        23.0080   31.0450   49.2150 C.ar   51  G51         0.0000
    821  C6        21.8340   30.6370   48.5310 C.ar   51  G51         0.0000
    822  O6        20.9460   31.3320   48.0320 O.2    51  G51         0.0000
    823  N7        23.4840   32.3110   49.5200 N.ar   51  G51         0.0000
    824  C8        24.5990   32.0920   50.1610 C.ar   51  G51         0.0000
    825  N9        24.8880   30.7560   50.2900 N.ar   51  G51         0.0000
    826  OP1       29.3020   35.3670   51.2460 O.3    51  G51        -0.5000
    827  OP2       26.9990   35.7770   50.1760 O.co2  51  G51        -0.5000
    828  P         30.1990   31.0490   48.5510 P.3    52  U52         0.0000
    829  C5'       32.5360   31.5900   49.6160 C.3    52  U52         0.0000
    830  O5'       31.7350   30.7460   48.8050 O.3    52  U52         0.0000
    831  C4'       33.6660   30.7860   50.1990 C.3    52  U52         0.0000
    832  O4'       33.1910   30.0410   51.3370 O.3    52  U52         0.0000
    833  C3'       34.2360   29.7550   49.2390 C.3    52  U52         0.0000
    834  O3'       35.1950   30.3490   48.3530 O.3    52  U52         0.0000
    835  C2'       34.7000   28.6030   50.1310 C.3    52  U52         0.0000
    836  O2'       36.0640   28.6280   50.5050 O.3    52  U52         0.0000
    837  C1'       33.8140   28.7750   51.3710 C.3    52  U52         0.0000
    838  N1        32.7770   27.7730   51.6470 N.ar   52  U52         0.0000
    839  C2        33.1740   26.4980   51.9890 C.ar   52  U52         0.0000
    840  O2        34.3380   26.1430   51.9830 O.2    52  U52         0.0000
    841  N3        32.1510   25.6520   52.3420 N.ar   52  U52         0.0000
    842  C4        30.8010   25.9470   52.3690 C.ar   52  U52         0.0000
    843  O4        29.9970   25.0870   52.7290 O.2    52  U52         0.0000
    844  C5        30.4740   27.2750   51.9620 C.ar   52  U52         0.0000
    845  C6        31.4480   28.1180   51.6160 C.ar   52  U52         0.0000
    846  OP1       30.0360   32.5200   48.3960 O.3    52  U52        -0.5000
    847  OP2       29.7490   30.1330   47.4650 O.co2  52  U52        -0.5000
    848  P         36.5160   31.0930   48.9300 P.3    53  A53         0.0000
    849  C5'       36.7020   32.2530   51.2720 C.3    53  A53         0.0000
    850  O5'       35.9880   32.0870   50.0550 O.3    53  A53         0.0000
    851  C4'       35.9330   33.1550   52.2050 C.3    53  A53         0.0000
    852  O4'       34.5450   32.7490   52.2620 O.3    53  A53         0.0000
    853  C3'       36.4170   33.1480   53.6450 C.3    53  A53         0.0000
    854  O3'       37.4500   34.1260   53.7580 O.3    53  A53         0.0000
    855  C2'       35.1660   33.5400   54.4400 C.3    53  A53         0.0000
    856  O2'       35.0250   34.9390   54.6000 O.3    53  A53         0.0000
    857  C1'       34.0280   33.0270   53.5470 C.3    53  A53         0.0000
    858  N1        34.0100   28.1090   55.1700 N.ar   53  A53         0.0000
    859  C2        35.0160   28.9400   54.8620 C.ar   53  A53         0.0000
    860  N3        34.9700   30.2100   54.4640 N.ar   53  A53         0.0000
    861  C4        33.6990   30.6320   54.3870 C.ar   53  A53         0.0000
    862  C5        32.5620   29.8940   54.6730 C.ar   53  A53         0.0000
    863  C6        32.7450   28.5690   55.0850 C.ar   53  A53         0.0000
    864  N6        31.7400   27.7490   55.3970 N.pl3  53  A53         0.0000
    865  N7        31.4230   30.6530   54.4850 N.ar   53  A53         0.0000
    866  C8        31.8830   31.8130   54.0910 C.ar   53  A53         0.0000
    867  N9        33.2500   31.8690   53.9980 N.ar   53  A53         0.0000
    868  OP1       37.0190   31.9580   47.8330 O.2    53  A53        -0.5000
    869  OP2       37.4350   30.1070   49.5600 O.co2  53  A53        -0.5000
    870  P         38.4820   34.0690   54.9820 P.3    54  U54         0.0000
    871  C5'       39.2930   36.4260   55.7990 C.3    54  U54         0.0000
    872  O5'       38.2540   35.4540   55.7330 O.3    54  U54         0.0000
    873  C4'       38.7860   37.6870   56.4550 C.3    54  U54         0.0000
    874  O4'       39.9040   38.5810   56.6990 O.3    54  U54         0.0000
    875  C3'       37.8080   38.5220   55.6390 C.3    54  U54         0.0000
    876  O3'       36.4640   38.0360   55.7490 O.3    54  U54         0.0000
    877  C2'       37.9650   39.8940   56.2850 C.3    54  U54         0.0000
    878  O2'       37.2440   40.0100   57.4990 O.3    54  U54         0.0000
    879  C1'       39.4720   39.9240   56.5650 C.3    54  U54         0.0000
    880  OP1       39.8550   34.0690   54.4240 O.2    54  U54        -0.5000
    881  OP2       38.0510   32.9690   55.8790 O.co2  54  U54        -0.5000
    882  P         35.3720   38.4140   54.6150 P.3    55  C55         0.0000
    883  C5'       33.9200   39.2190   56.6520 C.3    55  C55         0.0000
    884  O5'       34.0000   38.4980   55.4230 O.3    55  C55         0.0000
    885  C4'       32.5830   39.9080   56.7650 C.3    55  C55         0.0000
    886  O4'       32.4430   40.8480   55.6660 O.3    55  C55         0.0000
    887  C3'       31.3690   39.0000   56.6370 C.3    55  C55         0.0000
    888  O3'       31.0250   38.4180   57.8890 O.3    55  C55         0.0000
    889  C2'       30.2880   39.9600   56.1560 C.3    55  C55         0.0000
    890  O2'       29.7120   40.7040   57.2140 O.3    55  C55         0.0000
    891  C1'       31.0910   40.8780   55.2310 C.3    55  C55         0.0000
    892  OP1       35.2780   37.2900   53.6440 O.2    55  C55        -0.5000
    893  OP2       35.6760   39.7850   54.1180 O.co2  55  C55        -0.5000
    894  P         30.0460   37.1430   57.9270 P.3    56  A56         0.0000
    895  C5'       27.6750   37.7190   58.8610 C.3    56  A56         0.0000
    896  O5'       28.5870   37.7710   57.7800 O.3    56  A56         0.0000
    897  C4'       26.2950   37.3470   58.3800 C.3    56  A56         0.0000
    898  O4'       26.3530   36.2770   57.4030 O.3    56  A56         0.0000
    899  C3'       25.4510   36.7870   59.5040 C.3    56  A56         0.0000
    900  O3'       24.8700   37.8420   60.2410 O.3    56  A56         0.0000
    901  C2'       24.4560   35.8990   58.7760 C.3    56  A56         0.0000
    902  O2'       23.3940   36.6280   58.2120 O.3    56  A56         0.0000
    903  C1'       25.3350   35.3240   57.6690 C.3    56  A56         0.0000
    904  N1        24.8270   30.2150   58.2910 N.ar   56  A56         0.0000
    905  C2        23.9350   31.1740   58.0260 C.ar   56  A56         0.0000
    906  N3        24.1190   32.4900   57.9010 N.ar   56  A56         0.0000
    907  C4        25.4130   32.8120   58.0880 C.ar   56  A56         0.0000
    908  C5        26.4440   31.9410   58.3760 C.ar   56  A56         0.0000
    909  C6        26.1190   30.5710   58.4750 C.ar   56  A56         0.0000
    910  N6        27.0170   29.6120   58.7350 N.pl3  56  A56         0.0000
    911  N7        27.6410   32.6280   58.5090 N.ar   56  A56         0.0000
    912  C8        27.3160   33.8750   58.2940 C.ar   56  A56         0.0000
    913  N9        25.9880   34.0600   58.0140 N.ar   56  A56         0.0000
    914  OP1       30.1660   36.5060   59.2650 O.3    56  A56        -0.5000
    915  OP2       30.3250   36.3410   56.7030 O.co2  56  A56        -0.5000
    916  P         25.3440   38.0800   61.7450 P.3    57  C57         0.0000
    917  C5'       23.9300   36.0040   62.4270 C.3    57  C57         0.0000
    918  O5'       25.1950   36.6410   62.3940 O.3    57  C57         0.0000
    919  C4'       24.1020   34.5260   62.6430 C.3    57  C57         0.0000
    920  O4'       24.8450   33.9680   61.5280 O.3    57  C57         0.0000
    921  C3'       24.9210   34.1180   63.8580 C.3    57  C57         0.0000
    922  O3'       24.1540   34.1370   65.0540 O.3    57  C57         0.0000
    923  C2'       25.3300   32.7070   63.4730 C.3    57  C57         0.0000
    924  O2'       24.2570   31.7940   63.6060 O.3    57  C57         0.0000
    925  C1'       25.6570   32.9000   61.9900 C.3    57  C57         0.0000
    926  N1        27.0630   33.2780   61.7840 N.ar   57  C57         0.0000
    927  C2        28.0170   32.2690   61.6070 C.ar   57  C57         0.0000
    928  O2        27.6510   31.0900   61.6280 O.2    57  C57         0.0000
    929  N3        29.3090   32.6090   61.4160 N.ar   57  C57         0.0000
    930  C4        29.6610   33.8970   61.3940 C.ar   57  C57         0.0000
    931  N4        30.9460   34.1880   61.1960 N.pl3  57  C57         0.0000
    932  C5        28.7100   34.9430   61.5730 C.ar   57  C57         0.0000
    933  C6        27.4360   34.5930   61.7630 C.ar   57  C57         0.0000
    934  OP1       24.3610   38.9540   62.4220 O.3    57  C57        -0.5000
    935  OP2       26.7750   38.4520   61.7100 O.co2  57  C57        -0.5000
    936  P         24.8950   34.3590   66.4610 P.3    58  C58         0.0000
    937  C5'       24.6180   31.7940   66.8870 C.3    58  C58         0.0000
    938  O5'       25.4820   32.9170   66.8020 O.3    58  C58         0.0000
    939  C4'       25.4160   30.5220   66.9770 C.3    58  C58         0.0000
    940  O4'       26.2210   30.3730   65.7820 O.3    58  C58         0.0000
    941  C3'       26.4270   30.4660   68.1070 C.3    58  C58         0.0000
    942  O3'       25.8220   30.0670   69.3250 O.3    58  C58         0.0000
    943  C2'       27.4320   29.4320   67.6050 C.3    58  C58         0.0000
    944  O2'       27.0140   28.1040   67.8170 O.3    58  C58         0.0000
    945  C1'       27.4320   29.7140   66.1060 C.3    58  C58         0.0000
    946  N1        28.5390   30.5570   65.6660 N.ar   58  C58         0.0000
    947  C2        29.8270   30.0530   65.7420 C.ar   58  C58         0.0000
    948  O2        29.9970   28.9310   66.2410 O.2    58  C58         0.0000
    949  N3        30.8580   30.7930   65.2760 N.ar   58  C58         0.0000
    950  C4        30.6280   31.9980   64.7560 C.ar   58  C58         0.0000
    951  N4        31.6680   32.6830   64.2860 N.pl3  58  C58         0.0000
    952  C5        29.3170   32.5520   64.6920 C.ar   58  C58         0.0000
    953  C6        28.3120   31.8070   65.1600 C.ar   58  C58         0.0000
    954  OP1       23.8780   34.6950   67.4900 O.3    58  C58        -0.5000
    955  OP2       26.0310   35.2890   66.2220 O.co2  58  C58        -0.5000
    956  P         26.5500   30.4140   70.7050 P.3    59  U59         0.0000
    957  C5'       27.9010   28.1630   70.7730 C.3    59  U59         0.0000
    958  O5'       27.9030   29.5790   70.6380 O.3    59  U59         0.0000
    959  C4'       29.3160   27.6610   70.8460 C.3    59  U59         0.0000
    960  O4'       29.9960   27.9720   69.6050 O.3    59  U59         0.0000
    961  C3'       30.1360   28.3430   71.9210 C.3    59  U59         0.0000
    962  O3'       29.9720   27.6370   73.1370 O.3    59  U59         0.0000
    963  C2'       31.5560   28.2650   71.3730 C.3    59  U59         0.0000
    964  O2'       32.1540   27.0050   71.5980 O.3    59  U59         0.0000
    965  C1'       31.3100   28.4130   69.8740 C.3    59  U59         0.0000
    966  N1        31.4620   29.7520   69.2890 N.ar   59  U59         0.0000
    967  C2        32.7370   30.1710   68.9700 C.ar   59  U59         0.0000
    968  O2        33.7340   29.5250   69.2550 O.2    59  U59         0.0000
    969  N3        32.8040   31.3730   68.3020 N.ar   59  U59         0.0000
    970  C4        31.7450   32.1920   67.9480 C.ar   59  U59         0.0000
    971  O4        31.9670   33.2300   67.3190 O.3    59  U59         0.0000
    972  C5        30.4600   31.7150   68.3590 C.ar   59  U59         0.0000
    973  C6        30.3640   30.5450   69.0080 C.ar   59  U59         0.0000
    974  OP1       25.7280   29.9020   71.8370 O.3    59  U59        -0.5000
    975  OP2       26.8990   31.8590   70.6450 O.co2  59  U59        -0.5000
    976  P         29.8790   28.4510   74.5060 P.3    60  G60         0.0000
    977  C5'       32.4080   28.0540   74.9870 C.3    60  G60         0.0000
    978  O5'       31.3630   28.9640   74.7120 O.3    60  G60         0.0000
    979  C4'       33.7220   28.7640   74.8660 C.3    60  G60         0.0000
    980  O4'       33.8700   29.2210   73.4940 O.3    60  G60         0.0000
    981  C3'       33.8360   30.0250   75.7040 C.3    60  G60         0.0000
    982  O3'       34.3450   29.7020   76.9970 O.3    60  G60         0.0000
    983  C2'       34.9110   30.7860   74.9360 C.3    60  G60         0.0000
    984  O2'       36.1820   30.2410   75.2040 O.3    60  G60         0.0000
    985  C1'       34.5680   30.4490   73.4810 C.3    60  G60         0.0000
    986  N1        34.3730   34.2430   70.0990 N.pl3  60  G60         0.3300
    987  C2        35.4620   33.5490   70.5350 C.cat  60  G60         0.0000
    988  N2        36.6380   33.9070   69.9980 N.pl3  60  G60         0.3300
    989  N3        35.4050   32.5790   71.4320 N.2    60  G60         0.3300
    990  C4        34.1430   32.3700   71.8640 C.3    60  G60         0.0000
    991  C5        32.9950   33.0190   71.4830 C.2    60  G60         0.0000
    992  C6        33.0700   34.0370   70.5310 C.2    60  G60         0.0000
    993  O6        32.1550   34.7200   70.0720 O.2    60  G60         0.0000
    994  N7        31.9000   32.5190   72.1580 N.2    60  G60         0.0000
    995  C8        32.3890   31.5830   72.9240 C.2    60  G60         0.0000
    996  N9        33.7390   31.4320   72.7910 N.pl3  60  G60         0.0000
    997  OP1       29.5610   27.5170   75.6190 O.3    60  G60        -0.5000
    998  OP2       29.0290   29.6430   74.2860 O.co2  60  G60        -0.5000
    999  P         33.3640   29.6060   78.2820 P.3    61  A61         0.0000
   1000  C5'       31.1530   30.8550   79.0310 C.3    61  A61         0.0000
   1001  O5'       32.1550   30.6290   78.0180 O.3    61  A61         0.0000
   1002  C4'       30.0970   31.8530   78.5650 C.3    61  A61         0.0000
   1003  O4'       30.7390   33.0840   78.1620 O.3    61  A61         0.0000
   1004  C3'       29.3460   31.3460   77.3400 C.3    61  A61         0.0000
   1005  O3'       27.9340   31.5930   77.3380 O.3    61  A61         0.0000
   1006  C2'       30.0360   31.9860   76.1470 C.3    61  A61         0.0000
   1007  O2'       29.1160   32.3360   75.1360 O.3    61  A61         0.0000
   1008  C1'       30.6070   33.2600   76.7740 C.3    61  A61         0.0000
   1009  N1        32.6930   36.1180   73.0790 N.ar   61  A61         0.0000
   1010  C2        31.4310   35.8260   73.3860 C.ar   61  A61         0.0000
   1011  N3        30.9570   35.0820   74.3810 N.ar   61  A61         0.0000
   1012  C4        31.9580   34.5960   75.1320 C.ar   61  A61         0.0000
   1013  C5        33.3020   34.8090   74.9480 C.ar   61  A61         0.0000
   1014  C6        33.6780   35.6110   73.8560 C.ar   61  A61         0.0000
   1015  N6        34.9510   35.8920   73.5480 N.pl3  61  A61         0.0000
   1016  N7        34.0370   34.1520   75.9230 N.ar   61  A61         0.0000
   1017  C8        33.1300   33.5570   76.6560 C.ar   61  A61         0.0000
   1018  N9        31.8550   33.7760   76.2280 N.ar   61  A61         0.0000
   1019  OP1       34.1200   30.1020   79.4560 O.3    61  A61        -0.5000
   1020  OP2       32.8390   28.2150   78.2890 O.co2  61  A61        -0.5000
   1021  P         27.0420   31.3090   78.6500 P.3    62  U62         0.0000
   1022  C5'       26.7280   33.7420   79.6190 C.3    62  U62         0.0000
   1023  O5'       27.3960   32.4840   79.6720 O.3    62  U62         0.0000
   1024  C4'       26.9390   34.5080   80.9080 C.3    62  U62         0.0000
   1025  O4'       26.1970   33.8830   81.9840 O.3    62  U62         0.0000
   1026  C3'       28.4080   34.4680   81.3270 C.3    62  U62         0.0000
   1027  O3'       28.8540   35.7220   81.8380 O.3    62  U62         0.0000
   1028  C2'       28.5090   33.3410   82.3500 C.3    62  U62         0.0000
   1029  O2'       29.4090   33.6550   83.3880 O.3    62  U62         0.0000
   1030  C1'       27.0900   33.3310   82.9200 C.3    62  U62         0.0000
   1031  N1        26.5390   32.0800   83.4400 N.ar   62  U62         0.0000
   1032  C2        26.4890   31.9630   84.8030 C.ar   62  U62         0.0000
   1033  O2        26.8840   32.8360   85.5480 O.2    62  U62         0.0000
   1034  N3        25.9500   30.7940   85.2650 N.ar   62  U62         0.0000
   1035  C4        25.4600   29.7590   84.5100 C.ar   62  U62         0.0000
   1036  O4        24.9880   28.7760   85.0760 O.2    62  U62         0.0000
   1037  C5        25.5500   29.9540   83.0960 C.ar   62  U62         0.0000
   1038  C6        26.0800   31.0810   82.6210 C.ar   62  U62         0.0000
   1039  OP1       27.4810   30.0160   79.2500 O.3    62  U62        -0.5000
   1040  OP2       25.6330   31.4810   78.2180 O.co2  62  U62        -0.5000
   1041  P         29.8000   36.6540   80.9680 P.3    63  C63         0.0000
   1042  C5'       31.8080   35.0030   81.2510 C.3    63  C63         0.0000
   1043  O5'       30.8900   35.6590   80.3890 O.3    63  C63         0.0000
   1044  C4'       33.2240   35.3200   80.8360 C.3    63  C63         0.0000
   1045  O4'       33.3620   35.0230   79.4260 O.3    63  C63         0.0000
   1046  C3'       33.6330   36.7770   80.9630 C.3    63  C63         0.0000
   1047  O3'       34.1300   37.0190   82.2760 O.3    63  C63         0.0000
   1048  C2'       34.7350   36.8890   79.9200 C.3    63  C63         0.0000
   1049  O2'       35.9690   36.3750   80.3550 O.3    63  C63         0.0000
   1050  C1'       34.2040   35.9780   78.8170 C.3    63  C63         0.0000
   1051  N1        33.4250   36.7030   77.8060 N.ar   63  C63         0.0000
   1052  C2        34.1070   37.4840   76.8710 C.ar   63  C63         0.0000
   1053  O2        35.3470   37.5360   76.9230 O.2    63  C63         0.0000
   1054  N3        33.4050   38.1600   75.9400 N.ar   63  C63         0.0000
   1055  C4        32.0790   38.0840   75.9250 C.ar   63  C63         0.0000
   1056  N4        31.4320   38.7780   74.9950 N.pl3  63  C63         0.0000
   1057  C5        31.3590   37.2950   76.8640 C.ar   63  C63         0.0000
   1058  C6        32.0630   36.6260   77.7760 C.ar   63  C63         0.0000
   1059  OP1       30.4800   37.5640   81.9130 O.3    63  C63         0.0000
   1060  OP2       28.9940   37.2170   79.8520 O.co2  63  C63        -1.0000
   1061  P         34.0690   38.4960   82.9040 P.3    64  U64         0.0000
   1062  C5'       36.5550   39.1020   82.2860 C.3    64  U64         0.0000
   1063  O5'       35.1700   39.3050   82.0860 O.3    64  U64         0.0000
   1064  C4'       37.3350   40.0460   81.4090 C.3    64  U64         0.0000
   1065  O4'       37.1430   39.6750   80.0240 O.3    64  U64         0.0000
   1066  C3'       36.9110   41.5050   81.4450 C.3    64  U64         0.0000
   1067  O3'       37.5220   42.1950   82.5160 O.3    64  U64         0.0000
   1068  C2'       37.4760   42.0150   80.1350 C.3    64  U64         0.0000
   1069  O2'       38.8710   42.2510   80.2200 O.3    64  U64         0.0000
   1070  C1'       37.1860   40.8330   79.2100 C.3    64  U64         0.0000
   1071  N1        35.8830   40.9760   78.5470 N.ar   64  U64         0.0000
   1072  C2        35.8390   41.7000   77.3680 C.ar   64  U64         0.0000
   1073  O2        36.8330   42.2000   76.8610 O.2    64  U64         0.0000
   1074  N3        34.5880   41.8170   76.8080 N.ar   64  U64         0.0000
   1075  C4        33.4100   41.2960   77.3000 C.ar   64  U64         0.0000
   1076  O4        32.3640   41.4870   76.6880 O.2    64  U64         0.0000
   1077  C5        33.5440   40.5570   78.5170 C.ar   64  U64         0.0000
   1078  C6        34.7440   40.4230   79.0820 C.ar   64  U64         0.0000
   1079  OP1       34.4480   38.4180   84.3320 O.2    64  U64         0.0000
   1080  OP2       32.7730   39.1230   82.5320 O.co2  64  U64        -1.0000
   1081  P         36.7350   43.3790   83.2450 P.3    65  G65         0.0000
   1082  C5'       38.0750   45.3180   82.0840 C.3    65  G65         0.0000
   1083  O5'       36.8430   44.6090   82.2330 O.3    65  G65         0.0000
   1084  C4'       37.9930   46.3380   80.9600 C.3    65  G65         0.0000
   1085  O4'       37.7740   45.6780   79.6820 O.3    65  G65         0.0000
   1086  C3'       36.8670   47.3510   81.0220 C.3    65  G65         0.0000
   1087  O3'       37.1480   48.4190   81.9060 O.3    65  G65         0.0000
   1088  C2'       36.8250   47.8430   79.5860 C.3    65  G65         0.0000
   1089  O2'       37.8680   48.7440   79.3140 O.3    65  G65         0.0000
   1090  C1'       37.0400   46.5400   78.8190 C.3    65  G65         0.0000
   1091  N1        32.8970   46.5540   75.8740 N.ar   65  G65         0.0000
   1092  C2        34.0270   47.3140   75.7720 C.ar   65  G65         0.0000
   1093  N2        34.0330   48.2070   74.7790 N.pl3  65  G65         0.0000
   1094  N3        35.0690   47.2050   76.5830 N.ar   65  G65         0.0000
   1095  C4        34.8750   46.2570   77.5270 C.ar   65  G65         0.0000
   1096  C5        33.7790   45.4450   77.7120 C.ar   65  G65         0.0000
   1097  C6        32.6760   45.5710   76.8280 C.ar   65  G65         0.0000
   1098  O6        31.6140   44.9370   76.8200 O.2    65  G65         0.0000
   1099  N7        33.9710   44.5980   78.7960 N.ar   65  G65         0.0000
   1100  C8        35.1570   44.9060   79.2440 C.ar   65  G65         0.0000
   1101  N9        35.7530   45.9170   78.5340 N.ar   65  G65         0.0000
   1102  OP1       37.4840   43.6930   84.4910 O.3    65  G65        -0.5000
   1103  OP2       35.3170   42.9650   83.3310 O.co2  65  G65        -0.5000
   1104  P         35.9400   49.3240   82.4430 P.3    66  G66         0.0000
   1105  C5'       36.1110   50.8280   80.3000 C.3    66  G66         0.0000
   1106  O5'       35.3330   49.9600   81.1130 O.3    66  G66         0.0000
   1107  C4'       35.2800   51.3590   79.1670 C.3    66  G66         0.0000
   1108  O4'       34.8570   50.2570   78.3240 O.3    66  G66         0.0000
   1109  C3'       33.9630   51.9900   79.5640 C.3    66  G66         0.0000
   1110  O3'       34.1250   53.3170   80.0210 O.3    66  G66         0.0000
   1111  C2'       33.1920   51.9460   78.2550 C.3    66  G66         0.0000
   1112  O2'       33.5990   52.9650   77.3660 O.3    66  G66         0.0000
   1113  C1'       33.6160   50.5810   77.7120 C.3    66  G66         0.0000
   1114  N1        29.2560   48.3770   76.3580 N.ar   66  G66         0.0000
   1115  C2        29.9240   49.4180   75.7690 C.ar   66  G66         0.0000
   1116  N2        29.3510   49.9430   74.6770 N.pl3  66  G66         0.0000
   1117  N3        31.0680   49.9080   76.2150 N.ar   66  G66         0.0000
   1118  C4        31.4990   49.2570   77.3190 C.ar   66  G66         0.0000
   1119  C5        30.9090   48.2060   77.9800 C.ar   66  G66         0.0000
   1120  C6        29.6770   47.6950   77.4910 C.ar   66  G66         0.0000
   1121  O6        28.9890   46.7750   77.9400 O.2    66  G66         0.0000
   1122  N7        31.6780   47.8180   79.0680 N.pl3  66  G66         0.0000
   1123  C8        32.6970   48.6310   79.0510 C.3    66  G66         0.0000
   1124  N9        32.6510   49.5310   78.0190 N.pl3  66  G66         0.0000
   1125  OP1       36.4860   50.4190   83.2900 O.3    66  G66        -0.5000
   1126  OP2       34.9170   48.4000   82.9970 O.co2  66  G66        -0.5000
   1127  P         32.9030   54.0400   80.7670 P.3    67  A67         0.0000
   1128  C5'       30.5300   54.5920   79.7990 C.3    67  A67         0.0000
   1129  O5'       31.9170   54.4110   79.5750 O.3    67  A67         0.0000
   1130  C4'       29.7870   54.5490   78.4900 C.3    67  A67         0.0000
   1131  O4'       30.0570   53.2870   77.8190 O.3    67  A67         0.0000
   1132  C3'       28.2820   54.5780   78.6560 C.3    67  A67         0.0000
   1133  O3'       27.8260   55.9110   78.7660 O.3    67  A67         0.0000
   1134  C2'       27.8050   53.8550   77.4090 C.3    67  A67         0.0000
   1135  O2'       27.8700   54.6610   76.2580 O.3    67  A67         0.0000
   1136  C1'       28.8480   52.7400   77.3210 C.3    67  A67         0.0000
   1137  N1        25.6080   48.8420   78.1910 N.ar   67  A67         0.0000
   1138  C2        25.6700   49.7450   77.2120 C.ar   67  A67         0.0000
   1139  N3        26.5430   50.7270   77.0310 N.ar   67  A67         0.0000
   1140  C4        27.4510   50.7390   78.0200 C.ar   67  A67         0.0000
   1141  C5        27.5130   49.8740   79.0950 C.ar   67  A67         0.0000
   1142  C6        26.5360   48.8820   79.1690 C.ar   67  A67         0.0000
   1143  N6        26.4720   47.9840   80.1470 N.pl3  67  A67         0.0000
   1144  N7        28.5850   50.1870   79.9160 N.ar   67  A67         0.0000
   1145  C8        29.1370   51.2200   79.3290 C.ar   67  A67         0.0000
   1146  N9        28.4980   51.6120   78.1810 N.ar   67  A67         0.0000
   1147  OP1       33.4210   55.2970   81.3640 O.2    67  A67        -0.5000
   1148  OP2       32.2100   53.0460   81.6300 O.co2  67  A67        -0.5000
   1149  P         26.9520   56.3330   80.0390 P.3    68  U68         0.0000
   1150  C5'       24.9700   55.7920   78.4240 C.3    68  U68         0.0000
   1151  O5'       25.5340   55.6890   79.7270 O.3    68  U68         0.0000
   1152  C4'       23.8590   54.7850   78.2500 C.3    68  U68         0.0000
   1153  O4'       24.4060   53.4420   78.2350 O.3    68  U68         0.0000
   1154  C3'       22.8430   54.7190   79.3720 C.3    68  U68         0.0000
   1155  O3'       21.8940   55.7660   79.2770 O.3    68  U68         0.0000
   1156  C2'       22.2090   53.3580   79.1300 C.3    68  U68         0.0000
   1157  O2'       21.2570   53.3870   78.0910 O.3    68  U68         0.0000
   1158  C1'       23.4190   52.5330   78.6880 C.3    68  U68         0.0000
   1159  N1        23.9760   51.7310   79.7820 N.ar   68  U68         0.0000
   1160  C2        23.4070   50.4960   80.0050 C.ar   68  U68         0.0000
   1161  O2        22.4960   50.0660   79.3310 O.2    68  U68         0.0000
   1162  N3        23.9410   49.7850   81.0490 N.ar   68  U68         0.0000
   1163  C4        24.9660   50.1790   81.8750 C.ar   68  U68         0.0000
   1164  O4        25.3300   49.4290   82.7800 O.2    68  U68         0.0000
   1165  C5        25.5100   51.4710   81.5790 C.ar   68  U68         0.0000
   1166  C6        25.0090   52.1860   80.5630 C.ar   68  U68         0.0000
   1167  OP1       26.8150   57.8070   80.0420 O.2    68  U68        -0.5000
   1168  OP2       27.5110   55.6410   81.2290 O.co2  68  U68        -0.5000
   1169  P         21.3310   56.4450   80.6190 P.3    69  A69         0.0000
   1170  C5'       19.7030   55.4640   82.4590 C.3    69  A69         0.0000
   1171  O5'       20.2250   55.4120   81.1280 O.3    69  A69         0.0000
   1172  C4'       18.6950   54.3540   82.6590 C.3    69  A69         0.0000
   1173  O4'       17.5320   54.5980   81.8240 O.3    69  A69         0.0000
   1174  C3'       19.2040   52.9910   82.2300 C.3    69  A69         0.0000
   1175  O3'       19.8890   52.3530   83.2980 O.3    69  A69         0.0000
   1176  C2'       17.9280   52.2480   81.8480 C.3    69  A69         0.0000
   1177  O2'       17.2770   51.6540   82.9520 O.3    69  A69         0.0000
   1178  C1'       17.0650   53.3740   81.2730 C.3    69  A69         0.0000
   1179  N1        15.5800   51.3410   76.7450 N.ar   69  A69         0.0000
   1180  C2        15.4610   50.9040   77.9990 C.ar   69  A69         0.0000
   1181  N3        15.8830   51.4630   79.1350 N.ar   69  A69         0.0000
   1182  C4        16.5070   52.6250   78.8920 C.ar   69  A69         0.0000
   1183  C5        16.7080   53.2050   77.6550 C.ar   69  A69         0.0000
   1184  C6        16.2080   52.5160   76.5320 C.ar   69  A69         0.0000
   1185  N6        16.3210   52.9630   75.2760 N.pl3  69  A69         0.0000
   1186  N7        17.3940   54.4020   77.7800 N.ar   69  A69         0.0000
   1187  C8        17.5880   54.5210   79.0710 C.ar   69  A69         0.0000
   1188  N9        17.0630   53.4910   79.8080 N.ar   69  A69         0.0000
   1189  OP1       20.6650   57.7220   80.2610 O.3    69  A69         0.0000
   1190  OP2       22.4580   56.4520   81.5810 O.co2  69  A69        -1.0000
   1191  P         21.1300   51.3900   82.9800 P.3    70  A70         0.0000
   1192  C5'       19.9170   49.0950   82.7970 C.3    70  A70         0.0000
   1193  O5'       20.4810   50.2150   82.1350 O.3    70  A70         0.0000
   1194  C4'       19.4260   48.0910   81.7920 C.3    70  A70         0.0000
   1195  O4'       18.4800   48.7490   80.9090 O.3    70  A70         0.0000
   1196  C3'       20.4580   47.5030   80.8470 C.3    70  A70         0.0000
   1197  O3'       21.0940   46.4040   81.4970 O.3    70  A70         0.0000
   1198  C2'       19.5650   47.0370   79.7060 C.3    70  A70         0.0000
   1199  O2'       18.8140   45.9100   80.1070 O.3    70  A70         0.0000
   1200  C1'       18.5650   48.1880   79.6150 C.3    70  A70         0.0000
   1201  N1        18.2470   49.9320   74.7680 N.ar   70  A70         0.0000
   1202  C2        17.8900   48.7740   75.3210 C.ar   70  A70         0.0000
   1203  N3        18.0210   48.3660   76.5810 N.ar   70  A70         0.0000
   1204  C4        18.6060   49.3150   77.3330 C.ar   70  A70         0.0000
   1205  C5        19.0320   50.5570   76.9050 C.ar   70  A70         0.0000
   1206  C6        18.8340   50.8660   75.5480 C.ar   70  A70         0.0000
   1207  N6        19.1870   52.0290   74.9980 N.pl3  70  A70         0.0000
   1208  N7        19.5860   51.2780   77.9570 N.ar   70  A70         0.0000
   1209  C8        19.4800   50.4700   78.9830 C.ar   70  A70         0.0000
   1210  N9        18.8820   49.2690   78.6820 N.ar   70  A70         0.0000
   1211  OP1       21.6120   50.7710   84.2350 O.3    70  A70        -0.5000
   1212  OP2       22.0750   52.1500   82.1360 O.co2  70  A70        -0.5000
   1213  P         22.6330   46.0320   81.1670 P.3    71  U71         0.0000
   1214  C5'       21.8350   43.9230   79.8350 C.3    71  U71         0.0000
   1215  O5'       22.5400   45.1620   79.8360 O.3    71  U71         0.0000
   1216  C4'       21.3920   43.5680   78.4400 C.3    71  U71         0.0000
   1217  O4'       20.5150   44.6060   77.9330 O.3    71  U71         0.0000
   1218  C3'       22.4860   43.4980   77.3930 C.3    71  U71         0.0000
   1219  O3'       23.1320   42.2390   77.4290 O.3    71  U71         0.0000
   1220  C2'       21.6970   43.6610   76.1020 C.3    71  U71         0.0000
   1221  O2'       21.0670   42.4510   75.7210 O.3    71  U71         0.0000
   1222  C1'       20.6370   44.6800   76.5230 C.3    71  U71         0.0000
   1223  N1        20.9900   46.0550   76.1530 N.ar   71  U71         0.0000
   1224  C2        20.4990   46.5270   74.9520 C.ar   71  U71         0.0000
   1225  O2        19.7980   45.8480   74.2210 O.2    71  U71         0.0000
   1226  N3        20.8590   47.8170   74.6420 N.ar   71  U71         0.0000
   1227  C4        21.6490   48.6610   75.4000 C.ar   71  U71         0.0000
   1228  O4        21.8860   49.8040   74.9930 O.2    71  U71         0.0000
   1229  C5        22.1180   48.0940   76.6310 C.ar   71  U71         0.0000
   1230  C6        21.7790   46.8420   76.9580 C.ar   71  U71         0.0000
   1231  OP1       23.0160   45.1270   82.2850 O.3    71  U71        -0.5000
   1232  OP2       23.4700   47.2320   80.8720 O.co2  71  U71        -0.5000
   1233  P         24.6380   42.1150   76.9040 P.3    72  G72         0.0000
   1234  C5'       25.6460   41.7920   74.4970 C.3    72  G72         0.0000
   1235  O5'       24.5020   41.9850   75.3240 O.3    72  G72         0.0000
   1236  C4'       25.2410   41.1660   73.1730 C.3    72  G72         0.0000
   1237  O4'       24.9210   39.7470   73.3330 O.3    72  G72         0.0000
   1238  C3'       23.9840   41.7450   72.5500 C.3    72  G72         0.0000
   1239  O3'       24.2130   43.0210   71.9380 O.3    72  G72         0.0000
   1240  C2'       23.5630   40.6280   71.5900 C.3    72  G72         0.0000
   1241  O2'       24.2500   40.6160   70.3560 O.3    72  G72         0.0000
   1242  C1'       23.9330   39.3680   72.3840 C.3    72  G72         0.0000
   1243  N1        21.7770   38.1710   76.8650 N.ar   72  G72         0.0000
   1244  C2        23.0240   38.6830   76.6150 C.ar   72  G72         0.0000
   1245  N2        23.7840   38.9210   77.6880 N.pl3  72  G72         0.0000
   1246  N3        23.4940   38.9430   75.4040 N.ar   72  G72         0.0000
   1247  C4        22.5990   38.6380   74.4400 C.ar   72  G72         0.0000
   1248  C5        21.3260   38.1140   74.5850 C.ar   72  G72         0.0000
   1249  C6        20.8360   37.8520   75.8980 C.ar   72  G72         0.0000
   1250  O6        19.7360   37.4080   76.2390 O.2    72  G72         0.0000
   1251  N7        20.7200   37.9360   73.3440 N.ar   72  G72         0.0000
   1252  C8        21.6120   38.3580   72.4840 C.ar   72  G72         0.0000
   1253  N9        22.7740   38.8090   73.0780 N.ar   72  G72         0.0000
   1254  OP1       25.1860   40.8490   77.4350 O.3    72  G72        -0.5000
   1255  OP2       25.3080   43.3970   77.2160 O.co2  72  G72        -0.5000
   1256  P         22.9580   43.8750   71.4010 P.3    73  C73         0.0000
   1257  C5'       22.6860   46.4290   70.8830 C.3    73  C73         0.0000
   1258  O5'       23.3210   45.4030   71.6500 O.3    73  C73         0.0000
   1259  C4'       23.5180   47.6840   70.9000 C.3    73  C73         0.0000
   1260  O4'       23.5060   48.2440   72.2380 O.3    73  C73         0.0000
   1261  C3'       24.9840   47.4550   70.5680 C.3    73  C73         0.0000
   1262  O3'       25.1850   47.5230   69.1610 O.3    73  C73         0.0000
   1263  C2'       25.6860   48.5700   71.3370 C.3    73  C73         0.0000
   1264  O2'       25.7170   49.7900   70.6390 O.3    73  C73         0.0000
   1265  C1'       24.8020   48.6980   72.5820 C.3    73  C73         0.0000
   1266  N1        25.2710   47.8750   73.7030 N.ar   73  C73         0.0000
   1267  C2        26.2710   48.3690   74.5410 C.ar   73  C73         0.0000
   1268  O2        26.7330   49.5040   74.3300 O.2    73  C73         0.0000
   1269  N3        26.7150   47.5960   75.5610 N.ar   73  C73         0.0000
   1270  C4        26.2070   46.3810   75.7440 C.ar   73  C73         0.0000
   1271  N4        26.6910   45.6480   76.7320 N.pl3  73  C73         0.0000
   1272  C5        25.1810   45.8630   74.9120 C.ar   73  C73         0.0000
   1273  C6        24.7440   46.6370   73.9160 C.ar   73  C73         0.0000
   1274  OP1       21.7940   43.5200   72.2460 O.3    73  C73         0.0000
   1275  OP2       22.8820   43.6910   69.9290 O.co2  73  C73        -1.0000
   1276  P         26.6030   47.1070   68.5300 P.3    74  C74         0.0000
   1277  C5'       27.9200   49.3590   68.8120 C.3    74  C74         0.0000
   1278  O5'       27.6270   48.0580   69.2960 O.3    74  C74         0.0000
   1279  C4'       29.2730   49.8030   69.3060 C.3    74  C74         0.0000
   1280  O4'       29.2200   49.9740   70.7400 O.3    74  C74         0.0000
   1281  C3'       30.4040   48.8110   69.0810 C.3    74  C74         0.0000
   1282  O3'       30.9910   49.0130   67.8050 O.3    74  C74         0.0000
   1283  C2'       31.3880   49.1920   70.1700 C.3    74  C74         0.0000
   1284  O2'       32.1470   50.3170   69.7930 O.3    74  C74         0.0000
   1285  C1'       30.4450   49.5630   71.3140 C.3    74  C74         0.0000
   1286  N1        30.1660   48.4380   72.2040 N.ar   74  C74         0.0000
   1287  C2        31.1030   48.1040   73.1730 C.ar   74  C74         0.0000
   1288  O2        32.1470   48.7720   73.2540 O.2    74  C74         0.0000
   1289  N3        30.8530   47.0640   74.0000 N.ar   74  C74         0.0000
   1290  C4        29.7220   46.3710   73.8760 C.ar   74  C74         0.0000
   1291  N4        29.5200   45.3530   74.7110 N.pl3  74  C74         0.0000
   1292  C5        28.7480   46.6920   72.8930 C.ar   74  C74         0.0000
   1293  C6        29.0080   47.7260   72.0870 C.ar   74  C74         0.0000
   1294  OP1       26.6040   47.5070   67.1030 O.2    74  C74        -0.5000
   1295  OP2       26.8970   45.6910   68.8800 O.co2  74  C74        -0.5000
   1296  P         31.7690   47.8130   67.0910 P.3    75  A75         0.0000
   1297  C5'       34.0600   48.6750   68.0570 C.3    75  A75         0.0000
   1298  O5'       33.0800   47.6430   67.9730 O.3    75  A75         0.0000
   1299  C4'       35.0730   48.3340   69.1250 C.3    75  A75         0.0000
   1300  O4'       34.4070   48.3190   70.4140 O.3    75  A75         0.0000
   1301  C3'       35.6770   46.9420   69.0220 C.3    75  A75         0.0000
   1302  O3'       36.7740   46.8960   68.1190 O.3    75  A75         0.0000
   1303  C2'       36.1290   46.6880   70.4490 C.3    75  A75         0.0000
   1304  O2'       37.3430   47.3460   70.7420 O.3    75  A75         0.0000
   1305  C1'       34.9910   47.3290   71.2400 C.3    75  A75         0.0000
   1306  N1        33.7280   43.6030   74.5240 N.ar   75  A75         0.0000
   1307  C2        34.8320   44.3350   74.3800 C.ar   75  A75         0.0000
   1308  N3        35.0980   45.2880   73.4940 N.ar   75  A75         0.0000
   1309  C4        34.0530   45.4740   72.6670 C.ar   75  A75         0.0000
   1310  C5        32.8520   44.7970   72.6910 C.ar   75  A75         0.0000
   1311  C6        32.6980   43.8120   73.6790 C.ar   75  A75         0.0000
   1312  N6        31.5970   43.0790   73.8250 N.pl3  75  A75         0.0000
   1313  N7        32.0080   45.2590   71.6910 N.ar   75  A75         0.0000
   1314  C8        32.7120   46.1910   71.0920 C.ar   75  A75         0.0000
   1315  N9        33.9560   46.3770   71.6350 N.ar   75  A75         0.0000
   1316  OP1       32.1530   48.2510   65.7300 O.2    75  A75        -0.5000
   1317  OP2       30.9660   46.5790   67.2690 O.co2  75  A75        -0.5000
   1318  P         37.2880   45.4790   67.5710 P.3    76  G76         0.0000
   1319  C5'       39.0190   45.3970   69.5290 C.3    76  G76         0.0000
   1320  O5'       37.9340   44.7870   68.8470 O.3    76  G76         0.0000
   1321  C4'       39.5080   44.5000   70.6360 C.3    76  G76         0.0000
   1322  O4'       38.5210   44.4330   71.6960 O.3    76  G76         0.0000
   1323  C3'       39.7640   43.0530   70.2480 C.3    76  G76         0.0000
   1324  O3'       41.0670   42.9420   69.6840 O.3    76  G76         0.0000
   1325  C2'       39.6750   42.3520   71.5990 C.3    76  G76         0.0000
   1326  O2'       40.8520   42.4880   72.3690 O.3    76  G76         0.0000
   1327  C1'       38.5600   43.1450   72.2880 C.3    76  G76         0.0000
   1328  N1        35.2920   39.8050   74.2790 N.ar   76  G76         0.0000
   1329  C2        36.5870   40.0670   74.6350 C.ar   76  G76         0.0000
   1330  N2        37.0710   39.3700   75.6690 N.pl3  76  G76         0.0000
   1331  N3        37.3520   40.9510   74.0230 N.ar   76  G76         0.0000
   1332  C4        36.7100   41.5620   73.0050 C.ar   76  G76         0.0000
   1333  C5        35.4230   41.3700   72.5680 C.ar   76  G76         0.0000
   1334  C6        34.6070   40.4220   73.2400 C.ar   76  G76         0.0000
   1335  O6        33.4270   40.1170   73.0140 O.2    76  G76         0.0000
   1336  N7        35.1430   42.1940   71.4890 N.ar   76  G76         0.0000
   1337  C8        36.2440   42.8640   71.2960 C.ar   76  G76         0.0000
   1338  N9        37.2310   42.5430   72.1910 N.ar   76  G76         0.0000
   1339  OP1       38.3590   45.7180   66.5680 O.2    76  G76        -0.5000
   1340  OP2       36.0940   44.6750   67.2000 O.co2  76  G76        -0.5000
   1341  P         41.4220   41.7240   68.6890 P.3    77  C77         0.0000
   1342  C5'       41.6330   39.8620   70.5210 C.3    77  C77         0.0000
   1343  O5'       40.8950   40.4260   69.4450 O.3    77  C77         0.0000
   1344  C4'       40.8690   38.7160   71.1260 C.3    77  C77         0.0000
   1345  O4'       39.5910   39.1980   71.6040 O.3    77  C77         0.0000
   1346  C3'       40.5050   37.6050   70.1590 C.3    77  C77         0.0000
   1347  O3'       41.5730   36.6790   70.0800 O.3    77  C77         0.0000
   1348  C2'       39.2980   36.9680   70.8310 C.3    77  C77         0.0000
   1349  O2'       39.6870   36.0880   71.8610 O.3    77  C77         0.0000
   1350  C1'       38.6150   38.1840   71.4520 C.3    77  C77         0.0000
   1351  N1        37.4810   38.7300   70.6880 N.ar   77  C77         0.0000
   1352  C2        36.2220   38.1460   70.8540 C.ar   77  C77         0.0000
   1353  O2        36.1160   37.1550   71.5860 O.2    77  C77         0.0000
   1354  N3        35.1560   38.6710   70.2160 N.ar   77  C77         0.0000
   1355  C4        35.3130   39.7260   69.4270 C.ar   77  C77         0.0000
   1356  N4        34.2330   40.2180   68.8360 N.pl3  77  C77         0.0000
   1357  C5        36.5890   40.3260   69.2130 C.ar   77  C77         0.0000
   1358  C6        37.6370   39.7990   69.8560 C.ar   77  C77         0.0000
   1359  OP1       42.9060   41.6010   68.6140 O.3    77  C77        -0.5000
   1360  OP2       40.6410   41.9000   67.4410 O.co2  77  C77        -0.5000
   1361  P         41.6220   35.6240   68.8790 P.3    78  G78         0.0000
   1362  C5'       41.7220   36.0890   66.2990 C.3    78  G78         0.0000
   1363  O5'       41.2530   36.4860   67.5850 O.3    78  G78         0.0000
   1364  C4'       41.2150   37.0220   65.2170 C.3    78  G78         0.0000
   1365  O4'       39.8250   36.7420   64.9210 O.3    78  G78         0.0000
   1366  C3'       41.2560   38.4860   65.5900 C.3    78  G78         0.0000
   1367  O3'       42.1520   39.3260   64.8570 O.3    78  G78         0.0000
   1368  C2'       39.8460   38.8710   66.0390 C.3    78  G78         0.0000
   1369  O2'       39.4050   40.1130   65.5340 O.3    78  G78         0.0000
   1370  C1'       38.9940   37.7830   65.3860 C.3    78  G78         0.0000
   1371  N1        34.0240   37.5180   66.2690 N.ar   78  G78         0.0000
   1372  C2        34.6990   38.2450   65.3410 C.ar   78  G78         0.0000
   1373  N2        33.9530   38.9870   64.5300 N.pl3  78  G78         0.0000
   1374  N3        36.0050   38.2430   65.2130 N.ar   78  G78         0.0000
   1375  C4        36.5970   37.4270   66.1080 C.ar   78  G78         0.0000
   1376  C5        36.0080   36.6470   67.0810 C.ar   78  G78         0.0000
   1377  C6        34.6030   36.6700   67.2010 C.ar   78  G78         0.0000
   1378  O6        33.8870   36.0530   67.9940 O.3    78  G78         0.0000
   1379  N7        36.9660   35.9440   67.8020 N.ar   78  G78         0.0000
   1380  C8        38.1030   36.3030   67.2620 C.ar   78  G78         0.0000
   1381  N9        37.9500   37.1970   66.2230 N.ar   78  G78         0.0000
   1382  OP1       40.5530   34.6160   69.0960 O.3    78  G78        -0.5000
   1383  OP2       43.0350   35.1770   68.7780 O.co2  78  G78        -0.5000
   1384  P         41.7490   39.8380   63.3900 P.3    79  U79         0.0000
   1385  C5'       41.4720   38.4350   61.1680 C.3    79  U79         0.0000
   1386  O5'       42.0860   38.5890   62.4550 O.3    79  U79         0.0000
   1387  C4'       42.1070   37.2820   60.4060 C.3    79  U79         0.0000
   1388  O4'       43.5270   37.5500   60.2260 O.3    79  U79         0.0000
   1389  C3'       42.0440   35.9080   61.0670 C.3    79  U79         0.0000
   1390  O3'       40.8280   35.2460   60.7210 O.3    79  U79         0.0000
   1391  C2'       43.2670   35.2020   60.4860 C.3    79  U79         0.0000
   1392  O2'       43.0470   34.6640   59.1950 O.3    79  U79         0.0000
   1393  C1'       44.2710   36.3530   60.3980 C.3    79  U79         0.0000
   1394  OP1       42.6270   40.9780   63.0520 O.2    79  U79        -0.5000
   1395  OP2       40.2810   40.0220   63.3540 O.co2  79  U79        -0.5000
   1396  P         40.5950   33.7030   61.1360 P.3    80  A80         0.0000
   1397  C5'       41.6790   33.7940   63.5130 C.3    80  A80         0.0000
   1398  O5'       41.7590   33.3530   62.1690 O.3    80  A80         0.0000
   1399  C4'       41.9250   32.6530   64.4630 C.3    80  A80         0.0000
   1400  O4'       41.4400   33.0730   65.7650 O.3    80  A80         0.0000
   1401  C3'       41.1790   31.3680   64.1300 C.3    80  A80         0.0000
   1402  O3'       42.0730   30.4810   63.4450 O.3    80  A80         0.0000
   1403  C2'       40.8010   30.8300   65.5050 C.3    80  A80         0.0000
   1404  O2'       41.8720   30.1400   66.1180 O.3    80  A80         0.0000
   1405  C1'       40.5210   32.1270   66.2670 C.3    80  A80         0.0000
   1406  N1        35.5250   32.0330   67.6490 N.ar   80  A80         0.0000
   1407  C2        36.5790   31.2960   68.0430 C.ar   80  A80         0.0000
   1408  N3        37.8530   31.3610   67.6480 N.ar   80  A80         0.0000
   1409  C4        38.0140   32.3280   66.7280 C.ar   80  A80         0.0000
   1410  C5        37.0310   33.1690   66.2280 C.ar   80  A80         0.0000
   1411  C6        35.7220   32.9970   66.7240 C.ar   80  A80         0.0000
   1412  N6        34.6740   33.7270   66.3320 N.pl3  80  A80         0.0000
   1413  N7        37.5660   34.0470   65.2970 N.ar   80  A80         0.0000
   1414  C8        38.8330   33.7220   65.2490 C.ar   80  A80         0.0000
   1415  N9        39.1780   32.6920   66.0910 N.ar   80  A80         0.0000
   1416  OP1       40.7610   32.8480   59.9260 O.2    80  A80         0.0000
   1417  OP2       39.3190   33.6620   61.8920 O.co2  80  A80        -1.0000
   1418  P         41.5120   29.1630   62.6940 P.3    81  G81         0.0000
   1419  C5'       40.9430   27.5260   64.6580 C.3    81  G81         0.0000
   1420  O5'       40.4980   28.5040   63.7320 O.3    81  G81         0.0000
   1421  C4'       39.7730   26.7240   65.1720 C.3    81  G81         0.0000
   1422  O4'       38.9390   27.5500   66.0250 O.3    81  G81         0.0000
   1423  C3'       38.8120   26.2020   64.1210 C.3    81  G81         0.0000
   1424  O3'       39.2890   24.9990   63.5540 O.3    81  G81         0.0000
   1425  C2'       37.5520   25.9670   64.9420 C.3    81  G81         0.0000
   1426  O2'       37.6030   24.7800   65.7140 O.3    81  G81         0.0000
   1427  C1'       37.5760   27.1850   65.8640 C.3    81  G81         0.0000
   1428  N1        33.1110   29.5370   65.3440 N.ar   81  G81         0.0000
   1429  C2        33.4150   28.3880   66.0360 C.ar   81  G81         0.0000
   1430  N2        32.3880   27.7840   66.6610 N.pl3  81  G81         0.0000
   1431  N3        34.6300   27.8710   66.1070 N.ar   81  G81         0.0000
   1432  C4        35.5300   28.6050   65.4170 C.ar   81  G81         0.0000
   1433  C5        35.3280   29.7630   64.6960 C.ar   81  G81         0.0000
   1434  C6        34.0230   30.3070   64.6260 C.ar   81  G81         0.0000
   1435  O6        33.6410   31.3240   64.0280 O.2    81  G81         0.0000
   1436  N7        36.5170   30.2070   64.1300 N.ar   81  G81         0.0000
   1437  C8        37.4010   29.3280   64.5100 C.ar   81  G81         0.0000
   1438  N9        36.8680   28.3260   65.2900 N.ar   81  G81         0.0000
   1439  OP1       42.6640   28.2360   62.5500 O.3    81  G81        -0.5000
   1440  OP2       40.7630   29.5970   61.4800 O.co2  81  G81        -0.5000
   1441  P         38.5540   24.3880   62.2710 P.3    82  G82         0.0000
   1442  C5'       36.0220   24.1170   61.8090 C.3    82  G82         0.0000
   1443  O5'       37.0670   24.1510   62.7570 O.3    82  G82         0.0000
   1444  C4'       34.6990   24.0770   62.5070 C.3    82  G82         0.0000
   1445  O4'       34.6020   25.2220   63.3860 O.3    82  G82         0.0000
   1446  C3'       33.5090   24.2220   61.5840 C.3    82  G82         0.0000
   1447  O3'       33.1770   22.9720   60.9840 O.3    82  G82         0.0000
   1448  C2'       32.4540   24.7310   62.5500 C.3    82  G82         0.0000
   1449  O2'       31.9850   23.7080   63.3990 O.3    82  G82         0.0000
   1450  C1'       33.2800   25.7120   63.3780 C.3    82  G82         0.0000
   1451  N1        30.5440   29.7630   62.0580 N.ar   82  G82         0.0000
   1452  C2        30.1480   28.6160   62.6950 C.ar   82  G82         0.0000
   1453  N2        28.8530   28.5350   63.0150 N.pl3  82  G82         0.0000
   1454  N3        30.9640   27.6220   63.0000 N.ar   82  G82         0.0000
   1455  C4        32.2310   27.8740   62.6130 C.ar   82  G82         0.0000
   1456  C5        32.7300   28.9860   61.9750 C.ar   82  G82         0.0000
   1457  C6        31.8450   30.0430   61.6510 C.ar   82  G82         0.0000
   1458  O6        32.0970   31.1100   61.0830 O.2    82  G82         0.0000
   1459  N7        34.0940   28.8560   61.7560 N.ar   82  G82         0.0000
   1460  C8        34.3910   27.6870   62.2510 C.ar   82  G82         0.0000
   1461  N9        33.3050   27.0370   62.7780 N.ar   82  G82         0.0000
   1462  OP1       39.1480   23.0600   61.9740 O.3    82  G82        -0.5000
   1463  OP2       38.5010   25.4300   61.2140 O.co2  82  G82        -0.5000
   1464  P         32.8210   22.9100   59.4120 P.3    83  G83         0.0000
   1465  C5'       30.4110   23.7070   60.0950 C.3    83  G83         0.0000
   1466  O5'       31.5630   23.8720   59.2720 O.3    83  G83         0.0000
   1467  C4'       29.4450   24.8250   59.8240 C.3    83  G83         0.0000
   1468  O4'       30.0100   26.0630   60.3130 O.3    83  G83         0.0000
   1469  C3'       29.2280   25.0590   58.3400 C.3    83  G83         0.0000
   1470  O3'       28.1760   24.2340   57.8640 O.3    83  G83         0.0000
   1471  C2'       28.8590   26.5330   58.2790 C.3    83  G83         0.0000
   1472  O2'       27.4840   26.7770   58.5040 O.3    83  G83         0.0000
   1473  C1'       29.7180   27.1090   59.4080 C.3    83  G83         0.0000
   1474  N1        32.2390   31.2490   57.9040 N.ar   83  G83         0.0000
   1475  C2        30.9220   31.1210   58.2560 C.ar   83  G83         0.0000
   1476  N2        30.1900   32.2450   58.2160 N.pl3  83  G83         0.0000
   1477  N3        30.3650   29.9780   58.6210 N.ar   83  G83         0.0000
   1478  C4        31.2500   28.9560   58.6010 C.ar   83  G83         0.0000
   1479  C5        32.5820   28.9800   58.2620 C.ar   83  G83         0.0000
   1480  C6        33.1670   30.2130   57.8770 C.ar   83  G83         0.0000
   1481  O6        34.3400   30.4430   57.5430 O.2    83  G83         0.0000
   1482  N7        33.1400   27.7140   58.3700 N.ar   83  G83         0.0000
   1483  C8        32.1570   26.9590   58.7720 C.ar   83  G83         0.0000
   1484  N9        30.9860   27.6490   58.9410 N.ar   83  G83         0.0000
   1485  OP1       32.3620   21.5280   59.1200 O.3    83  G83        -0.5000
   1486  OP2       33.9360   23.5080   58.6160 O.co2  83  G83        -0.5000
   1487  P         28.4090   23.3200   56.5700 P.3    84  A84         0.0000
   1488  C5'       26.0280   23.2560   55.4440 C.3    84  A84         0.0000
   1489  O5'       27.3210   23.8610   55.5390 O.3    84  A84         0.0000
   1490  C4'       25.2220   23.9320   54.3610 C.3    84  A84         0.0000
   1491  O4'       24.8260   25.2510   54.8080 O.3    84  A84         0.0000
   1492  C3'       25.9870   24.1560   53.0680 C.3    84  A84         0.0000
   1493  O3'       25.8460   23.0190   52.2270 O.3    84  A84         0.0000
   1494  C2'       25.3230   25.4060   52.4920 C.3    84  A84         0.0000
   1495  O2'       24.1210   25.1710   51.7880 O.3    84  A84         0.0000
   1496  C1'       25.0020   26.1900   53.7610 C.3    84  A84         0.0000
   1497  N1        26.1400   31.0760   54.7940 N.ar   84  A84         0.0000
   1498  C2        25.0110   30.4770   54.4190 C.ar   84  A84         0.0000
   1499  N3        24.7870   29.1970   54.1610 N.ar   84  A84         0.0000
   1500  C4        25.9070   28.4780   54.3280 C.ar   84  A84         0.0000
   1501  C5        27.1450   28.9510   54.7080 C.ar   84  A84         0.0000
   1502  C6        27.2480   30.3250   54.9500 C.ar   84  A84         0.0000
   1503  N6        28.3740   30.9260   55.3250 N.pl3  84  A84         0.0000
   1504  N7        28.0700   27.9160   54.7720 N.ar   84  A84         0.0000
   1505  C8        27.3790   26.8540   54.4360 C.ar   84  A84         0.0000
   1506  N9        26.0580   27.1230   54.1570 N.ar   84  A84         0.0000
   1507  OP1       28.0630   21.9230   56.9280 O.3    84  A84        -0.5000
   1508  OP2       29.7720   23.6320   56.0600 O.co2  84  A84        -0.5000
   1509  P         26.8650   22.7960   51.0080 P.3    85  A85         0.0000
   1510  C5'       27.5980   24.3350   49.0230 C.3    85  A85         0.0000
   1511  O5'       26.7860   24.1510   50.1740 O.3    85  A85         0.0000
   1512  C4'       26.8860   23.7910   47.8140 C.3    85  A85         0.0000
   1513  O4'       25.8120   24.6930   47.4300 O.3    85  A85         0.0000
   1514  C3'       27.8180   23.7250   46.6150 C.3    85  A85         0.0000
   1515  O3'       27.7910   22.4230   46.0400 O.3    85  A85         0.0000
   1516  C2'       27.5340   24.9730   45.7760 C.3    85  A85         0.0000
   1517  O2'       27.4960   24.7530   44.3870 O.3    85  A85         0.0000
   1518  C1'       26.1030   25.2880   46.1880 C.3    85  A85         0.0000
   1519  N1        22.1500   28.2530   45.0450 N.ar   85  A85         0.0000
   1520  C2        22.3430   26.9190   45.0240 C.ar   85  A85         0.0000
   1521  N3        23.4200   26.2210   45.3600 N.ar   85  A85         0.0000
   1522  C4        24.4030   27.0410   45.7680 C.ar   85  A85         0.0000
   1523  C5        24.3660   28.4200   45.8510 C.ar   85  A85         0.0000
   1524  C6        23.1650   29.0490   45.4550 C.ar   85  A85         0.0000
   1525  N6        22.9750   30.3710   45.4500 N.pl3  85  A85         0.0000
   1526  N7        25.5760   28.9120   46.3190 N.ar   85  A85         0.0000
   1527  C8        26.3040   27.8350   46.5010 C.ar   85  A85         0.0000
   1528  N9        25.6560   26.6730   46.1760 N.ar   85  A85         0.0000
   1529  OP1       26.3100   21.7230   50.1500 O.2    85  A85        -0.5000
   1530  OP2       28.2420   22.6650   51.5650 O.co2  85  A85        -0.5000
   1531  P         28.7670   22.0450   44.8330 P.3    86  G86         0.0000
   1532  C5'       27.7410   22.6360   42.4890 C.3    86  G86         0.0000
   1533  O5'       27.7450   21.8000   43.6340 O.3    86  G86         0.0000
   1534  C4'       26.3690   22.6490   41.8740 C.3    86  G86         0.0000
   1535  O4'       25.4500   23.3770   42.7310 O.3    86  G86         0.0000
   1536  C3'       26.2570   23.3900   40.5610 C.3    86  G86         0.0000
   1537  O3'       26.6990   22.5800   39.4960 O.3    86  G86         0.0000
   1538  C2'       24.7640   23.6470   40.4830 C.3    86  G86         0.0000
   1539  O2'       24.0600   22.4750   40.1280 O.3    86  G86         0.0000
   1540  C1'       24.4710   24.0340   41.9320 C.3    86  G86         0.0000
   1541  N1        22.2650   28.5760   41.4080 N.ar   86  G86         0.0000
   1542  C2        21.7910   27.3360   41.0630 C.ar   86  G86         0.0000
   1543  N2        20.5730   27.3090   40.5010 N.pl3  86  G86         0.0000
   1544  N3        22.4630   26.2100   41.2520 N.ar   86  G86         0.0000
   1545  C4        23.6680   26.4330   41.8200 C.ar   86  G86         0.0000
   1546  C5        24.2340   27.6340   42.1970 C.ar   86  G86         0.0000
   1547  C6        23.5020   28.8270   41.9920 C.ar   86  G86         0.0000
   1548  O6        23.8310   29.9890   42.2610 O.2    86  G86         0.0000
   1549  N7        25.4980   27.4380   42.7360 N.ar   86  G86         0.0000
   1550  C8        25.6730   26.1440   42.6860 C.ar   86  G86         0.0000
   1551  N9        24.6010   25.4740   42.1400 N.ar   86  G86         0.0000
   1552  OP1       29.3870   20.7420   45.1910 O.3    86  G86        -0.5000
   1553  OP2       29.6430   23.2130   44.5430 O.co2  86  G86        -0.5000
   1554  P         27.3590   23.2680   38.2160 P.3    87  U87         0.0000
   1555  C5'       25.0050   23.2210   37.0610 C.3    87  U87         0.0000
   1556  O5'       26.1170   23.9890   37.5200 O.3    87  U87         0.0000
   1557  C4'       23.8950   24.1210   36.5510 C.3    87  U87         0.0000
   1558  O4'       23.2510   24.8270   37.6470 O.3    87  U87         0.0000
   1559  C3'       24.2700   25.2280   35.5790 C.3    87  U87         0.0000
   1560  O3'       24.4100   24.7260   34.2610 O.3    87  U87         0.0000
   1561  C2'       23.0450   26.1220   35.6820 C.3    87  U87         0.0000
   1562  O2'       21.9430   25.5690   34.9850 O.3    87  U87         0.0000
   1563  C1'       22.7870   26.0880   37.1910 C.3    87  U87         0.0000
   1564  N1        23.5650   27.1280   37.8770 N.ar   87  U87         0.0000
   1565  C2        22.9880   28.3810   38.0430 C.ar   87  U87         0.0000
   1566  O2        21.8460   28.6470   37.6770 O.2    87  U87         0.0000
   1567  N3        23.7960   29.3110   38.6540 N.ar   87  U87         0.0000
   1568  C4        25.0820   29.1140   39.1130 C.ar   87  U87         0.0000
   1569  O4        25.6820   30.0430   39.6520 O.2    87  U87         0.0000
   1570  C5        25.5910   27.7940   38.9160 C.ar   87  U87         0.0000
   1571  C6        24.8360   26.8710   38.3240 C.ar   87  U87         0.0000
   1572  OP1       27.8500   22.1710   37.3420 O.2    87  U87        -0.5000
   1573  OP2       28.3090   24.3110   38.6960 O.co2  87  U87        -0.5000
   1574  P         25.2130   25.5770   33.1650 P.3    88  C88         0.0000
   1575  C5'       23.0780   26.7920   32.2450 C.3    88  C88         0.0000
   1576  O5'       24.3210   26.8760   32.9310 O.3    88  C88         0.0000
   1577  C4'       22.3430   28.1100   32.3280 C.3    88  C88         0.0000
   1578  O4'       22.1970   28.4760   33.7250 O.3    88  C88         0.0000
   1579  C3'       23.0280   29.3160   31.7020 C.3    88  C88         0.0000
   1580  O3'       22.6950   29.3980   30.3240 O.3    88  C88         0.0000
   1581  C2'       22.3640   30.4640   32.4440 C.3    88  C88         0.0000
   1582  O2'       21.0680   30.7170   31.9400 O.3    88  C88         0.0000
   1583  C1'       22.2470   29.8850   33.8540 C.3    88  C88         0.0000
   1584  N1        23.3800   30.2290   34.7200 N.ar   88  C88         0.0000
   1585  C2        23.4760   31.5300   35.2200 C.ar   88  C88         0.0000
   1586  O2        22.5980   32.3540   34.9190 O.2    88  C88         0.0000
   1587  N3        24.5180   31.8550   36.0180 N.ar   88  C88         0.0000
   1588  C4        25.4350   30.9370   36.3200 C.ar   88  C88         0.0000
   1589  N4        26.4470   31.3000   37.1040 N.pl3  88  C88         0.0000
   1590  C5        25.3560   29.6040   35.8290 C.ar   88  C88         0.0000
   1591  C6        24.3240   29.2970   35.0380 C.ar   88  C88         0.0000
   1592  OP1       25.1920   24.7810   31.9130 O.2    88  C88        -0.5000
   1593  OP2       26.5160   26.0050   33.7470 O.co2  88  C88        -0.5000
   1594  P         23.6360   30.2210   29.3140 P.3    89  G89         0.0000
   1595  C5'       22.2230   32.4330   29.3950 C.3    89  G89         0.0000
   1596  O5'       23.4380   31.7530   29.7110 O.3    89  G89         0.0000
   1597  C4'       22.1940   33.8110   30.0380 C.3    89  G89         0.0000
   1598  O4'       22.4130   33.6940   31.4750 O.3    89  G89         0.0000
   1599  C3'       23.2470   34.8150   29.5980 C.3    89  G89         0.0000
   1600  O3'       22.8520   35.4740   28.4050 O.3    89  G89         0.0000
   1601  C2'       23.2260   35.7970   30.7570 C.3    89  G89         0.0000
   1602  O2'       22.0920   36.6370   30.6850 O.3    89  G89         0.0000
   1603  C1'       23.0680   34.8560   31.9490 C.3    89  G89         0.0000
   1604  N1        26.8430   36.2900   35.0110 N.ar   89  G89         0.0000
   1605  C2        25.7560   36.9960   34.5670 C.ar   89  G89         0.0000
   1606  N2        25.6530   38.2570   35.0120 N.pl3  89  G89         0.0000
   1607  N3        24.8410   36.5120   33.7490 N.ar   89  G89         0.0000
   1608  C4        25.1050   35.2410   33.3920 C.ar   89  G89         0.0000
   1609  C5        26.1660   34.4410   33.7660 C.ar   89  G89         0.0000
   1610  C6        27.1470   34.9820   34.6630 C.ar   89  G89         0.0000
   1611  O6        28.1670   34.4410   35.1340 O.2    89  G89         0.0000
   1612  N7        26.0690   33.1840   33.1720 N.ar   89  G89         0.0000
   1613  C8        24.9690   33.2430   32.4670 C.ar   89  G89         0.0000
   1614  N9        24.3300   34.4600   32.5660 N.ar   89  G89         0.0000
   1615  OP1       23.0730   30.0240   27.9560 O.2    89  G89        -0.5000
   1616  OP2       25.0430   29.8400   29.5930 O.co2  89  G89        -0.5000
   1617  P         23.9640   36.1610   27.4660 P.3    90  C90         0.0000
   1618  C5'       23.5320   38.4710   28.6240 C.3    90  C90         0.0000
   1619  O5'       24.4520   37.4330   28.2960 O.3    90  C90         0.0000
   1620  C4'       24.2160   39.5520   29.4220 C.3    90  C90         0.0000
   1621  O4'       24.6480   39.0060   30.6910 O.3    90  C90         0.0000
   1622  C3'       25.4750   40.1240   28.7950 C.3    90  C90         0.0000
   1623  O3'       25.1270   41.1760   27.9010 O.3    90  C90         0.0000
   1624  C2'       26.2420   40.6310   30.0140 C.3    90  C90         0.0000
   1625  O2'       25.7620   41.8710   30.4920 O.3    90  C90         0.0000
   1626  C1'       25.8890   39.5720   31.0570 C.3    90  C90         0.0000
   1627  N1        26.8460   38.4730   31.2270 N.ar   90  C90         0.0000
   1628  C2        27.9880   38.6860   31.9940 C.ar   90  C90         0.0000
   1629  O2        28.2080   39.8250   32.4410 O.2    90  C90         0.0000
   1630  N3        28.8220   37.6490   32.2360 N.ar   90  C90         0.0000
   1631  C4        28.5490   36.4440   31.7360 C.ar   90  C90         0.0000
   1632  N4        29.3760   35.4440   32.0310 N.pl3  90  C90         0.0000
   1633  C5        27.4120   36.2110   30.9160 C.ar   90  C90         0.0000
   1634  C6        26.5990   37.2460   30.6820 C.ar   90  C90         0.0000
   1635  OP1       23.2640   36.6580   26.2570 O.2    90  C90        -0.5000
   1636  OP2       25.0980   35.2100   27.3200 O.co2  90  C90        -0.5000
   1637  P         25.7390   41.1950   26.4160 P.3    91  A91         0.0000
   1638  C5'       25.6480   39.2860   24.6440 C.3    91  A91         0.0000
   1639  O5'       24.9890   40.0080   25.6690 O.3    91  A91         0.0000
   1640  C4'       25.0420   39.6250   23.3180 C.3    91  A91         0.0000
   1641  O4'       23.6740   39.1740   23.3310 O.3    91  A91         0.0000
   1642  C3'       24.9400   41.1120   23.0270 C.3    91  A91         0.0000
   1643  O3'       26.0530   41.6190   22.3000 O.3    91  A91         0.0000
   1644  C2'       23.8010   41.1680   22.0360 C.3    91  A91         0.0000
   1645  O2'       24.3110   40.8590   20.7460 O.3    91  A91         0.0000
   1646  C1'       22.8820   40.0650   22.5750 C.3    91  A91         0.0000
   1647  N1        17.9050   41.3180   22.7560 N.ar   91  A91         0.0000
   1648  C2        18.7100   40.9530   21.7480 C.ar   91  A91         0.0000
   1649  N3        20.0060   40.6520   21.7700 N.ar   91  A91         0.0000
   1650  C4        20.4940   40.7540   23.0180 C.ar   91  A91         0.0000
   1651  C5        19.7950   41.1130   24.1570 C.ar   91  A91         0.0000
   1652  C6        18.4240   41.4110   23.9970 C.ar   91  A91         0.0000
   1653  N6        17.6170   41.7790   24.9970 N.pl3  91  A91         0.0000
   1654  N7        20.6300   41.1060   25.2670 N.ar   91  A91         0.0000
   1655  C8        21.7950   40.7510   24.7800 C.ar   91  A91         0.0000
   1656  N9        21.7820   40.5140   23.4270 N.ar   91  A91         0.0000
   1657  OP1       27.1780   40.8390   26.4800 O.2    91  A91         0.0000
   1658  OP2       25.3320   42.4810   25.8050 O.co2  91  A91        -1.0000
   1659 BA         30.8530   42.1590   69.4160 Ba    106  BA106       0.0000
   1660 BA         31.6830   36.5390   69.0040 Ba    107  BA107       0.0000
   1661 BA         30.5160   39.3350   83.1970 Ba    108  BA108       0.0000
   1662 BA         24.9610   44.0580   59.9430 Ba    109  BA109       0.0000
   1663 BA         16.2010   51.2200   63.8430 Ba    110  BA110       0.0000
   1664 BA         36.8480   31.9460   60.6850 Ba    111  BA111       0.0000
   1665 BA          5.9510   45.4630   70.7570 Ba    112  BA112       0.0000
   1666 BA         29.9760   45.9740   81.7470 Ba    113  BA113       0.0000
   1667 BA         11.6980   47.2060   64.2640 Ba    114  BA114       0.0000
   1668 CA         19.2830   59.4760   80.4860 Ca    115  CA115       0.0000
   1669 CA         25.0630   44.6680   25.3560 Ca    116  CA116       0.0000
   1670 CA         25.2470   27.0400   75.3800 Ca    117  CA117       0.0000
   1671 CA         29.0460   52.9880   85.2720 Ca    118  CA118       0.0000
   1672 MG         19.9690   42.5150   73.1830 Mg    119  MG119       0.0000
   1673  O          8.4420   38.7470   82.6470 O.3    92  HOH92       0.0000
   1674  O         18.0230   49.7960   60.8090 O.3    93  HOH93       0.0000
   1675  O          3.3640   48.3820   82.8150 O.3    94  HOH94       0.0000
   1676  O          7.0360   43.8080   72.9660 O.3    95  HOH95       0.0000
   1677  O         32.2370   37.7050   71.0610 O.3    96  HOH96       0.0000
   1678  O         30.2460   35.0830   67.5720 O.3    97  HOH97       0.0000
   1679  O         33.7660   43.4580   69.7720 O.3    98  HOH98       0.0000
   1680  O         29.4210   36.6680   70.3170 O.3    99  HOH99       0.0000
   1681  O         30.0560   39.7400   63.2270 O.3   100  HOH100      0.0000
   1682  O         31.3370   41.3600   84.4320 O.3   101  HOH101      0.0000
   1683  O         31.9110   40.4680   71.0180 O.3   102  HOH102      0.0000
   1684  O         23.7310   54.8400   83.9180 O.3   103  HOH103      0.0000
   1685  O         29.4980   43.8960   71.6900 O.3   104  HOH104      0.0000
@<TRIPOS>BOND
     1   266  1672    1
     2   271  1672    1
     3   508  1665    1
     4   509  1665    1
     5   594  1663    1
     6   594  1667    1
     7   595  1663    1
     8   617  1662    1
     9   666  1667    1
    10   971  1660    1
    11   986  1660    1
    12   993  1660    1
    13  1059  1661    1
    14  1080  1661    1
    15  1122  1666    1
    16  1189  1668    1
    17  1221  1672    1
    18  1274  1672    1
    19  1378  1660    1
    20  1417  1664    1
    21  1658  1669    1
    22  1659  1679    1
    23  1659  1683    1
    24  1659  1685    1
    25  1660  1677    1
    26  1660  1678    1
    27  1660  1680    1
    28  1661  1682    1
    29  1665  1676    1
    30  1645  1644    1
    31  1648  1649   ar
    32  1648  1647   ar
    33  1649  1650   ar
    34  1644  1646    1
    35  1644  1642    1
    36  1643  1642    1
    37  1646  1641    1
    38  1646  1656    1
    39  1647  1652   ar
    40  1650  1656   ar
    41  1650  1651   ar
    42  1642  1640    1
    43  1640  1641    1
    44  1640  1638    1
    45  1656  1655   ar
    46  1652  1651   ar
    47  1652  1653    1
    48  1651  1654   ar
    49  1638  1639    1
    50  1655  1654   ar
    51  1639  1637    1
    52  1658  1637    1
    53  1635  1617    2
    54  1637  1657    2
    55  1637  1623    1
    56  1636  1617    1
    57  1617  1619    1
    58  1617  1600    1
    59  1623  1622    1
    60  1615  1594    2
    61  1619  1618    1
    62  1600  1599    1
    63  1618  1620    1
    64  1622  1620    1
    65  1622  1624    1
    66  1594  1616    1
    67  1594  1596    1
    68  1594  1580    1
    69  1595  1596    1
    70  1595  1597    1
    71  1620  1621    1
    72  1599  1597    1
    73  1599  1601    1
    74  1624  1625    1
    75  1624  1626    1
    76  1597  1598    1
    77  1580  1579    1
    78  1634  1633   ar
    79  1634  1627   ar
    80  1602  1601    1
    81  1621  1626    1
    82  1601  1603    1
    83  1633  1631   ar
    84  1626  1627    1
    85  1627  1628   ar
    86  1598  1603    1
    87  1579  1577    1
    88  1579  1581    1
    89  1631  1632    1
    90  1631  1630   ar
    91  1592  1574    2
    92  1582  1581    1
    93  1603  1614    1
    94  1628  1630   ar
    95  1628  1629    2
    96  1575  1577    1
    97  1575  1576    1
    98  1577  1578    1
    99  1581  1583    1
   100  1613  1614   ar
   101  1613  1612   ar
   102  1614  1608   ar
   103  1576  1574    1
   104  1574  1593    1
   105  1574  1560    1
   106  1612  1609   ar
   107  1608  1607   ar
   108  1608  1609   ar
   109  1578  1583    1
   110  1607  1605   ar
   111  1609  1610   ar
   112  1583  1584    1
   113    12    11    1
   114  1560  1559    1
   115    10    11   ar
   116    10    16   ar
   117    17    16    2
   118  1605  1604   ar
   119  1605  1606    1
   120  1610  1604   ar
   121  1610  1611    2
   122    11    13   ar
   123  1584  1591   ar
   124  1584  1585   ar
   125    16    15   ar
   126  1586  1585    2
   127  1562  1561    1
   128  1591  1590   ar
   129  1585  1587   ar
   130  1559  1561    1
   131  1559  1557    1
   132    13    14   ar
   133    53    52    1
   134  1561  1563    1
   135    15    14   ar
   136    15    18   ar
   137  1590  1588   ar
   138  1587  1588   ar
   139    14    20   ar
   140    33    32    2
   141  1588  1589    1
   142    18    19   ar
   143  1557  1555    1
   144  1557  1558    1
   145    52    54   ar
   146    52    51   ar
   147    34    32   ar
   148    34    35   ar
   149    54    55   ar
   150    32    31   ar
   151    20    19   ar
   152    20     9    1
   153    51    57   ar
   154  1555  1556    1
   155  1563  1558    1
   156  1563  1564    1
   157    36    35    1
   158  1572  1554    2
   159  1556  1554    1
   160    35    37   ar
   161  1566  1565    2
   162     9     4    1
   163     9     7    1
   164    72    71    1
   165    55    56   ar
   166    55    61   ar
   167  1564  1565   ar
   168  1564  1571   ar
   169    57    58    2
   170    57    56   ar
   171    31    30    1
   172    31    38   ar
   173  1565  1567   ar
   174     4     3    1
   175    76    75   ar
   176    76    77   ar
   177    50    61    1
   178    50    45    1
   179    50    48    1
   180    30    25    1
   181    30    28    1
   182  1554  1573    1
   183  1554  1537    1
   184    49    48    1
   185    75    74   ar
   186  1571  1570   ar
   187    73    68    1
   188    73    71    1
   189    73    83    1
   190    56    59   ar
   191    61    60   ar
   192    68    67    1
   193    45    44    1
   194    37    38   ar
   195  1567  1568   ar
   196    29    28    1
   197    25    24    1
   198    94    93    1
   199    71    69    1
   200    90    89    1
   201    90    95    1
   202  1570  1568   ar
   203     7     8    1
   204     7     5    1
   205    77    83   ar
   206    77    78   ar
   207    48    46    1
   208    83    82   ar
   209    74    79   ar
   210  1568  1569    2
   211    67    69    1
   212    67    65    1
   213    28    26    1
   214    89    87    1
   215    89    91    1
   216    60    59   ar
   217    95    93    1
   218    95    96    1
   219  1537  1536    1
   220    44    46    1
   221    44    42    1
   222     3     5    1
   223     3     1    1
   224    87    88    1
   225     2     1    1
   226    78    79   ar
   227    78    81   ar
   228    69    70    1
   229    79    80    1
   230    93    91    1
   231    98    97    2
   232    65    66    1
   233    82    81   ar
   234    70    86    1
   235     5     6    1
   236    24    26    1
   237    24    22    1
   238  1539  1538    1
   239    46    47    1
   240    96    97   ar
   241    96   103   ar
   242    91    92    1
   243    42    43    1
   244    97    99   ar
   245  1538  1536    1
   246  1538  1540    1
   247    26    27    1
   248  1543  1542    1
   249    92   106    1
   250  1536  1534    1
   251    88    86    1
   252    47    64    1
   253   103   102   ar
   254    66    64    1
   255    22    23    1
   256  1542  1544   ar
   257  1542  1541   ar
   258   104    86    2
   259    23    21    1
   260    86   105    1
   261    43    41    1
   262     6    21    1
   263  1544  1545   ar
   264   110   109    1
   265   110   115    1
   266    99   100   ar
   267  1541  1547   ar
   268    27    41    1
   269   107   109    1
   270   107   108    1
   271   109   111    1
   272   102   100   ar
   273  1545  1551   ar
   274  1545  1546   ar
   275    64    84    2
   276    64    85    1
   277   124   106    2
   278  1534  1532    1
   279  1534  1535    1
   280   100   101    1
   281  1540  1551    1
   282  1540  1535    1
   283   106   108    1
   284   106   125    1
   285  1547  1546   ar
   286  1547  1548    2
   287    21    40    2
   288    21    39    1
   289   115   116    1
   290   115   113    1
   291  1551  1550   ar
   292  1546  1549   ar
   293    41    63    2
   294    41    62    1
   295   114   113    1
   296  1532  1533    1
   297  1550  1549   ar
   298   116   123   ar
   299   116   117   ar
   300   123   122   ar
   301   113   111    1
   302   111   112    1
   303   118   117    2
   304   112   126    1
   305   117   119   ar
   306   122   120   ar
   307  1533  1531    1
   308   119   120   ar
   309   120   121    2
   310  1517  1516    1
   311  1553  1531    2
   312  1531  1552    1
   313  1531  1515    1
   314   126   144    2
   315   126   145    1
   316   126   128    1
   317  1520  1519   ar
   318  1520  1521   ar
   319  1519  1524   ar
   320  1521  1522   ar
   321   130   129    1
   322   130   135    1
   323  1525  1524    1
   324  1524  1523   ar
   325   127   128    1
   326   127   129    1
   327  1522  1523   ar
   328  1522  1528   ar
   329  1516  1518    1
   330  1516  1514    1
   331  1523  1526   ar
   332  1515  1514    1
   333   129   131    1
   334  1528  1518    1
   335  1528  1527   ar
   336  1518  1513    1
   337   135   136    1
   338   135   133    1
   339  1526  1527   ar
   340   143   136   ar
   341   143   142   ar
   342   136   137   ar
   343  1514  1512    1
   344   142   140   ar
   345   137   138    2
   346   137   139   ar
   347   140   139   ar
   348   140   141    1
   349  1513  1512    1
   350   134   133    1
   351   847   828    2
   352   133   131    1
   353   131   132    1
   354  1512  1510    1
   355   868   848    2
   356   822   821    2
   357   834   848    1
   358   834   833    1
   359   846   828    1
   360   815   821   ar
   361   815   816   ar
   362   132   146    1
   363   821   820   ar
   364   828   830    1
   365   828   811    1
   366   817   816    1
   367   830   829    1
   368   848   869    1
   369   848   850    1
   370   816   818   ar
   371  1510  1511    1
   372   820   823   ar
   373   820   819   ar
   374   833   835    1
   375   833   831    1
   376   823   824   ar
   377   818   819   ar
   378   829   831    1
   379   819   825   ar
   380   168   146    2
   381   811   810    1
   382   146   167    1
   383   146   148    1
   384   812   810    1
   385   812   813    1
   386   812   814    1
   387   850   849    1
   388   835   836    1
   389   835   837    1
   390  1529  1509    2
   391   824   825   ar
   392   810   808    1
   393  1511  1509    1
   394   827   805    2
   395   831   832    1
   396   743   723    2
   397   164   165   ar
   398   164   161   ar
   399   165   166   ar
   400   825   814    1
   401   150   155    1
   402   150   149    1
   403   763   745    2
   404   148   147    1
   405   163   162    2
   406   161   162   ar
   407   161   160   ar
   408   166   155    1
   409   166   160   ar
   410   147   149    1
   411   814   809    1
   412   764   745    1
   413   155   153    1
   414  1509  1530    1
   415  1509  1493    1
   416   162   156   ar
   417   800   799    1
   418   160   159   ar
   419   807   805    1
   420   807   806    1
   421   805   826    1
   422   805   791    1
   423   849   851    1
   424   149   151    1
   425   832   837    1
   426   837   838    1
   427   804   785    2
   428   745   729    1
   429   745   747    1
   430   845   838   ar
   431   845   844   ar
   432   808   809    1
   433   808   806    1
   434   784   765    2
   435   838   839   ar
   436   156   157   ar
   437   723   725    1
   438   723   744    1
   439   723   717    1
   440   719   718    1
   441   159   157   ar
   442  1495  1494    1
   443   799   801   ar
   444   799   798   ar
   445   844   842   ar
   446   725   724    1
   447   783   765    1
   448   840   839    2
   449   157   158    1
   450   839   841   ar
   451   801   802   ar
   452   851   852    1
   453   851   853    1
   454  1493  1492    1
   455   724   726    1
   456   798   796   ar
   457   852   857    1
   458   718   716    1
   459   718   720    1
   460   841   842   ar
   461   729   728    1
   462   842   843    2
   463   803   785    1
   464   153   154    1
   465   153   151    1
   466  1494  1492    1
   467  1494  1496    1
   468   785   787    1
   469   785   771    1
   470   717   716    1
   471   765   767    1
   472   765   751    1
   473   151   152    1
   474   791   790    1
   475   747   746    1
   476   787   786    1
   477   802   795   ar
   478   790   792    1
   479   790   788    1
   480   796   795   ar
   481   796   797    2
   482   716   714    1
   483  1492  1490    1
   484   728   726    1
   485   728   730    1
   486   767   766    1
   487   780   779    1
   488   795   794    1
   489   726   727    1
   490   720   715    1
   491   792   794    1
   492   792   793    1
   493   857   867    1
   494   857   855    1
   495   746   748    1
   496   892   882    2
   497   853   854    1
   498   853   855    1
   499   781   779   ar
   500   781   782   ar
   501   152   169    1
   502   751   750    1
   503   854   870    1
   504   786   788    1
   505  1496  1506    1
   506  1496  1491    1
   507   771   770    1
   508   779   778   ar
   509   867   866   ar
   510   867   861   ar
   511   788   789    1
   512   866   865   ar
   513   893   882    1
   514   794   789    1
   515  1506  1500   ar
   516  1506  1505   ar
   517   770   768    1
   518   770   772    1
   519  1499  1500   ar
   520  1499  1498   ar
   521   750   748    1
   522   750   752    1
   523   782   775   ar
   524   766   768    1
   525  1500  1501   ar
   526  1490  1491    1
   527  1490  1488    1
   528   186   185    2
   529   861   860   ar
   530   861   862   ar
   531  1498  1497   ar
   532   714   715    1
   533   714   712    1
   534   880   870    2
   535  1505  1504   ar
   536   855   856    1
   537   761   762   ar
   538   761   759   ar
   539   860   859   ar
   540   865   862   ar
   541   187   188   ar
   542   187   184   ar
   543   727   732    1
   544   882   884    1
   545   882   876    1
   546   730   731    1
   547   730   732    1
   548   748   749    1
   549   778   776   ar
   550   862   863   ar
   551  1501  1504   ar
   552  1501  1502   ar
   553   762   755   ar
   554  1497  1502   ar
   555   859   858   ar
   556   188   189   ar
   557   185   184   ar
   558   185   179   ar
   559  1502  1503    1
   560   870   872    1
   561   870   881    1
   562   760   759    1
   563   184   183   ar
   564   768   769    1
   565   772   774    1
   566   772   773    1
   567   863   858   ar
   568   863   864    1
   569   775   776   ar
   570   775   774    1
   571   741   740   ar
   572   741   742   ar
   573   891   886    1
   574   891   889    1
   575   169   191    2
   576   169   171    1
   577   169   190    1
   578   759   758   ar
   579   776   777    2
   580   713   712    1
   581   713   711    1
   582   173   178    1
   583   173   172    1
   584   732   742    1
   585   884   883    1
   586  1488  1489    1
   587   179   180   ar
   588  1489  1487    1
   589   189   183   ar
   590   189   178    1
   591   752   754    1
   592   752   753    1
   593   171   170    1
   594   749   754    1
   595   875   876    1
   596   875   877    1
   597   875   873    1
   598   183   182   ar
   599   886   885    1
   600   721   711    2
   601   872   871    1
   602   769   774    1
   603   740   737   ar
   604   742   736   ar
   605   170   172    1
   606   871   873    1
   607   755   754    1
   608   755   756   ar
   609  1508  1487    2
   610   178   176    1
   611   180   182   ar
   612   180   181    1
   613   889   887    1
   614   889   890    1
   615   877   879    1
   616   877   878    1
   617   758   756   ar
   618   172   174    1
   619   711   695    1
   620   711   722    1
   621   873   874    1
   622   879   874    1
   623  1487  1507    1
   624  1487  1470    1
   625   756   757    2
   626   887   885    1
   627   887   888    1
   628   883   885    1
   629   915   894    2
   630   737   736   ar
   631   737   738   ar
   632   736   735   ar
   633   608   607    1
   634   697   696    1
   635   695   694    1
   636   209   208    2
   637   604   609    1
   638   604   603    1
   639   609   607    1
   640   609   619    1
   641   603   601    1
   642   603   605    1
   643   898   903    1
   644   898   897    1
   645   696   694    1
   646   696   698    1
   647  1481  1480    2
   648   174   176    1
   649   174   175    1
   650   176   177    1
   651   208   202   ar
   652   208   207   ar
   653   735   734   ar
   654   903   913    1
   655   903   901    1
   656   738   739    1
   657   738   733   ar
   658   896   894    1
   659   896   895    1
   660   601   602    1
   661   202   203   ar
   662   694   692    1
   663  1470  1469    1
   664  1480  1474   ar
   665  1480  1479   ar
   666   607   605    1
   667   888   894    1
   668   906   905   ar
   669   906   907   ar
   670  1474  1475   ar
   671   894   914    1
   672   913   907   ar
   673   913   912   ar
   674   905   904   ar
   675   907   908   ar
   676   619   613    1
   677   619   618    1
   678   210   207   ar
   679   210   211   ar
   680   207   206   ar
   681   902   901    1
   682  1476  1475    1
   683   612   613   ar
   684   612   611   ar
   685  1475  1477   ar
   686  1479  1482   ar
   687  1479  1478   ar
   688  1471  1469    1
   689  1471  1472    1
   690  1471  1473    1
   691   904   909   ar
   692   912   911   ar
   693  1469  1467    1
   694  1482  1483   ar
   695   908   909   ar
   696   908   911   ar
   697   897   895    1
   698   897   899    1
   699   605   606    1
   700   606   622    1
   701   909   910    1
   702   613   614   ar
   703   203   204    1
   704   203   205   ar
   705   734   733   ar
   706   707   708   ar
   707   707   706   ar
   708  1478  1477   ar
   709  1478  1484   ar
   710  1486  1464    2
   711   618   617    1
   712   620   600    2
   713   611   610   ar
   714   175   192    1
   715  1483  1484   ar
   716   901   899    1
   717   211   212   ar
   718   698   708    1
   719   698   693    1
   720   206   205   ar
   721   206   212   ar
   722  1484  1473    1
   723   602   600    1
   724   708   702   ar
   725   706   703   ar
   726  1485  1464    1
   727   614   617    1
   728   614   615   ar
   729  1392  1391    1
   730   212   201    1
   731   692   693    1
   732   692   690    1
   733  1466  1464    1
   734  1466  1465    1
   735   623   625    1
   736   623   624    1
   737   626   625    1
   738   626   631    1
   739   610   615   ar
   740  1473  1468    1
   741  1464  1447    1
   742   899   900    1
   743   600   621    1
   744   600   583    1
   745   643   622    2
   746   615   616    1
   747   625   627    1
   748   214   192    2
   749  1467  1465    1
   750  1467  1468    1
   751   622   624    1
   752   622   644    1
   753   201   196    1
   754   201   199    1
   755   196   195    1
   756  1416  1396    2
   757   702   703   ar
   758   702   701   ar
   759   703   704   ar
   760   192   194    1
   761   192   213    1
   762   690   691    1
   763   232   231    2
   764  1388  1393    1
   765  1388  1387    1
   766   900   916    1
   767   631   642    1
   768   631   629    1
   769   194   193    1
   770  1393  1391    1
   771  1387  1389    1
   772  1387  1385    1
   773  1391  1389    1
   774   225   231   ar
   775   225   226   ar
   776   630   629    1
   777  1390  1389    1
   778  1390  1396    1
   779   701   700   ar
   780   231   230   ar
   781   227   226    1
   782   704   705    1
   783   704   699   ar
   784   642   641   ar
   785   642   636   ar
   786   583   582    1
   787  1447  1446    1
   788   627   629    1
   789   627   628    1
   790  1458  1457    2
   791   641   640   ar
   792  1396  1417    1
   793  1396  1398    1
   794  1385  1386    1
   795   226   228   ar
   796   931   930    1
   797  1463  1441    2
   798   195   193    1
   799   195   197    1
   800   628   645    1
   801   199   200    1
   802   199   197    1
   803   930   929   ar
   804   930   932   ar
   805   636   635   ar
   806   636   637   ar
   807   929   927   ar
   808   635   633   ar
   809   691   689    1
   810  1440  1418    2
   811   700   699   ar
   812   920   925    1
   813   920   919    1
   814   932   933   ar
   815  1446  1444    1
   816  1446  1448    1
   817   927   928    2
   818   927   926   ar
   819   640   637   ar
   820  1457  1456   ar
   821  1457  1451   ar
   822   935   916    2
   823   916   918    1
   824   916   934    1
   825  1459  1456   ar
   826  1459  1460   ar
   827   933   926   ar
   828   926   925    1
   829   230   233   ar
   830   230   229   ar
   831  1442  1444    1
   832  1442  1443    1
   833   637   638   ar
   834   585   584    1
   835   633   634    1
   836   633   632   ar
   837   709   689    2
   838  1462  1441    1
   839  1456  1455   ar
   840   925   923    1
   841  1451  1452   ar
   842   197   198    1
   843   582   584    1
   844   582   580    1
   845   228   229   ar
   846   584   586    1
   847  1398  1397    1
   848  1460  1461   ar
   849  1441  1443    1
   850  1441  1424    1
   851   233   234   ar
   852   638   632   ar
   853   638   639    2
   854   229   235   ar
   855   918   917    1
   856   917   919    1
   857  1386  1384    1
   858  1444  1445    1
   859  1439  1418    1
   860  1448  1450    1
   861  1448  1449    1
   862   689   710    1
   863   689   673    1
   864   253   252    2
   865  1455  1461   ar
   866  1455  1454   ar
   867   665   645    2
   868   919   921    1
   869   645   666    1
   870   645   647    1
   871  1418  1402    1
   872  1418  1420    1
   873  1452  1454   ar
   874  1452  1453    1
   875  1461  1450    1
   876   685   684   ar
   877   685   686   ar
   878  1394  1384    2
   879   675   674    1
   880   676   671    1
   881   676   686    1
   882   676   674    1
   883   671   670    1
   884   234   235   ar
   885   235   224    1
   886  1395  1384    1
   887   198   215    1
   888  1450  1445    1
   889   580   578    1
   890   580   581    1
   891  1384  1367    1
   892  1402  1401    1
   893   923   924    1
   894   923   921    1
   895   684   681   ar
   896  1397  1399    1
   897   686   680   ar
   898  1424  1423    1
   899   252   251   ar
   900   252   254   ar
   901   251   249   ar
   902   586   597    1
   903   586   581    1
   904   673   672    1
   905  1420  1419    1
   906   647   646    1
   907   670   672    1
   908   670   668    1
   909   597   596    1
   910   597   591    1
   911   921   922    1
   912   674   672    1
   913   578   579    1
   914   596   595    1
   915   590   591   ar
   916   590   588   ar
   917   591   592   ar
   918   579   577    1
   919   646   648    1
   920  1435  1434    2
   921   589   588    1
   922   588   587   ar
   923   237   215    2
   924   595   592    1
   925   592   593   ar
   926  1423  1425    1
   927  1423  1421    1
   928   224   219    1
   929   224   222    1
   930  1436  1437   ar
   931  1436  1433   ar
   932  1401  1399    1
   933  1401  1403    1
   934   219   218    1
   935   587   593   ar
   936   598   577    2
   937   951   950    1
   938  1399  1400    1
   939   681   680   ar
   940   681   682   ar
   941  1437  1438   ar
   942   680   679   ar
   943  1373  1372    1
   944   250   249    2
   945   215   217    1
   946   215   236    1
   947   249   248   ar
   948  1434  1433   ar
   949  1434  1428   ar
   950  1419  1421    1
   951   952   950   ar
   952   952   953   ar
   953  1433  1432   ar
   954   950   949   ar
   955   254   255   ar
   956   577   599    1
   957   577   563    1
   958  1367  1366    1
   959  1365  1364    1
   960  1365  1370    1
   961  1425  1426    1
   962  1425  1427    1
   963   922   936    1
   964   668   669    1
   965   953   946   ar
   966  1421  1422    1
   967  1374  1372   ar
   968  1374  1375   ar
   969  1364  1366    1
   970  1364  1362    1
   971  1414  1413   ar
   972  1414  1415   ar
   973   949   947   ar
   974  1438  1432   ar
   975  1438  1427    1
   976  1413  1410   ar
   977  1372  1371   ar
   978  1428  1429   ar
   979   217   216    1
   980   679   678   ar
   981   682   683    1
   982   682   677   ar
   983  1370  1368    1
   984  1370  1381    1
   985  1432  1431   ar
   986   648   649    1
   987   648   650    1
   988   218   216    1
   989   218   220    1
   990  1403  1404    1
   991  1403  1405    1
   992  1369  1368    1
   993   222   223    1
   994   222   220    1
   995  1366  1368    1
   996   946   947   ar
   997   946   945    1
   998   669   667    1
   999   248   255   ar
  1000   248   247    1
  1001  1316  1296    2
  1002   947   948    2
  1003  1400  1405    1
  1004   940   945    1
  1005   940   939    1
  1006   649   654    1
  1007  1427  1422    1
  1008  1429  1431   ar
  1009  1429  1430    1
  1010  1415  1405    1
  1011  1415  1409   ar
  1012   945   943    1
  1013  1375  1381   ar
  1014  1375  1376   ar
  1015   678   677   ar
  1016   955   936    2
  1017  1381  1380   ar
  1018   220   221    1
  1019  1410  1411   ar
  1020  1410  1409   ar
  1021  1371  1377   ar
  1022   563   562    1
  1023  1362  1363    1
  1024  1412  1411    1
  1025   650   651    1
  1026   650   652    1
  1027   936   938    1
  1028   936   954    1
  1029  1339  1318    2
  1030  1411  1406   ar
  1031  1409  1408   ar
  1032   651   667    1
  1033   938   937    1
  1034   247   242    1
  1035   247   245    1
  1036   937   939    1
  1037   242   241    1
  1038   687   667    2
  1039   667   688    1
  1040   939   941    1
  1041  1376  1377   ar
  1042  1376  1379   ar
  1043  1296  1317    1
  1044  1296  1282    1
  1045  1296  1298    1
  1046  1294  1276    2
  1047   562   564    1
  1048   562   560    1
  1049   512   491    2
  1050  1340  1318    1
  1051  1377  1378    1
  1052   654   664    1
  1053   654   652    1
  1054  1380  1379   ar
  1055   971   970    1
  1056   564   565    1
  1057   564   566    1
  1058  1360  1341    2
  1059   663   664   ar
  1060   663   662   ar
  1061   572   571    2
  1062  1318  1302    1
  1063  1318  1320    1
  1064  1363  1361    1
  1065   664   658   ar
  1066   943   944    1
  1067   943   941    1
  1068   221   238    1
  1069  1408  1407   ar
  1070  1406  1407   ar
  1071   576   557    2
  1072   652   653    1
  1073   571   570   ar
  1074   571   573   ar
  1075  1282  1281    1
  1076   570   568   ar
  1077   970   969   ar
  1078   970   972   ar
  1079   662   659   ar
  1080  1298  1297    1
  1081   573   574   ar
  1082  1297  1299    1
  1083   513   491    1
  1084   941   942    1
  1085  1302  1301    1
  1086   575   557    1
  1087   257   238    2
  1088   658   659   ar
  1089   658   657   ar
  1090   245   246    1
  1091   245   243    1
  1092   559   557    1
  1093   559   558    1
  1094   568   569    2
  1095   568   567   ar
  1096   241   239    1
  1097   241   243    1
  1098   574   567   ar
  1099   969   967   ar
  1100   239   240    1
  1101   489   469    2
  1102   491   475    1
  1103   491   493    1
  1104   535   514    2
  1105   972   973   ar
  1106   567   566    1
  1107   659   660   ar
  1108   557   543    1
  1109   536   514    1
  1110   657   656   ar
  1111  1276  1295    1
  1112  1276  1262    1
  1113  1276  1278    1
  1114   240   238    1
  1115   560   558    1
  1116   560   561    1
  1117  1359  1341    1
  1118   238   256    1
  1119   566   561    1
  1120  1341  1343    1
  1121  1341  1324    1
  1122  1383  1361    2
  1123  1277  1278    1
  1124  1277  1279    1
  1125  1356  1355    1
  1126  1320  1319    1
  1127   556   537    2
  1128  1361  1382    1
  1129  1361  1347    1
  1130   967   968    2
  1131   967   966   ar
  1132   660   661    1
  1133   660   655   ar
  1134   973   966   ar
  1135  1301  1299    1
  1136  1301  1303    1
  1137   656   655   ar
  1138   475   474    1
  1139  1281  1279    1
  1140  1281  1283    1
  1141   243   244    1
  1142  1299  1300    1
  1143   514   497    1
  1144   514   516    1
  1145  1262  1261    1
  1146  1357  1355   ar
  1147  1357  1358   ar
  1148   966   965    1
  1149  1279  1280    1
  1150   942   956    1
  1151   555   537    1
  1152   493   492    1
  1153  1355  1354   ar
  1154  1343  1342    1
  1155  1319  1321    1
  1156   492   494    1
  1157   960   965    1
  1158   960   959    1
  1159   469   490    1
  1160   469   471    1
  1161   469   453    1
  1162   552   551    1
  1163  1324  1323    1
  1164   470   471    1
  1165   470   472    1
  1166  1284  1283    1
  1167   537   539    1
  1168   537   520    1
  1169  1358  1351   ar
  1170   965   963    1
  1171   497   496    1
  1172  1275  1256    2
  1173   543   542    1
  1174   988   987    1
  1175   993   992    1
  1176  1347  1346    1
  1177   986   992    1
  1178   986   987    1
  1179  1346  1348    1
  1180  1346  1344    1
  1181  1283  1285    1
  1182   244   258    1
  1183   551   553   ar
  1184   551   550   ar
  1185  1354  1352   ar
  1186  1323  1321    1
  1187  1323  1325    1
  1188   275   274    2
  1189   474   472    1
  1190   474   476    1
  1191   516   515    1
  1192  1241  1240    1
  1193  1300  1305    1
  1194   553   554   ar
  1195   276   277   ar
  1196   276   273   ar
  1197  1303  1304    1
  1198  1303  1305    1
  1199   472   473    1
  1200  1342  1344    1
  1201   992   991    2
  1202   542   544    1
  1203   542   540    1
  1204   987   989    2
  1205  1261  1259    1
  1206  1261  1263    1
  1207   539   538    1
  1208   550   548   ar
  1209   496   494    1
  1210   496   498    1
  1211  1321  1322    1
  1212   958   956    1
  1213   958   957    1
  1214  1264  1263    1
  1215   975   956    2
  1216   453   452    1
  1217  1351  1352   ar
  1218  1351  1350    1
  1219   956   974    1
  1220  1280  1285    1
  1221   494   495    1
  1222   957   959    1
  1223   277   278   ar
  1224   274   273   ar
  1225   274   268   ar
  1226  1348  1350    1
  1227  1348  1349    1
  1228   959   961    1
  1229  1352  1353    2
  1230   279   258    2
  1231  1257  1259    1
  1232  1257  1258    1
  1233   273   272   ar
  1234  1259  1260    1
  1235   520   519    1
  1236   554   547   ar
  1237   515   517    1
  1238  1314  1315   ar
  1239  1314  1313   ar
  1240   544   545    1
  1241   544   546    1
  1242  1344  1345    1
  1243   548   547   ar
  1244   548   549    2
  1245  1305  1315    1
  1246  1337  1336   ar
  1247  1337  1338   ar
  1248  1285  1286    1
  1249   477   476    1
  1250  1263  1265    1
  1251   963   964    1
  1252   963   961    1
  1253   268   269   ar
  1254   258   280    1
  1255   258   260    1
  1256  1256  1258    1
  1257  1256  1239    1
  1258  1256  1274    1
  1259   278   272   ar
  1260   278   267    1
  1261   989   990    1
  1262   547   546    1
  1263  1350  1345    1
  1264   991   990    1
  1265   991   994    1
  1266  1336  1333   ar
  1267   476   478    1
  1268   272   271   ar
  1269   519   517    1
  1270   519   521    1
  1271   538   540    1
  1272  1240  1242    1
  1273  1240  1238    1
  1274  1325  1327    1
  1275  1325  1326    1
  1276  1315  1309   ar
  1277  1313  1310   ar
  1278  1322  1327    1
  1279   540   541    1
  1280   990   996    1
  1281   262   267    1
  1282   262   261    1
  1283   473   478    1
  1284   495   500    1
  1285   267   265    1
  1286   961   962    1
  1287  1239  1238    1
  1288   455   454    1
  1289   269   271   ar
  1290   269   270    1
  1291   510   509    1
  1292   510   511    1
  1293   452   454    1
  1294   452   450    1
  1295   498   499    1
  1296   498   500    1
  1297   517   518    1
  1298  1293  1286   ar
  1299  1293  1292   ar
  1300   546   541    1
  1301   994   995    2
  1302  1338  1327    1
  1303  1338  1332   ar
  1304  1286  1287   ar
  1305   532   533   ar
  1306   532   529   ar
  1307  1260  1265    1
  1308   509   506    1
  1309   533   534   ar
  1310  1242  1253    1
  1311  1242  1237    1
  1312   467   447    2
  1313   260   259    1
  1314  1252  1253   ar
  1315  1252  1251   ar
  1316  1238  1236    1
  1317  1333  1332   ar
  1318  1333  1334   ar
  1319   478   488    1
  1320  1265  1266    1
  1321   454   456    1
  1322   531   530    2
  1323  1309  1310   ar
  1324  1309  1308   ar
  1325  1310  1311   ar
  1326   500   511    1
  1327   296   295    1
  1328   521   523    1
  1329   521   522    1
  1330   996   995    1
  1331   996   985    1
  1332   511   505    1
  1333   529   530   ar
  1334   529   528   ar
  1335   450   448    1
  1336   450   451    1
  1337  1292  1290   ar
  1338   448   449    1
  1339   530   524   ar
  1340  1332  1331   ar
  1341  1335  1334    2
  1342   487   488   ar
  1343   487   486   ar
  1344  1253  1247   ar
  1345  1009  1010   ar
  1346  1009  1014   ar
  1347   534   528   ar
  1348   534   523    1
  1349   518   523    1
  1350   962   976    1
  1351  1287  1288    2
  1352  1287  1289   ar
  1353  1236  1237    1
  1354  1236  1234    1
  1355   261   259    1
  1356   261   263    1
  1357  1334  1328   ar
  1358   488   482   ar
  1359   506   505   ar
  1360   506   507   ar
  1361  1251  1248   ar
  1362   265   266    1
  1363   265   263    1
  1364   528   527   ar
  1365  1010  1011   ar
  1366   449   447    1
  1367   468   447    1
  1368   447   430    1
  1369   985   980    1
  1370   985   983    1
  1371   295   294   ar
  1372   295   297   ar
  1373   980   979    1
  1374  1308  1307   ar
  1375  1015  1014    1
  1376   505   504   ar
  1377  1311  1312    1
  1378  1311  1306   ar
  1379   524   525   ar
  1380  1266  1273   ar
  1381  1266  1267   ar
  1382   508   507    1
  1383   486   483   ar
  1384   294   292   ar
  1385  1014  1013   ar
  1386  1290  1289   ar
  1387  1290  1291    1
  1388   297   298   ar
  1389   507   501   ar
  1390  1273  1272   ar
  1391  1331  1329   ar
  1392   527   525   ar
  1393   456   451    1
  1394   456   466    1
  1395   263   264    1
  1396   525   526    1
  1397  1225  1224    2
  1398   482   483   ar
  1399   482   481   ar
  1400  1328  1329   ar
  1401   998   976    2
  1402  1268  1267    2
  1403  1307  1306   ar
  1404  1011  1012   ar
  1405  1247  1248   ar
  1406  1247  1246   ar
  1407  1234  1235    1
  1408   976   978    1
  1409   976   997    1
  1410   504   502   ar
  1411  1267  1269   ar
  1412   483   484   ar
  1413   292   293    2
  1414   292   291   ar
  1415  1248  1249   ar
  1416   459   458   ar
  1417   459   460   ar
  1418  1329  1330    1
  1419  1226  1224   ar
  1420  1226  1227   ar
  1421   298   291   ar
  1422  1116  1115    1
  1423   978   977    1
  1424  1201  1202   ar
  1425  1201  1206   ar
  1426  1093  1092    1
  1427   481   480   ar
  1428   501   502   ar
  1429   979   977    1
  1430   979   981    1
  1431   430   429    1
  1432  1272  1270   ar
  1433   983   984    1
  1434   983   981    1
  1435  1013  1012   ar
  1436  1013  1016   ar
  1437  1224  1223   ar
  1438  1228  1227    2
  1439  1056  1055    1
  1440  1207  1206    1
  1441   291   290    1
  1442   466   460   ar
  1443   466   465   ar
  1444   458   457   ar
  1445  1012  1018   ar
  1446  1007  1006    1
  1447   502   503    1
  1448   460   461   ar
  1449  1185  1184    1
  1450  1202  1203   ar
  1451  1235  1233    1
  1452   264   281    1
  1453  1227  1229   ar
  1454  1246  1244   ar
  1455  1206  1205   ar
  1456  1269  1270   ar
  1457   316   315    1
  1458   484   485    1
  1459   484   479   ar
  1460   981   982    1
  1461  1221  1220    1
  1462  1270  1271    1
  1463  1115  1117   ar
  1464  1115  1114   ar
  1465  1092  1091   ar
  1466  1092  1094   ar
  1467   432   431    1
  1468   480   479   ar
  1469   290   285    1
  1470   290   288    1
  1471   285   284    1
  1472  1091  1097   ar
  1473  1249  1250    2
  1474  1249  1243   ar
  1475  1016  1017   ar
  1476  1055  1054   ar
  1477  1055  1057   ar
  1478   465   464   ar
  1479  1054  1052   ar
  1480   457   462   ar
  1481   429   431    1
  1482   429   427    1
  1483   314   315   ar
  1484   314   312   ar
  1485  1220  1222    1
  1486  1220  1218    1
  1487   300   281    2
  1488  1006  1008    1
  1489  1006  1004    1
  1490  1223  1222    1
  1491  1223  1230   ar
  1492  1117  1118   ar
  1493   315   317   ar
  1494  1018  1017   ar
  1495  1018  1008    1
  1496  1135  1134    1
  1497   461   462   ar
  1498   461   464   ar
  1499   431   433    1
  1500  1114  1120   ar
  1501  1222  1217    1
  1502  1184  1179   ar
  1503  1184  1183   ar
  1504  1203  1204   ar
  1505  1094  1095   ar
  1506   281   283    1
  1507   281   299    1
  1508  1244  1243   ar
  1509  1244  1245    1
  1510  1229  1230   ar
  1511   313   312    2
  1512   462   463    1
  1513  1076  1075    2
  1514   356   355    2
  1515   312   311   ar
  1516  1179  1180   ar
  1517  1008  1003    1
  1518  1074  1075   ar
  1519  1074  1072   ar
  1520  1098  1097    2
  1521  1097  1096   ar
  1522  1073  1072    2
  1523  1057  1058   ar
  1524  1052  1053    2
  1525  1052  1051   ar
  1526  1233  1255    2
  1527  1233  1219    1
  1528  1233  1254    1
  1529  1205  1204   ar
  1530  1205  1208   ar
  1531   982   999    1
  1532   317   318   ar
  1533  1139  1138   ar
  1534  1139  1140   ar
  1535   283   282    1
  1536  1138  1137   ar
  1537   284   282    1
  1538   284   286    1
  1539   288   289    1
  1540   288   286    1
  1541   427   425    1
  1542   427   428    1
  1543  1075  1077   ar
  1544  1118  1119   ar
  1545  1118  1124    1
  1546  1136  1134    1
  1547  1136  1131    1
  1548  1136  1146    1
  1549  1204  1210   ar
  1550  1005  1004    1
  1551  1005  1021    1
  1552  1004  1002    1
  1553  1112  1111    1
  1554  1072  1071   ar
  1555  1218  1219    1
  1556  1218  1216    1
  1557  1134  1132    1
  1558  1120  1121    2
  1559  1120  1119   ar
  1560  1095  1096   ar
  1561  1095  1101   ar
  1562   311   318   ar
  1563   311   310    1
  1564  1183  1186   ar
  1565  1183  1182   ar
  1566   333   332    2
  1567  1113  1124    1
  1568  1113  1111    1
  1569  1113  1108    1
  1570  1096  1099   ar
  1571   425   426    1
  1572  1058  1051   ar
  1573  1186  1187   ar
  1574  1051  1050    1
  1575  1131  1130    1
  1576   433   428    1
  1577   433   444    1
  1578   355   354   ar
  1579   355   357   ar
  1580  1217  1216    1
  1581  1208  1209   ar
  1582   286   287    1
  1583   334   332   ar
  1584   334   335   ar
  1585  1119  1122    1
  1586  1180  1181   ar
  1587  1001   999    1
  1588  1001  1000    1
  1589  1124  1123    1
  1590  1140  1146   ar
  1591  1140  1141   ar
  1592   354   352   ar
  1593  1157  1156    1
  1594  1003  1002    1
  1595  1146  1145   ar
  1596  1137  1142   ar
  1597  1040  1021    2
  1598   310   305    1
  1599   310   308    1
  1600  1153  1152    1
  1601  1153  1158    1
  1602  1152  1150    1
  1603  1152  1154    1
  1604  1111  1109    1
  1605   999  1020    2
  1606   999  1019    1
  1607   336   335    1
  1608   332   331   ar
  1609  1108  1107    1
  1610   443   444   ar
  1611   443   442   ar
  1612  1150  1151    1
  1613  1216  1214    1
  1614  1130  1132    1
  1615  1130  1128    1
  1616   444   438   ar
  1617  1077  1078   ar
  1618  1101  1090    1
  1619  1101  1100   ar
  1620  1071  1078   ar
  1621  1071  1070    1
  1622  1002  1000    1
  1623   305   304    1
  1624  1021  1039    1
  1625  1021  1023    1
  1626  1132  1133    1
  1627   335   337   ar
  1628  1210  1209   ar
  1629  1210  1200    1
  1630  1158  1156    1
  1631  1158  1159    1
  1632  1133  1149    1
  1633  1099  1100   ar
  1634  1050  1045    1
  1635  1050  1048    1
  1636  1090  1088    1
  1637  1090  1085    1
  1638   445   424    2
  1639  1182  1181   ar
  1640  1182  1188   ar
  1641   357   358   ar
  1642  1123  1122    1
  1643  1187  1188   ar
  1644  1141  1142   ar
  1645  1141  1144   ar
  1646  1156  1154    1
  1647  1107  1109    1
  1648  1107  1105    1
  1649  1142  1143    1
  1650   426   424    1
  1651   352   353    2
  1652   352   351   ar
  1653   442   439   ar
  1654  1070  1065    1
  1655  1070  1068    1
  1656  1155  1154    1
  1657  1155  1169    1
  1658  1089  1088    1
  1659  1145  1144   ar
  1660  1161  1160    2
  1661   287   301    1
  1662   331   330    1
  1663   331   338   ar
  1664  1045  1044    1
  1665   438   439   ar
  1666   438   437   ar
  1667   308   309    1
  1668   308   306    1
  1669  1109  1110    1
  1670  1129  1128    1
  1671  1129  1127    1
  1672  1088  1086    1
  1673  1200  1198    1
  1674  1200  1195    1
  1675  1022  1023    1
  1676  1022  1024    1
  1677  1085  1084    1
  1678  1198  1199    1
  1679  1198  1196    1
  1680  1151  1149    1
  1681   330   325    1
  1682   330   328    1
  1683   337   338   ar
  1684  1159  1160   ar
  1685  1159  1166   ar
  1686  1188  1178    1
  1687  1214  1215    1
  1688  1215  1213    1
  1689  1060  1041    2
  1690   424   446    1
  1691   424   410    1
  1692   439   440   ar
  1693  1048  1049    1
  1694  1048  1046    1
  1695   437   435   ar
  1696   320   301    2
  1697  1160  1162   ar
  1698   304   302    1
  1699   304   306    1
  1700  1110  1127    1
  1701  1065  1064    1
  1702  1149  1167    2
  1703  1149  1168    1
  1704   358   351   ar
  1705  1068  1069    1
  1706  1068  1066    1
  1707   303   301    1
  1708   303   302    1
  1709   325   324    1
  1710   351   350    1
  1711  1189  1169    1
  1712  1105  1106    1
  1713  1043  1041    1
  1714  1043  1042    1
  1715   301   319    1
  1716   306   307    1
  1717  1166  1165   ar
  1718   329   328    1
  1719  1169  1171    1
  1720  1169  1190    2
  1721  1127  1147    2
  1722  1127  1148    1
  1723  1044  1046    1
  1724  1044  1042    1
  1725  1196  1197    1
  1726  1196  1194    1
  1727  1232  1213    2
  1728   435   434   ar
  1729   435   436    1
  1730   328   326    1
  1731  1024  1026    1
  1732  1024  1025    1
  1733  1195  1194    1
  1734   440   434   ar
  1735   440   441    2
  1736  1084  1086    1
  1737  1084  1082    1
  1738  1046  1047    1
  1739  1041  1027    1
  1740  1041  1059    1
  1741   410   409    1
  1742  1086  1087    1
  1743  1162  1163   ar
  1744  1106  1104    1
  1745  1171  1170    1
  1746  1213  1197    1
  1747  1213  1231    1
  1748  1178  1173    1
  1749  1178  1176    1
  1750  1026  1027    1
  1751  1026  1028    1
  1752   416   415    2
  1753  1064  1066    1
  1754  1064  1062    1
  1755  1066  1067    1
  1756   412   411    1
  1757   324   326    1
  1758   324   322    1
  1759   350   348    1
  1760   350   345    1
  1761  1165  1163   ar
  1762   411   409    1
  1763   411   413    1
  1764   360   341    2
  1765  1194  1192    1
  1766  1173  1172    1
  1767   307   321    1
  1768   409   407    1
  1769  1176  1174    1
  1770  1176  1177    1
  1771  1163  1164    2
  1772  1087  1104    1
  1773  1025  1030    1
  1774   348   346    1
  1775   348   349    1
  1776  1082  1083    1
  1777  1063  1062    1
  1778  1063  1061    1
  1779   326   327    1
  1780  1193  1192    1
  1781  1193  1191    1
  1782  1212  1191    2
  1783   415   417   ar
  1784   415   414   ar
  1785   417   418   ar
  1786  1174  1172    1
  1787  1174  1175    1
  1788   322   323    1
  1789  1083  1081    1
  1790  1047  1061    1
  1791   323   321    1
  1792  1028  1030    1
  1793  1028  1029    1
  1794  1104  1126    2
  1795  1104  1125    1
  1796  1170  1172    1
  1797  1067  1081    1
  1798   345   344    1
  1799  1080  1061    1
  1800   340   321    2
  1801  1038  1037   ar
  1802  1038  1031   ar
  1803   346   344    1
  1804   346   347    1
  1805   321   339    1
  1806   419   418    2
  1807  1061  1079    2
  1808  1030  1031    1
  1809   418   420   ar
  1810  1191  1175    1
  1811  1191  1211    1
  1812   414   413    1
  1813   414   421   ar
  1814   413   408    1
  1815   341   327    1
  1816   341   359    1
  1817   341   343    1
  1818  1037  1035   ar
  1819  1081  1103    2
  1820  1081  1102    1
  1821   407   405    1
  1822   407   408    1
  1823   344   342    1
  1824  1031  1032   ar
  1825   342   343    1
  1826   421   420   ar
  1827   405   406    1
  1828  1035  1036    2
  1829  1035  1034   ar
  1830  1032  1034   ar
  1831  1032  1033    2
  1832   398   397    2
  1833   406   404    1
  1834   391   397   ar
  1835   391   392   ar
  1836   423   404    2
  1837   393   392    1
  1838   397   396   ar
  1839   422   404    1
  1840   392   394   ar
  1841   404   387    1
  1842   396   395   ar
  1843   396   399   ar
  1844   394   395   ar
  1845   395   401   ar
  1846   399   400   ar
  1847   387   386    1
  1848   386   388    1
  1849   386   384    1
  1850   376   375    1
  1851   401   400   ar
  1852   401   390    1
  1853   388   390    1
  1854   388   389    1
  1855   403   381    2
  1856   382   384    1
  1857   382   383    1
  1858   379   361    1
  1859   375   377   ar
  1860   375   374   ar
  1861   390   385    1
  1862   384   385    1
  1863   377   378   ar
  1864   374   372   ar
  1865   381   402    1
  1866   381   383    1
  1867   381   367    1
  1868   378   371   ar
  1869   361   363    1
  1870   361   380    1
  1871   372   371   ar
  1872   372   373    2
  1873   371   370    1
  1874   363   362    1
  1875   366   367    1
  1876   366   368    1
  1877   366   364    1
  1878   368   370    1
  1879   368   369    1
  1880   370   365    1
  1881   362   364    1
  1882   364   365    1
