2f4t_lig
 OpenBabel02221317003D

 35 36  0  0  1  0  0  0  0  0999 V2000
    2.8240   -5.7880   25.8520 C   0  0  2  0  0  0  0  0  0  0  0  0
    2.3290   -6.4920   27.0380 O   0  0  0  0  0  0  0  0  0  0  0  0
    3.6860   -9.5740   29.7430 C   0  0  2  0  0  0  0  0  0  0  0  0
    4.2620  -10.8410   30.2180 N   0  0  0  0  0  0  0  0  0  0  0  0
    2.3500   -4.3110   26.0050 C   0  0  2  0  0  0  0  0  0  0  0  0
    2.8210   -3.7510   27.2500 N   0  0  0  0  0  0  0  0  0  0  0  0
    2.5780   -9.8780   28.6690 C   0  0  0  0  0  0  0  0  0  0  0  0
    3.2950  -11.4640   31.5580 C   0  0  0  0  0  0  0  0  0  0  0  0
    4.2680  -12.6220   31.5810 C   0  0  1  0  0  0  0  0  0  0  0  0
    3.8390  -13.5630   32.7090 C   0  0  0  0  0  0  0  0  0  0  0  0
    4.9420  -13.9510   33.7080 C   0  0  0  0  0  0  0  0  0  0  0  0
    4.3610  -14.8440   34.7150 N   0  0  0  0  0  0  0  0  0  0  0  0
    4.1810  -13.3740   30.3990 O   0  0  0  0  0  0  0  0  0  0  0  0
    7.0880   -8.1710   30.5400 C   0  0  0  0  0  0  0  0  0  0  0  0
    6.9730   -7.6830   31.9760 C   0  0  0  0  0  0  0  0  0  0  0  0
    0.7880   -4.2360   25.9220 C   0  0  1  0  0  0  0  0  0  0  0  0
    7.0570   -6.2120   32.1090 N   0  0  0  0  0  0  0  0  0  0  0  0
    0.3370   -2.9020   26.0540 O   0  0  0  0  0  0  0  0  0  0  0  0
    1.9420   -8.5920   28.1230 C   0  0  2  0  0  0  0  0  0  0  0  0
    0.9470   -8.8980   27.1000 N   0  0  0  0  0  0  0  0  0  0  0  0
    7.1470   -4.0360   33.3290 C   0  0  0  0  0  0  0  0  0  0  0  0
    7.0700   -3.2810   34.6950 N   0  0  0  0  0  0  0  0  0  0  0  0
    6.9690   -5.5780   33.4550 C   0  0  0  0  0  0  0  0  0  0  0  0
    2.4240  -11.1260   32.0740 O   0  0  0  0  0  0  0  0  0  0  0  0
    0.3550   -4.8240   24.5750 C   0  0  2  0  0  0  0  0  0  0  0  0
   -1.0550   -4.7750   24.4290 O   0  0  0  0  0  0  0  0  0  0  0  0
    2.9980   -7.6930   27.5300 C   0  0  2  0  0  0  0  0  0  0  0  0
    0.8610   -6.2900   24.4490 C   0  0  2  0  0  0  0  0  0  0  0  0
    2.2950   -6.3590   24.5920 O   0  0  0  0  0  0  0  0  0  0  0  0
    4.1050   -7.3560   28.6190 C   0  0  2  0  0  0  0  0  0  0  0  0
    5.1040   -6.4820   28.0130 O   0  0  0  0  0  0  0  0  0  0  0  0
    0.4910   -6.8940   23.1470 C   0  0  0  0  0  0  0  0  0  0  0  0
    0.9570   -8.1610   23.0900 N   0  0  0  0  0  0  0  0  0  0  0  0
    4.7680   -8.6940   29.0980 C   0  0  1  0  0  0  0  0  0  0  0  0
    5.7640   -8.4300   30.0340 O   0  0  0  0  0  0  0  0  0  0  0  0
  1  2  1  1  0  0  0
  1  5  1  0  0  0  0
  1 29  1  0  0  0  0
  3  4  1  6  0  0  0
  3  7  1  0  0  0  0
  3 34  1  0  0  0  0
  5  6  1  1  0  0  0
  5 16  1  0  0  0  0
  7 19  1  0  0  0  0
  8  4  1  0  0  0  0
  8 24  2  0  0  0  0
  9  8  1  6  0  0  0
  9 10  1  0  0  0  0
  9 13  1  0  0  0  0
 10 11  1  0  0  0  0
 11 12  1  0  0  0  0
 14 15  1  0  0  0  0
 14 35  1  0  0  0  0
 15 17  1  0  0  0  0
 16 18  1  6  0  0  0
 16 25  1  0  0  0  0
 19 20  1  6  0  0  0
 19 27  1  0  0  0  0
 21 22  1  0  0  0  0
 21 23  1  0  0  0  0
 23 17  1  0  0  0  0
 25 26  1  1  0  0  0
 25 28  1  0  0  0  0
 27  2  1  1  0  0  0
 27 30  1  0  0  0  0
 28 29  1  0  0  0  0
 28 32  1  6  0  0  0
 30 31  1  6  0  0  0
 30 34  1  0  0  0  0
 32 33  2  0  0  0  0
 34 35  1  1  0  0  0
M  END
$$$$
