2f4t_lig
 OpenBabel11021811433D
libRbt.so/2013.1/901 2013/11/27
 35 36  0  0  0  0  0  0  0  0999 V2000
    3.2121   -5.4530   25.9718 C   0  0  2  0  0  0  0  0  0  0  0  0
    2.7913   -6.1212   27.2061 O   0  0  0  0  0  0  0  0  0  0  0  0
    3.7195   -9.6310   29.5464 C   0  0  2  0  0  0  0  0  0  0  0  0
    4.1545  -10.9961   29.8783 N   0  0  0  0  0  0  0  0  0  0  0  0
    2.8036   -3.9578   26.1366 C   0  0  2  0  0  0  0  0  0  0  0  0
    3.3936   -3.3969   27.3294 N   0  0  0  0  0  0  0  0  0  0  0  0
    2.6504   -9.6927   28.3945 C   0  0  0  0  0  0  0  0  0  0  0  0
    3.2476  -11.5818   31.2759 C   0  0  0  0  0  0  0  0  0  0  0  0
    4.0439  -12.8587   31.1225 C   0  0  1  0  0  0  0  0  0  0  0  0
    3.6564  -13.7859   32.2767 C   0  0  0  0  0  0  0  0  0  0  0  0
    4.4625  -13.6066   33.5740 C   0  0  0  0  0  0  0  0  0  0  0  0
    5.3119  -14.7873   33.7579 N   0  0  0  0  0  0  0  0  0  0  0  0
    3.6837  -13.5366   29.9473 O   0  0  0  0  0  0  0  0  0  0  0  0
    6.9451   -8.1975   30.8704 C   0  0  0  0  0  0  0  0  0  0  0  0
    6.3872   -7.1011   31.7649 C   0  0  0  0  0  0  0  0  0  0  0  0
    1.2436   -3.8280   26.1790 C   0  0  1  0  0  0  0  0  0  0  0  0
    6.4167   -5.7589   31.1434 N   0  0  0  0  0  0  0  0  0  0  0  0
    0.8513   -2.4768   26.3236 O   0  0  0  0  0  0  0  0  0  0  0  0
    2.1613   -8.2943   27.9922 C   0  0  2  0  0  0  0  0  0  0  0  0
    1.2017   -8.3749   26.8955 N   0  0  0  0  0  0  0  0  0  0  0  0
    7.3808   -3.9504   32.5685 C   0  0  0  0  0  0  0  0  0  0  0  0
    7.1364   -2.6511   33.4015 N   0  0  0  0  0  0  0  0  0  0  0  0
    6.0831   -4.5535   31.9540 C   0  0  0  0  0  0  0  0  0  0  0  0
    2.4893  -11.1692   31.9035 O   0  0  0  0  0  0  0  0  0  0  0  0
    0.6821   -4.4197   24.8820 C   0  0  2  0  0  0  0  0  0  0  0  0
   -0.7325   -4.3222   24.8497 O   0  0  0  0  0  0  0  0  0  0  0  0
    3.3237   -7.4320   27.5674 C   0  0  2  0  0  0  0  0  0  0  0  0
    1.1251   -5.9047   24.7412 C   0  0  2  0  0  0  0  0  0  0  0  0
    2.5627   -6.0231   24.7689 O   0  0  0  0  0  0  0  0  0  0  0  0
    4.3938   -7.3396   28.7384 C   0  0  2  0  0  0  0  0  0  0  0  0
    5.4980   -6.4949   28.2950 O   0  0  0  0  0  0  0  0  0  0  0  0
    0.6295   -6.5141   23.4842 C   0  0  0  0  0  0  0  0  0  0  0  0
    1.1549   -7.7513   23.3462 N   0  0  0  0  0  0  0  0  0  0  0  0
    4.9089   -8.7834   29.0688 C   0  0  1  0  0  0  0  0  0  0  0  0
    5.8707   -8.7335   30.0739 O   0  0  0  0  0  0  0  0  0  0  0  0
  1  2  1  1  0  0  0
  1  5  1  0  0  0  0
  1 29  1  0  0  0  0
  3  4  1  6  0  0  0
  3  7  1  0  0  0  0
  3 34  1  0  0  0  0
  5  6  1  1  0  0  0
  5 16  1  0  0  0  0
  7 19  1  0  0  0  0
  8  4  1  0  0  0  0
  8 24  2  0  0  0  0
  9  8  1  1  0  0  0
  9 10  1  0  0  0  0
  9 13  1  0  0  0  0
 10 11  1  0  0  0  0
 11 12  1  0  0  0  0
 14 15  1  0  0  0  0
 14 35  1  0  0  0  0
 15 17  1  0  0  0  0
 16 18  1  6  0  0  0
 16 25  1  0  0  0  0
 19 20  1  6  0  0  0
 19 27  1  0  0  0  0
 21 22  1  0  0  0  0
 21 23  1  0  0  0  0
 23 17  1  0  0  0  0
 25 26  1  1  0  0  0
 25 28  1  0  0  0  0
 27  2  1  1  0  0  0
 27 30  1  0  0  0  0
 28 29  1  0  0  0  0
 28 32  1  6  0  0  0
 30 31  1  6  0  0  0
 30 34  1  0  0  0  0
 32 33  2  0  0  0  0
 34 35  1  1  0  0  0
M  END
>  <CHROM.1>
-163.17399276,-96.91970791,176.37720559,-87.42870335,-110.47194258,-89.49421935
73.64919318,-171.53489239,178.14884548,92.19659709,-133.60073341,173.69478096
-149.69360913,3.56762016,-7.68897227,28.78086499,2.08777290,-0.88836182,-0.33039340

>  <Name>
2f4t_lig

>  <RI>
0

>  <Rbt.Current_Directory>
/home/itssahil/PROJECTS/Mol_Feturizer/New_Systems/rnas/2f4t

>  <Rbt.Executable>
rbdock ($Id: //depot/dev/client3/rdock/2013.1/src/exe/rbdock.cxx#4 $)

>  <Rbt.Library>
libRbt.so (2013.1, Build901 2013/11/27)

>  <Rbt.Parameter_File>
/export/apps/rDock/src/rDock_2013.1_src/data/scripts/dock_solv.prm

>  <Rbt.Receptor>
prm/pocket_docking_2.prm

>  <SCORE>
-7.76178

>  <SCORE.INTER>
-9.67372

>  <SCORE.INTER.CONST>
1

>  <SCORE.INTER.POLAR>
-0.938083

>  <SCORE.INTER.ROT>
13

>  <SCORE.INTER.SOLV>
13.4952

>  <SCORE.INTER.VDW>
-20.0873

>  <SCORE.INTER.norm>
-0.276392

>  <SCORE.INTRA>
1.91193

>  <SCORE.INTRA.DIHEDRAL>
2.5679

>  <SCORE.INTRA.DIHEDRAL.0>
23.8882

>  <SCORE.INTRA.POLAR>
0

>  <SCORE.INTRA.POLAR.0>
0

>  <SCORE.INTRA.REPUL>
0

>  <SCORE.INTRA.REPUL.0>
0

>  <SCORE.INTRA.SOLV>
2.5669

>  <SCORE.INTRA.SOLV.lig_0>
-97.6888

>  <SCORE.INTRA.VDW>
-0.655464

>  <SCORE.INTRA.VDW.0>
-3.9206

>  <SCORE.INTRA.norm>
0.0546267

>  <SCORE.RESTR>
0

>  <SCORE.RESTR.CAVITY>
0

>  <SCORE.RESTR.norm>
0

>  <SCORE.SYSTEM>
0

>  <SCORE.SYSTEM.CONST>
0

>  <SCORE.SYSTEM.DIHEDRAL>
0

>  <SCORE.SYSTEM.SOLV>
0

>  <SCORE.SYSTEM.norm>
0

>  <SCORE.heavy>
35

>  <SCORE.norm>
-0.221765

>  <RMSD>
0.725

$$$$
2f4t_lig
 OpenBabel11021811433D
libRbt.so/2013.1/901 2013/11/27
 35 36  0  0  0  0  0  0  0  0999 V2000
    3.2109   -5.6382   25.9629 C   0  0  2  0  0  0  0  0  0  0  0  0
    2.5803   -6.3859   27.0540 O   0  0  0  0  0  0  0  0  0  0  0  0
    3.9401   -9.2698   29.9680 C   0  0  2  0  0  0  0  0  0  0  0  0
    4.4885  -10.5126   30.5314 N   0  0  0  0  0  0  0  0  0  0  0  0
    2.8232   -4.1457   26.1900 C   0  0  2  0  0  0  0  0  0  0  0  0
    3.2309   -3.7075   27.5043 N   0  0  0  0  0  0  0  0  0  0  0  0
    2.7741   -9.6213   28.9728 C   0  0  0  0  0  0  0  0  0  0  0  0
    3.3090  -11.2342   31.6299 C   0  0  0  0  0  0  0  0  0  0  0  0
    4.3311  -12.3302   31.8358 C   0  0  1  0  0  0  0  0  0  0  0  0
    3.7071  -13.3750   32.7635 C   0  0  0  0  0  0  0  0  0  0  0  0
    4.6832  -14.4018   33.3618 C   0  0  0  0  0  0  0  0  0  0  0  0
    3.9445  -15.2484   34.3035 N   0  0  0  0  0  0  0  0  0  0  0  0
    4.6005  -12.9978   30.6308 O   0  0  0  0  0  0  0  0  0  0  0  0
    6.7428   -7.5989   31.1960 C   0  0  0  0  0  0  0  0  0  0  0  0
    7.0174   -6.1358   30.8841 C   0  0  0  0  0  0  0  0  0  0  0  0
    1.2806   -3.9555   25.9988 C   0  0  1  0  0  0  0  0  0  0  0  0
    7.6246   -5.3948   32.0115 N   0  0  0  0  0  0  0  0  0  0  0  0
    0.9081   -2.6054   26.1960 O   0  0  0  0  0  0  0  0  0  0  0  0
    2.1633   -8.3634   28.3396 C   0  0  2  0  0  0  0  0  0  0  0  0
    1.1123   -8.7171   27.3906 N   0  0  0  0  0  0  0  0  0  0  0  0
    6.7305   -3.2162   32.8394 C   0  0  0  0  0  0  0  0  0  0  0  0
    6.8997   -3.5352   34.3598 N   0  0  0  0  0  0  0  0  0  0  0  0
    7.7855   -3.9152   31.9319 C   0  0  0  0  0  0  0  0  0  0  0  0
    2.3295  -10.9664   31.9587 O   0  0  0  0  0  0  0  0  0  0  0  0
    0.9168   -4.4172   24.5838 C   0  0  2  0  0  0  0  0  0  0  0  0
   -0.4714   -4.2592   24.3390 O   0  0  0  0  0  0  0  0  0  0  0  0
    3.2248   -7.5654   27.6244 C   0  0  2  0  0  0  0  0  0  0  0  0
    1.3350   -5.9029   24.3867 C   0  0  2  0  0  0  0  0  0  0  0  0
    2.7459   -6.0822   24.6287 O   0  0  0  0  0  0  0  0  0  0  0  0
    4.3917   -7.1797   28.6316 C   0  0  2  0  0  0  0  0  0  0  0  0
    5.3948   -6.4054   27.9082 O   0  0  0  0  0  0  0  0  0  0  0  0
    1.0293   -6.3880   23.0199 C   0  0  0  0  0  0  0  0  0  0  0  0
   -0.1632   -7.0233   23.0240 N   0  0  0  0  0  0  0  0  0  0  0  0
    5.0245   -8.4964   29.2018 C   0  0  1  0  0  0  0  0  0  0  0  0
    6.0709   -8.1922   30.0679 O   0  0  0  0  0  0  0  0  0  0  0  0
  1  2  1  1  0  0  0
  1  5  1  0  0  0  0
  1 29  1  0  0  0  0
  3  4  1  6  0  0  0
  3  7  1  0  0  0  0
  3 34  1  0  0  0  0
  5  6  1  1  0  0  0
  5 16  1  0  0  0  0
  7 19  1  0  0  0  0
  8  4  1  0  0  0  0
  8 24  2  0  0  0  0
  9  8  1  6  0  0  0
  9 10  1  0  0  0  0
  9 13  1  0  0  0  0
 10 11  1  0  0  0  0
 11 12  1  0  0  0  0
 14 15  1  0  0  0  0
 14 35  1  0  0  0  0
 15 17  1  0  0  0  0
 16 18  1  6  0  0  0
 16 25  1  0  0  0  0
 19 20  1  6  0  0  0
 19 27  1  0  0  0  0
 21 22  1  0  0  0  0
 21 23  1  0  0  0  0
 23 17  1  0  0  0  0
 25 26  1  1  0  0  0
 25 28  1  0  0  0  0
 27  2  1  1  0  0  0
 27 30  1  0  0  0  0
 28 29  1  0  0  0  0
 28 32  1  6  0  0  0
 30 31  1  6  0  0  0
 30 34  1  0  0  0  0
 32 33  2  0  0  0  0
 34 35  1  1  0  0  0
M  END
>  <CHROM.1>
-146.21536346,-70.06816176,-177.02126122,-166.29047467,175.34534782,176.03450443
-77.21007366,-171.76430563,63.78504077,105.68078507,-160.42111254,-95.69819187
-62.92824164,3.65091531,-7.56565263,28.89027253,2.09643479,-0.87146018,-0.42410745

>  <Name>
2f4t_lig

>  <RI>
0

>  <Rbt.Current_Directory>
/home/itssahil/PROJECTS/Mol_Feturizer/New_Systems/rnas/2f4t

>  <Rbt.Executable>
rbdock ($Id: //depot/dev/client3/rdock/2013.1/src/exe/rbdock.cxx#4 $)

>  <Rbt.Library>
libRbt.so (2013.1, Build901 2013/11/27)

>  <Rbt.Parameter_File>
/export/apps/rDock/src/rDock_2013.1_src/data/scripts/dock_solv.prm

>  <Rbt.Receptor>
prm/pocket_docking_2.prm

>  <SCORE>
-16.7818

>  <SCORE.INTER>
-11.4129

>  <SCORE.INTER.CONST>
1

>  <SCORE.INTER.POLAR>
-1.58492

>  <SCORE.INTER.ROT>
13

>  <SCORE.INTER.SOLV>
13.1754

>  <SCORE.INTER.VDW>
-18.984

>  <SCORE.INTER.norm>
-0.326082

>  <SCORE.INTRA>
-5.40283

>  <SCORE.INTRA.DIHEDRAL>
-12.5099

>  <SCORE.INTRA.DIHEDRAL.0>
23.8882

>  <SCORE.INTRA.POLAR>
0

>  <SCORE.INTRA.POLAR.0>
0

>  <SCORE.INTRA.REPUL>
0

>  <SCORE.INTRA.REPUL.0>
0

>  <SCORE.INTRA.SOLV>
0.91122

>  <SCORE.INTRA.SOLV.lig_0>
-97.6888

>  <SCORE.INTRA.VDW>
0.396492

>  <SCORE.INTRA.VDW.0>
-3.9206

>  <SCORE.INTRA.norm>
-0.154367

>  <SCORE.RESTR>
0.0338906

>  <SCORE.RESTR.CAVITY>
0.0338906

>  <SCORE.RESTR.norm>
0.000968302

>  <SCORE.SYSTEM>
0

>  <SCORE.SYSTEM.CONST>
0

>  <SCORE.SYSTEM.DIHEDRAL>
0

>  <SCORE.SYSTEM.SOLV>
0

>  <SCORE.SYSTEM.norm>
0

>  <SCORE.heavy>
35

>  <SCORE.norm>
-0.47948

>  <RMSD>
0.793

$$$$
2f4t_lig
 OpenBabel11021811433D
libRbt.so/2013.1/901 2013/11/27
 35 36  0  0  0  0  0  0  0  0999 V2000
    2.9162   -5.5875   25.9900 C   0  0  2  0  0  0  0  0  0  0  0  0
    2.2964   -6.3933   27.0454 O   0  0  0  0  0  0  0  0  0  0  0  0
    3.8873   -9.5923   29.4729 C   0  0  2  0  0  0  0  0  0  0  0  0
    4.3360  -10.9359   29.8682 N   0  0  0  0  0  0  0  0  0  0  0  0
    2.2856   -4.1674   26.1130 C   0  0  2  0  0  0  0  0  0  0  0  0
    2.4839   -3.6349   27.4406 N   0  0  0  0  0  0  0  0  0  0  0  0
    2.4381   -9.6859   28.8692 C   0  0  0  0  0  0  0  0  0  0  0  0
    3.5239  -11.4143   31.3616 C   0  0  0  0  0  0  0  0  0  0  0  0
    4.3001  -12.7072   31.2432 C   0  0  1  0  0  0  0  0  0  0  0  0
    4.0905  -13.4919   32.5402 C   0  0  0  0  0  0  0  0  0  0  0  0
    4.8650  -14.8160   32.6499 C   0  0  0  0  0  0  0  0  0  0  0  0
    4.4674  -15.4831   33.8933 N   0  0  0  0  0  0  0  0  0  0  0  0
    3.7799  -13.5127   30.2182 O   0  0  0  0  0  0  0  0  0  0  0  0
    7.1588   -8.6651   29.8869 C   0  0  0  0  0  0  0  0  0  0  0  0
    6.9884   -7.2512   30.4211 C   0  0  0  0  0  0  0  0  0  0  0  0
    0.7602   -4.2241   25.7632 C   0  0  1  0  0  0  0  0  0  0  0  0
    7.9917   -6.8805   31.4431 N   0  0  0  0  0  0  0  0  0  0  0  0
    0.1692   -2.9431   25.8643 O   0  0  0  0  0  0  0  0  0  0  0  0
    1.9133   -8.3133   28.4252 C   0  0  2  0  0  0  0  0  0  0  0  0
    0.5851   -8.4317   27.8320 N   0  0  0  0  0  0  0  0  0  0  0  0
    7.0978   -5.4616   33.2921 C   0  0  0  0  0  0  0  0  0  0  0  0
    7.0809   -4.0688   34.0004 N   0  0  0  0  0  0  0  0  0  0  0  0
    7.9962   -5.5066   32.0208 C   0  0  0  0  0  0  0  0  0  0  0  0
    2.8130  -10.9514   32.0093 O   0  0  0  0  0  0  0  0  0  0  0  0
    0.6191   -4.7757   24.3408 C   0  0  2  0  0  0  0  0  0  0  0  0
   -0.7441   -4.8417   23.9544 O   0  0  0  0  0  0  0  0  0  0  0  0
    2.8491   -7.6924   27.4183 C   0  0  2  0  0  0  0  0  0  0  0  0
    1.2755   -6.1835   24.2503 C   0  0  2  0  0  0  0  0  0  0  0  0
    2.6646   -6.1352   24.6372 O   0  0  0  0  0  0  0  0  0  0  0  0
    4.3090   -7.5659   28.0327 C   0  0  2  0  0  0  0  0  0  0  0  0
    5.1832   -6.9573   27.0354 O   0  0  0  0  0  0  0  0  0  0  0  0
    1.1901   -6.7480   22.8825 C   0  0  0  0  0  0  0  0  0  0  0  0
    0.6117   -7.9680   22.9344 N   0  0  0  0  0  0  0  0  0  0  0  0
    4.8252   -8.9976   28.4108 C   0  0  1  0  0  0  0  0  0  0  0  0
    6.1159   -8.9237   28.9269 O   0  0  0  0  0  0  0  0  0  0  0  0
  1  2  1  1  0  0  0
  1  5  1  0  0  0  0
  1 29  1  0  0  0  0
  3  4  1  6  0  0  0
  3  7  1  0  0  0  0
  3 34  1  0  0  0  0
  5  6  1  1  0  0  0
  5 16  1  0  0  0  0
  7 19  1  0  0  0  0
  8  4  1  0  0  0  0
  8 24  2  0  0  0  0
  9  8  1  1  0  0  0
  9 10  1  0  0  0  0
  9 13  1  0  0  0  0
 10 11  1  0  0  0  0
 11 12  1  0  0  0  0
 14 15  1  0  0  0  0
 14 35  1  0  0  0  0
 15 17  1  0  0  0  0
 16 18  1  6  0  0  0
 16 25  1  0  0  0  0
 19 20  1  6  0  0  0
 19 27  1  0  0  0  0
 21 22  1  0  0  0  0
 21 23  1  0  0  0  0
 23 17  1  0  0  0  0
 25 26  1  1  0  0  0
 25 28  1  0  0  0  0
 27  2  1  1  0  0  0
 27 30  1  0  0  0  0
 28 29  1  0  0  0  0
 28 32  1  6  0  0  0
 30 31  1  6  0  0  0
 30 34  1  0  0  0  0
 32 33  2  0  0  0  0
 34 35  1  1  0  0  0
M  END
>  <CHROM.1>
-166.66228566,-75.30521487,171.23465766,-176.87166763,-175.47171303,178.74278311
-51.36149321,177.30576731,177.89674559,90.63349028,-174.60396981,-125.64485311
-43.51801980,3.57383973,-8.01779589,28.58000910,-2.17704744,0.82172227,2.76655064

>  <Name>
2f4t_lig

>  <RI>
0

>  <Rbt.Current_Directory>
/home/itssahil/PROJECTS/Mol_Feturizer/New_Systems/rnas/2f4t

>  <Rbt.Executable>
rbdock ($Id: //depot/dev/client3/rdock/2013.1/src/exe/rbdock.cxx#4 $)

>  <Rbt.Library>
libRbt.so (2013.1, Build901 2013/11/27)

>  <Rbt.Parameter_File>
/export/apps/rDock/src/rDock_2013.1_src/data/scripts/dock_solv.prm

>  <Rbt.Receptor>
prm/pocket_docking_2.prm

>  <SCORE>
-21.4316

>  <SCORE.INTER>
-11.8735

>  <SCORE.INTER.CONST>
1

>  <SCORE.INTER.POLAR>
-0.938083

>  <SCORE.INTER.ROT>
13

>  <SCORE.INTER.SOLV>
16.112

>  <SCORE.INTER.VDW>
-22.426

>  <SCORE.INTER.norm>
-0.339242

>  <SCORE.INTRA>
-9.6474

>  <SCORE.INTRA.DIHEDRAL>
-18.6107

>  <SCORE.INTRA.DIHEDRAL.0>
23.8882

>  <SCORE.INTRA.POLAR>
0

>  <SCORE.INTRA.POLAR.0>
0

>  <SCORE.INTRA.REPUL>
0

>  <SCORE.INTRA.REPUL.0>
0

>  <SCORE.INTRA.SOLV>
-1.58724

>  <SCORE.INTRA.SOLV.lig_0>
-97.6888

>  <SCORE.INTRA.VDW>
0.451596

>  <SCORE.INTRA.VDW.0>
-3.9206

>  <SCORE.INTRA.norm>
-0.27564

>  <SCORE.RESTR>
0.0892695

>  <SCORE.RESTR.CAVITY>
0.0892695

>  <SCORE.RESTR.norm>
0.00255056

>  <SCORE.SYSTEM>
0

>  <SCORE.SYSTEM.CONST>
0

>  <SCORE.SYSTEM.DIHEDRAL>
0

>  <SCORE.SYSTEM.SOLV>
0

>  <SCORE.SYSTEM.norm>
0

>  <SCORE.heavy>
35

>  <SCORE.norm>
-0.612332

>  <RMSD>
0.796

$$$$
2f4t_lig
 OpenBabel11021811433D
libRbt.so/2013.1/901 2013/11/27
 35 36  0  0  0  0  0  0  0  0999 V2000
    3.2033   -5.5436   25.9071 C   0  0  2  0  0  0  0  0  0  0  0  0
    2.8267   -6.1855   27.1693 O   0  0  0  0  0  0  0  0  0  0  0  0
    3.8332   -9.6671   29.5194 C   0  0  2  0  0  0  0  0  0  0  0  0
    4.2427  -11.0401   29.8509 N   0  0  0  0  0  0  0  0  0  0  0  0
    2.8557   -4.0336   26.0771 C   0  0  2  0  0  0  0  0  0  0  0  0
    3.5276   -3.4828   27.2306 N   0  0  0  0  0  0  0  0  0  0  0  0
    2.6567   -9.7139   28.4767 C   0  0  0  0  0  0  0  0  0  0  0  0
    3.5165  -11.5183   31.3881 C   0  0  0  0  0  0  0  0  0  0  0  0
    4.2183  -12.8428   31.1848 C   0  0  1  0  0  0  0  0  0  0  0  0
    3.9708  -13.6927   32.4332 C   0  0  0  0  0  0  0  0  0  0  0  0
    4.7561  -15.0130   32.5061 C   0  0  0  0  0  0  0  0  0  0  0  0
    4.3550  -15.7231   33.7243 N   0  0  0  0  0  0  0  0  0  0  0  0
    3.6488  -13.5536   30.1168 O   0  0  0  0  0  0  0  0  0  0  0  0
    6.7788   -8.5079   31.0131 C   0  0  0  0  0  0  0  0  0  0  0  0
    6.8226   -6.9928   31.1398 C   0  0  0  0  0  0  0  0  0  0  0  0
    1.3055   -3.8492   26.2011 C   0  0  1  0  0  0  0  0  0  0  0  0
    7.6213   -6.5187   32.2913 N   0  0  0  0  0  0  0  0  0  0  0  0
    0.9681   -2.4840   26.3516 O   0  0  0  0  0  0  0  0  0  0  0  0
    2.1881   -8.3072   28.0791 C   0  0  2  0  0  0  0  0  0  0  0  0
    1.1249   -8.3762   27.0815 N   0  0  0  0  0  0  0  0  0  0  0  0
    6.9089   -4.4451   33.4846 C   0  0  0  0  0  0  0  0  0  0  0  0
    7.0374   -2.8942   33.6264 N   0  0  0  0  0  0  0  0  0  0  0  0
    7.9017   -5.0642   32.4569 C   0  0  0  0  0  0  0  0  0  0  0  0
    2.8770  -11.0394   32.0957 O   0  0  0  0  0  0  0  0  0  0  0  0
    0.6554   -4.4329   24.9424 C   0  0  2  0  0  0  0  0  0  0  0  0
   -0.7548   -4.2865   24.9845 O   0  0  0  0  0  0  0  0  0  0  0  0
    3.3380   -7.5077   27.5192 C   0  0  2  0  0  0  0  0  0  0  0  0
    1.0391   -5.9335   24.7945 C   0  0  2  0  0  0  0  0  0  0  0  0
    2.4712   -6.1016   24.7468 O   0  0  0  0  0  0  0  0  0  0  0  0
    4.5186   -7.4297   28.5799 C   0  0  2  0  0  0  0  0  0  0  0  0
    5.6082   -6.6458   28.0076 O   0  0  0  0  0  0  0  0  0  0  0  0
    0.4563   -6.5367   23.5724 C   0  0  0  0  0  0  0  0  0  0  0  0
    0.9605   -5.9194   22.4814 N   0  0  0  0  0  0  0  0  0  0  0  0
    5.0044   -8.8849   28.9049 C   0  0  1  0  0  0  0  0  0  0  0  0
    6.0596   -8.8491   29.8121 O   0  0  0  0  0  0  0  0  0  0  0  0
  1  2  1  1  0  0  0
  1  5  1  0  0  0  0
  1 29  1  0  0  0  0
  3  4  1  6  0  0  0
  3  7  1  0  0  0  0
  3 34  1  0  0  0  0
  5  6  1  1  0  0  0
  5 16  1  0  0  0  0
  7 19  1  0  0  0  0
  8  4  1  0  0  0  0
  8 24  2  0  0  0  0
  9  8  1  1  0  0  0
  9 10  1  0  0  0  0
  9 13  1  0  0  0  0
 10 11  1  0  0  0  0
 11 12  1  0  0  0  0
 14 15  1  0  0  0  0
 14 35  1  0  0  0  0
 15 17  1  0  0  0  0
 16 18  1  6  0  0  0
 16 25  1  0  0  0  0
 19 20  1  6  0  0  0
 19 27  1  0  0  0  0
 21 22  1  0  0  0  0
 21 23  1  0  0  0  0
 23 17  1  0  0  0  0
 25 26  1  1  0  0  0
 25 28  1  0  0  0  0
 27  2  1  1  0  0  0
 27 30  1  0  0  0  0
 28 29  1  0  0  0  0
 28 32  1  6  0  0  0
 30 31  1  6  0  0  0
 30 34  1  0  0  0  0
 32 33  2  0  0  0  0
 34 35  1  1  0  0  0
M  END
>  <CHROM.1>
-162.85116215,-99.77732262,175.56811885,-172.27482191,-177.39505094,-175.93745154
-56.56196270,172.45801670,-174.59976320,98.90129027,-136.44297927,63.04805806
-66.84417678,3.67271241,-7.78990123,28.79521165,2.10608820,-0.86359493,-0.33308456

>  <Name>
2f4t_lig

>  <RI>
0

>  <Rbt.Current_Directory>
/home/itssahil/PROJECTS/Mol_Feturizer/New_Systems/rnas/2f4t

>  <Rbt.Executable>
rbdock ($Id: //depot/dev/client3/rdock/2013.1/src/exe/rbdock.cxx#4 $)

>  <Rbt.Library>
libRbt.so (2013.1, Build901 2013/11/27)

>  <Rbt.Parameter_File>
/export/apps/rDock/src/rDock_2013.1_src/data/scripts/dock_solv.prm

>  <Rbt.Receptor>
prm/pocket_docking_2.prm

>  <SCORE>
-17.1466

>  <SCORE.INTER>
-11.7396

>  <SCORE.INTER.CONST>
1

>  <SCORE.INTER.POLAR>
-0.938083

>  <SCORE.INTER.ROT>
13

>  <SCORE.INTER.SOLV>
12.5564

>  <SCORE.INTER.VDW>
-21.1516

>  <SCORE.INTER.norm>
-0.335418

>  <SCORE.INTRA>
-5.40701

>  <SCORE.INTRA.DIHEDRAL>
-11.3934

>  <SCORE.INTRA.DIHEDRAL.0>
23.8882

>  <SCORE.INTRA.POLAR>
0

>  <SCORE.INTRA.POLAR.0>
0

>  <SCORE.INTRA.REPUL>
0

>  <SCORE.INTRA.REPUL.0>
0

>  <SCORE.INTRA.SOLV>
0.581584

>  <SCORE.INTRA.SOLV.lig_0>
-97.6888

>  <SCORE.INTRA.VDW>
-0.00112458

>  <SCORE.INTRA.VDW.0>
-3.9206

>  <SCORE.INTRA.norm>
-0.154486

>  <SCORE.RESTR>
0

>  <SCORE.RESTR.CAVITY>
0

>  <SCORE.RESTR.norm>
0

>  <SCORE.SYSTEM>
0

>  <SCORE.SYSTEM.CONST>
0

>  <SCORE.SYSTEM.DIHEDRAL>
0

>  <SCORE.SYSTEM.SOLV>
0

>  <SCORE.SYSTEM.norm>
0

>  <SCORE.heavy>
35

>  <SCORE.norm>
-0.489904

>  <RMSD>
0.805

$$$$
2f4t_lig
 OpenBabel11021811433D
libRbt.so/2013.1/901 2013/11/27
 35 36  0  0  0  0  0  0  0  0999 V2000
    3.0322   -5.9399   26.0259 C   0  0  2  0  0  0  0  0  0  0  0  0
    2.4953   -6.5847   27.2273 O   0  0  0  0  0  0  0  0  0  0  0  0
    4.2165   -9.3481   30.0661 C   0  0  2  0  0  0  0  0  0  0  0  0
    4.7341  -10.6010   30.6361 N   0  0  0  0  0  0  0  0  0  0  0  0
    2.6829   -4.4270   26.1627 C   0  0  2  0  0  0  0  0  0  0  0  0
    3.2131   -3.8908   27.3943 N   0  0  0  0  0  0  0  0  0  0  0  0
    2.7889   -9.6052   29.4583 C   0  0  0  0  0  0  0  0  0  0  0  0
    3.6251  -11.1870   31.8793 C   0  0  0  0  0  0  0  0  0  0  0  0
    4.5870  -12.3433   32.0405 C   0  0  1  0  0  0  0  0  0  0  0  0
    4.0524  -13.2353   33.1632 C   0  0  0  0  0  0  0  0  0  0  0  0
    4.9119  -14.4643   33.5035 C   0  0  0  0  0  0  0  0  0  0  0  0
    4.2083  -15.2545   34.5183 N   0  0  0  0  0  0  0  0  0  0  0  0
    4.6055  -13.1449   30.8885 O   0  0  0  0  0  0  0  0  0  0  0  0
    7.4205   -8.1400   30.3840 C   0  0  0  0  0  0  0  0  0  0  0  0
    7.3573   -6.6209   30.4234 C   0  0  0  0  0  0  0  0  0  0  0  0
    1.1315   -4.2250   26.0954 C   0  0  1  0  0  0  0  0  0  0  0  0
    6.1041   -6.0962   31.0089 N   0  0  0  0  0  0  0  0  0  0  0  0
    0.7931   -2.8567   26.2130 O   0  0  0  0  0  0  0  0  0  0  0  0
    2.1947   -8.3344   28.8352 C   0  0  2  0  0  0  0  0  0  0  0  0
    0.8891   -8.6075   28.2427 N   0  0  0  0  0  0  0  0  0  0  0  0
    6.9343   -4.3799   32.6202 C   0  0  0  0  0  0  0  0  0  0  0  0
    7.1185   -3.9574   34.1134 N   0  0  0  0  0  0  0  0  0  0  0  0
    6.0706   -5.6624   32.4344 C   0  0  0  0  0  0  0  0  0  0  0  0
    2.7038  -10.8353   32.2875 O   0  0  0  0  0  0  0  0  0  0  0  0
    0.6356   -4.7935   24.7618 C   0  0  2  0  0  0  0  0  0  0  0  0
   -0.7673   -4.6307   24.6304 O   0  0  0  0  0  0  0  0  0  0  0  0
    3.1146   -7.7901   27.7710 C   0  0  2  0  0  0  0  0  0  0  0  0
    1.0180   -6.2978   24.6516 C   0  0  2  0  0  0  0  0  0  0  0  0
    2.4432   -6.4825   24.7801 O   0  0  0  0  0  0  0  0  0  0  0  0
    4.5507   -7.4983   28.3853 C   0  0  2  0  0  0  0  0  0  0  0  0
    5.4096   -6.9687   27.3313 O   0  0  0  0  0  0  0  0  0  0  0  0
    0.5842   -6.8869   23.3626 C   0  0  0  0  0  0  0  0  0  0  0  0
    1.0008   -6.1008   22.3456 N   0  0  0  0  0  0  0  0  0  0  0  0
    5.1412   -8.8366   28.9505 C   0  0  1  0  0  0  0  0  0  0  0  0
    6.4137   -8.6196   29.4717 O   0  0  0  0  0  0  0  0  0  0  0  0
  1  2  1  1  0  0  0
  1  5  1  0  0  0  0
  1 29  1  0  0  0  0
  3  4  1  6  0  0  0
  3  7  1  0  0  0  0
  3 34  1  0  0  0  0
  5  6  1  1  0  0  0
  5 16  1  0  0  0  0
  7 19  1  0  0  0  0
  8  4  1  0  0  0  0
  8 24  2  0  0  0  0
  9  8  1  6  0  0  0
  9 10  1  0  0  0  0
  9 13  1  0  0  0  0
 10 11  1  0  0  0  0
 11 12  1  0  0  0  0
 14 15  1  0  0  0  0
 14 35  1  0  0  0  0
 15 17  1  0  0  0  0
 16 18  1  6  0  0  0
 16 25  1  0  0  0  0
 19 20  1  6  0  0  0
 19 27  1  0  0  0  0
 21 22  1  0  0  0  0
 21 23  1  0  0  0  0
 23 17  1  0  0  0  0
 25 26  1  1  0  0  0
 25 28  1  0  0  0  0
 27  2  1  1  0  0  0
 27 30  1  0  0  0  0
 28 29  1  0  0  0  0
 28 32  1  6  0  0  0
 30 31  1  6  0  0  0
 30 34  1  0  0  0  0
 32 33  2  0  0  0  0
 34 35  1  1  0  0  0
M  END
>  <CHROM.1>
-151.19344732,-58.66319743,178.10410424,-178.85091684,-175.74496696,66.15884485
-61.43160016,98.42422647,-172.21480901,68.25279365,-169.97266099,50.36428826
-48.24118813,3.64238845,-7.83800863,28.91038960,-2.12017333,0.84571280,2.71410331

>  <Name>
2f4t_lig

>  <RI>
0

>  <Rbt.Current_Directory>
/home/itssahil/PROJECTS/Mol_Feturizer/New_Systems/rnas/2f4t

>  <Rbt.Executable>
rbdock ($Id: //depot/dev/client3/rdock/2013.1/src/exe/rbdock.cxx#4 $)

>  <Rbt.Library>
libRbt.so (2013.1, Build901 2013/11/27)

>  <Rbt.Parameter_File>
/export/apps/rDock/src/rDock_2013.1_src/data/scripts/dock_solv.prm

>  <Rbt.Receptor>
prm/pocket_docking_2.prm

>  <SCORE>
-16.6944

>  <SCORE.INTER>
-10.7936

>  <SCORE.INTER.CONST>
1

>  <SCORE.INTER.POLAR>
-1.35667

>  <SCORE.INTER.ROT>
13

>  <SCORE.INTER.SOLV>
14.1384

>  <SCORE.INTER.VDW>
-19.653

>  <SCORE.INTER.norm>
-0.308389

>  <SCORE.INTRA>
-5.98549

>  <SCORE.INTRA.DIHEDRAL>
-15.4178

>  <SCORE.INTRA.DIHEDRAL.0>
23.8882

>  <SCORE.INTRA.POLAR>
0

>  <SCORE.INTRA.POLAR.0>
0

>  <SCORE.INTRA.REPUL>
0

>  <SCORE.INTRA.REPUL.0>
0

>  <SCORE.INTRA.SOLV>
1.14543

>  <SCORE.INTRA.SOLV.lig_0>
-97.6888

>  <SCORE.INTRA.VDW>
1.1507

>  <SCORE.INTRA.VDW.0>
-3.9206

>  <SCORE.INTRA.norm>
-0.171014

>  <SCORE.RESTR>
0.0847049

>  <SCORE.RESTR.CAVITY>
0.0847049

>  <SCORE.RESTR.norm>
0.00242014

>  <SCORE.SYSTEM>
0

>  <SCORE.SYSTEM.CONST>
0

>  <SCORE.SYSTEM.DIHEDRAL>
0

>  <SCORE.SYSTEM.SOLV>
0

>  <SCORE.SYSTEM.norm>
0

>  <SCORE.heavy>
35

>  <SCORE.norm>
-0.476983

>  <RMSD>
0.819

$$$$
2f4t_lig
 OpenBabel11021811433D
libRbt.so/2013.1/901 2013/11/27
 35 36  0  0  0  0  0  0  0  0999 V2000
    3.0546   -5.6447   25.9778 C   0  0  2  0  0  0  0  0  0  0  0  0
    2.3884   -6.4051   27.0386 O   0  0  0  0  0  0  0  0  0  0  0  0
    3.3133   -9.8343   29.4967 C   0  0  2  0  0  0  0  0  0  0  0  0
    3.6943  -11.2044   29.8711 N   0  0  0  0  0  0  0  0  0  0  0  0
    2.5290   -4.1830   26.1075 C   0  0  2  0  0  0  0  0  0  0  0  0
    2.7776   -3.6678   27.4335 N   0  0  0  0  0  0  0  0  0  0  0  0
    2.1428   -9.8895   28.4477 C   0  0  0  0  0  0  0  0  0  0  0  0
    2.8193  -11.6837   31.3284 C   0  0  0  0  0  0  0  0  0  0  0  0
    3.5449  -13.0048   31.2001 C   0  0  1  0  0  0  0  0  0  0  0  0
    4.6593  -13.0231   32.2488 C   0  0  0  0  0  0  0  0  0  0  0  0
    4.1944  -13.0937   33.7130 C   0  0  0  0  0  0  0  0  0  0  0  0
    3.6453  -14.4303   33.9602 N   0  0  0  0  0  0  0  0  0  0  0  0
    2.6969  -14.0762   31.5215 O   0  0  0  0  0  0  0  0  0  0  0  0
    6.8365   -8.6876   30.3257 C   0  0  0  0  0  0  0  0  0  0  0  0
    6.8805   -7.1776   30.5027 C   0  0  0  0  0  0  0  0  0  0  0  0
    1.0003   -4.1293   25.7722 C   0  0  1  0  0  0  0  0  0  0  0  0
    8.1092   -6.6963   31.1715 N   0  0  0  0  0  0  0  0  0  0  0  0
    0.5040   -2.8093   25.8794 O   0  0  0  0  0  0  0  0  0  0  0  0
    1.7036   -8.4866   28.0058 C   0  0  2  0  0  0  0  0  0  0  0  0
    0.6457   -8.5647   27.0034 N   0  0  0  0  0  0  0  0  0  0  0  0
    7.4578   -4.5975   32.3557 C   0  0  0  0  0  0  0  0  0  0  0  0
    7.3038   -3.8375   33.7123 N   0  0  0  0  0  0  0  0  0  0  0  0
    8.0240   -6.0404   32.5071 C   0  0  0  0  0  0  0  0  0  0  0  0
    2.1092  -11.2068   31.9667 O   0  0  0  0  0  0  0  0  0  0  0  0
    0.8065   -4.6677   24.3508 C   0  0  2  0  0  0  0  0  0  0  0  0
   -0.5615   -4.6350   23.9773 O   0  0  0  0  0  0  0  0  0  0  0  0
    2.8721   -7.7258   27.4306 C   0  0  2  0  0  0  0  0  0  0  0  0
    1.3590   -6.1190   24.2534 C   0  0  2  0  0  0  0  0  0  0  0  0
    2.7515   -6.1712   24.6271 O   0  0  0  0  0  0  0  0  0  0  0  0
    4.0473   -7.6389   28.4967 C   0  0  2  0  0  0  0  0  0  0  0  0
    5.1553   -6.8930   27.9091 O   0  0  0  0  0  0  0  0  0  0  0  0
    1.2203   -6.6742   22.8862 C   0  0  0  0  0  0  0  0  0  0  0  0
    0.6852   -7.9130   22.9556 N   0  0  0  0  0  0  0  0  0  0  0  0
    4.5031   -9.0929   28.8675 C   0  0  1  0  0  0  0  0  0  0  0  0
    5.5530   -9.0504   29.7806 O   0  0  0  0  0  0  0  0  0  0  0  0
  1  2  1  1  0  0  0
  1  5  1  0  0  0  0
  1 29  1  0  0  0  0
  3  4  1  6  0  0  0
  3  7  1  0  0  0  0
  3 34  1  0  0  0  0
  5  6  1  1  0  0  0
  5 16  1  0  0  0  0
  7 19  1  0  0  0  0
  8  4  1  0  0  0  0
  8 24  2  0  0  0  0
  9  8  1  1  0  0  0
  9 10  1  0  0  0  0
  9 13  1  0  0  0  0
 10 11  1  0  0  0  0
 11 12  1  0  0  0  0
 14 15  1  0  0  0  0
 14 35  1  0  0  0  0
 15 17  1  0  0  0  0
 16 18  1  6  0  0  0
 16 25  1  0  0  0  0
 19 20  1  6  0  0  0
 19 27  1  0  0  0  0
 21 22  1  0  0  0  0
 21 23  1  0  0  0  0
 23 17  1  0  0  0  0
 25 26  1  1  0  0  0
 25 28  1  0  0  0  0
 27  2  1  1  0  0  0
 27 30  1  0  0  0  0
 28 29  1  0  0  0  0
 28 32  1  6  0  0  0
 30 31  1  6  0  0  0
 30 34  1  0  0  0  0
 32 33  2  0  0  0  0
 34 35  1  1  0  0  0
M  END
>  <CHROM.1>
-164.97513037,-93.97699649,103.94402639,68.41817087,70.68087044,174.80274116
61.60856833,-115.32716487,178.81272350,-74.64530933,-153.93719991,-132.14094199
-173.26094197,3.43863497,-7.96213107,28.66512574,-2.06533390,0.78753602,2.63452289

>  <Name>
2f4t_lig

>  <RI>
0

>  <Rbt.Current_Directory>
/home/itssahil/PROJECTS/Mol_Feturizer/New_Systems/rnas/2f4t

>  <Rbt.Executable>
rbdock ($Id: //depot/dev/client3/rdock/2013.1/src/exe/rbdock.cxx#4 $)

>  <Rbt.Library>
libRbt.so (2013.1, Build901 2013/11/27)

>  <Rbt.Parameter_File>
/export/apps/rDock/src/rDock_2013.1_src/data/scripts/dock_solv.prm

>  <Rbt.Receptor>
prm/pocket_docking_2.prm

>  <SCORE>
-17.466

>  <SCORE.INTER>
-11.9199

>  <SCORE.INTER.CONST>
1

>  <SCORE.INTER.POLAR>
-0.938083

>  <SCORE.INTER.ROT>
13

>  <SCORE.INTER.SOLV>
14.2645

>  <SCORE.INTER.VDW>
-21.8412

>  <SCORE.INTER.norm>
-0.340568

>  <SCORE.INTRA>
-5.60716

>  <SCORE.INTRA.DIHEDRAL>
-13.7733

>  <SCORE.INTRA.DIHEDRAL.0>
23.8882

>  <SCORE.INTRA.POLAR>
0

>  <SCORE.INTRA.POLAR.0>
0

>  <SCORE.INTRA.REPUL>
0

>  <SCORE.INTRA.REPUL.0>
0

>  <SCORE.INTRA.SOLV>
2.04985

>  <SCORE.INTRA.SOLV.lig_0>
-97.6888

>  <SCORE.INTRA.VDW>
0.254553

>  <SCORE.INTRA.VDW.0>
-3.9206

>  <SCORE.INTRA.norm>
-0.160204

>  <SCORE.RESTR>
0.0610407

>  <SCORE.RESTR.CAVITY>
0.0610407

>  <SCORE.RESTR.norm>
0.00174402

>  <SCORE.SYSTEM>
0

>  <SCORE.SYSTEM.CONST>
0

>  <SCORE.SYSTEM.DIHEDRAL>
0

>  <SCORE.SYSTEM.SOLV>
0

>  <SCORE.SYSTEM.norm>
0

>  <SCORE.heavy>
35

>  <SCORE.norm>
-0.499029

>  <RMSD>
0.825

$$$$
2f4t_lig
 OpenBabel11021811433D
libRbt.so/2013.1/901 2013/11/27
 35 36  0  0  0  0  0  0  0  0999 V2000
    2.6745   -5.3538   25.8051 C   0  0  2  0  0  0  0  0  0  0  0  0
    2.0321   -6.3098   26.7110 O   0  0  0  0  0  0  0  0  0  0  0  0
    3.5190   -9.0460   29.7043 C   0  0  2  0  0  0  0  0  0  0  0  0
    4.2035  -10.2019   30.3026 N   0  0  0  0  0  0  0  0  0  0  0  0
    2.0205   -3.9723   26.1108 C   0  0  2  0  0  0  0  0  0  0  0  0
    2.1683   -3.6364   27.5075 N   0  0  0  0  0  0  0  0  0  0  0  0
    2.5546   -9.5456   28.5669 C   0  0  0  0  0  0  0  0  0  0  0  0
    3.0197  -11.2419   31.0999 C   0  0  0  0  0  0  0  0  0  0  0  0
    4.1945  -12.1274   31.4524 C   0  0  1  0  0  0  0  0  0  0  0  0
    3.7208  -13.1212   32.5154 C   0  0  0  0  0  0  0  0  0  0  0  0
    4.8221  -13.9740   33.1673 C   0  0  0  0  0  0  0  0  0  0  0  0
    4.1918  -14.8978   34.1151 N   0  0  0  0  0  0  0  0  0  0  0  0
    4.5875  -12.9020   30.3499 O   0  0  0  0  0  0  0  0  0  0  0  0
    5.8257   -7.0180   31.3218 C   0  0  0  0  0  0  0  0  0  0  0  0
    7.3454   -6.9605   31.3450 C   0  0  0  0  0  0  0  0  0  0  0  0
    0.5082   -3.9914   25.7047 C   0  0  1  0  0  0  0  0  0  0  0  0
    7.8937   -6.2992   32.5494 N   0  0  0  0  0  0  0  0  0  0  0  0
   -0.1035   -2.7441   25.9698 O   0  0  0  0  0  0  0  0  0  0  0  0
    1.8145   -8.3822   27.8920 C   0  0  2  0  0  0  0  0  0  0  0  0
    0.9576   -8.8667   26.8144 N   0  0  0  0  0  0  0  0  0  0  0  0
    6.7036   -4.1060   32.6198 C   0  0  0  0  0  0  0  0  0  0  0  0
    5.9376   -4.3175   33.9653 N   0  0  0  0  0  0  0  0  0  0  0  0
    8.0860   -4.8213   32.5672 C   0  0  0  0  0  0  0  0  0  0  0  0
    1.9618  -11.2055   31.2362 O   0  0  0  0  0  0  0  0  0  0  0  0
    0.4209   -4.3321   24.2134 C   0  0  2  0  0  0  0  0  0  0  0  0
   -0.9279   -4.3537   23.7753 O   0  0  0  0  0  0  0  0  0  0  0  0
    2.7989   -7.3876   27.3294 C   0  0  2  0  0  0  0  0  0  0  0  0
    1.0994   -5.7059   23.9426 C   0  0  2  0  0  0  0  0  0  0  0  0
    2.4744   -5.7016   24.3795 O   0  0  0  0  0  0  0  0  0  0  0  0
    3.7570   -6.8546   28.4796 C   0  0  2  0  0  0  0  0  0  0  0  0
    4.6893   -5.8927   27.9012 O   0  0  0  0  0  0  0  0  0  0  0  0
    1.0662   -6.0667   22.5053 C   0  0  0  0  0  0  0  0  0  0  0  0
    0.7045   -7.3620   22.3747 N   0  0  0  0  0  0  0  0  0  0  0  0
    4.5360   -8.0695   29.0933 C   0  0  1  0  0  0  0  0  0  0  0  0
    5.4066   -7.6311   30.0871 O   0  0  0  0  0  0  0  0  0  0  0  0
  1  2  1  1  0  0  0
  1  5  1  0  0  0  0
  1 29  1  0  0  0  0
  3  4  1  6  0  0  0
  3  7  1  0  0  0  0
  3 34  1  0  0  0  0
  5  6  1  1  0  0  0
  5 16  1  0  0  0  0
  7 19  1  0  0  0  0
  8  4  1  0  0  0  0
  8 24  2  0  0  0  0
  9  8  1  6  0  0  0
  9 10  1  0  0  0  0
  9 13  1  0  0  0  0
 10 11  1  0  0  0  0
 11 12  1  0  0  0  0
 14 15  1  0  0  0  0
 14 35  1  0  0  0  0
 15 17  1  0  0  0  0
 16 18  1  6  0  0  0
 16 25  1  0  0  0  0
 19 20  1  6  0  0  0
 19 27  1  0  0  0  0
 21 22  1  0  0  0  0
 21 23  1  0  0  0  0
 23 17  1  0  0  0  0
 25 26  1  1  0  0  0
 25 28  1  0  0  0  0
 27  2  1  1  0  0  0
 27 30  1  0  0  0  0
 28 29  1  0  0  0  0
 28 32  1  6  0  0  0
 30 31  1  6  0  0  0
 30 34  1  0  0  0  0
 32 33  2  0  0  0  0
 34 35  1  1  0  0  0
M  END
>  <CHROM.1>
-142.07938853,-64.57081431,166.51491625,-171.01470400,-177.86961427,177.75741384
-172.91589388,-87.57353563,67.85641038,70.83451390,-165.44983772,-135.33389265
-58.49804803,3.33194969,-7.54343665,28.66926203,-2.23911769,0.88481906,2.76838974

>  <Name>
2f4t_lig

>  <RI>
0

>  <Rbt.Current_Directory>
/home/itssahil/PROJECTS/Mol_Feturizer/New_Systems/rnas/2f4t

>  <Rbt.Executable>
rbdock ($Id: //depot/dev/client3/rdock/2013.1/src/exe/rbdock.cxx#4 $)

>  <Rbt.Library>
libRbt.so (2013.1, Build901 2013/11/27)

>  <Rbt.Parameter_File>
/export/apps/rDock/src/rDock_2013.1_src/data/scripts/dock_solv.prm

>  <Rbt.Receptor>
prm/pocket_docking_2.prm

>  <SCORE>
-19.6117

>  <SCORE.INTER>
-13.9573

>  <SCORE.INTER.CONST>
1

>  <SCORE.INTER.POLAR>
-1.846

>  <SCORE.INTER.ROT>
13

>  <SCORE.INTER.SOLV>
15.3562

>  <SCORE.INTER.VDW>
-20.5369

>  <SCORE.INTER.norm>
-0.398779

>  <SCORE.INTRA>
-5.66176

>  <SCORE.INTRA.DIHEDRAL>
-14.4033

>  <SCORE.INTRA.DIHEDRAL.0>
23.8882

>  <SCORE.INTRA.POLAR>
0

>  <SCORE.INTRA.POLAR.0>
0

>  <SCORE.INTRA.REPUL>
0

>  <SCORE.INTRA.REPUL.0>
0

>  <SCORE.INTRA.SOLV>
1.60597

>  <SCORE.INTRA.SOLV.lig_0>
-97.6888

>  <SCORE.INTRA.VDW>
0.736915

>  <SCORE.INTRA.VDW.0>
-3.9206

>  <SCORE.INTRA.norm>
-0.161764

>  <SCORE.RESTR>
0.00732796

>  <SCORE.RESTR.CAVITY>
0.00732796

>  <SCORE.RESTR.norm>
0.00020937

>  <SCORE.SYSTEM>
0

>  <SCORE.SYSTEM.CONST>
0

>  <SCORE.SYSTEM.DIHEDRAL>
0

>  <SCORE.SYSTEM.SOLV>
0

>  <SCORE.SYSTEM.norm>
0

>  <SCORE.heavy>
35

>  <SCORE.norm>
-0.560334

>  <RMSD>
0.833

$$$$
2f4t_lig
 OpenBabel11021811433D
libRbt.so/2013.1/901 2013/11/27
 35 36  0  0  0  0  0  0  0  0999 V2000
    2.8619   -5.6023   25.8084 C   0  0  2  0  0  0  0  0  0  0  0  0
    2.2144   -6.4258   26.8330 O   0  0  0  0  0  0  0  0  0  0  0  0
    3.9006   -9.4264   29.4426 C   0  0  2  0  0  0  0  0  0  0  0  0
    4.4016  -10.7271   29.9115 N   0  0  0  0  0  0  0  0  0  0  0  0
    2.2915   -4.1638   25.9952 C   0  0  2  0  0  0  0  0  0  0  0  0
    2.5182   -3.6966   27.3427 N   0  0  0  0  0  0  0  0  0  0  0  0
    2.4689   -9.6157   28.8196 C   0  0  0  0  0  0  0  0  0  0  0  0
    3.5195  -11.2117   31.3627 C   0  0  0  0  0  0  0  0  0  0  0  0
    4.3789  -12.4564   31.3394 C   0  0  1  0  0  0  0  0  0  0  0  0
    4.1007  -13.2335   32.6280 C   0  0  0  0  0  0  0  0  0  0  0  0
    4.9827  -14.4714   32.8625 C   0  0  0  0  0  0  0  0  0  0  0  0
    4.4746  -15.1857   34.0376 N   0  0  0  0  0  0  0  0  0  0  0  0
    4.0017  -13.3069   30.2885 O   0  0  0  0  0  0  0  0  0  0  0  0
    7.1341   -8.2000   29.7896 C   0  0  0  0  0  0  0  0  0  0  0  0
    6.8123   -8.6607   31.2030 C   0  0  0  0  0  0  0  0  0  0  0  0
    0.7633   -4.1426   25.6534 C   0  0  1  0  0  0  0  0  0  0  0  0
    5.9632   -7.7112   31.9554 N   0  0  0  0  0  0  0  0  0  0  0  0
    0.2266   -2.8437   25.8121 O   0  0  0  0  0  0  0  0  0  0  0  0
    1.8915   -8.2919   28.2994 C   0  0  2  0  0  0  0  0  0  0  0  0
    0.5817   -8.5000   27.6901 N   0  0  0  0  0  0  0  0  0  0  0  0
    5.4323   -5.5565   33.0985 C   0  0  0  0  0  0  0  0  0  0  0  0
    5.9447   -4.1692   33.6032 N   0  0  0  0  0  0  0  0  0  0  0  0
    6.5568   -6.4682   32.5244 C   0  0  0  0  0  0  0  0  0  0  0  0
    2.7392  -10.7756   31.9458 O   0  0  0  0  0  0  0  0  0  0  0  0
    0.5925   -4.6273   24.2100 C   0  0  2  0  0  0  0  0  0  0  0  0
   -0.7741   -4.6205   23.8302 O   0  0  0  0  0  0  0  0  0  0  0  0
    2.8177   -7.6784   27.2792 C   0  0  2  0  0  0  0  0  0  0  0  0
    1.1894   -6.0559   24.0561 C   0  0  2  0  0  0  0  0  0  0  0  0
    2.5812   -6.0814   24.4354 O   0  0  0  0  0  0  0  0  0  0  0  0
    4.2583   -7.4552   27.9114 C   0  0  2  0  0  0  0  0  0  0  0  0
    5.1232   -6.8562   26.9003 O   0  0  0  0  0  0  0  0  0  0  0  0
    1.0739   -6.5580   22.6663 C   0  0  0  0  0  0  0  0  0  0  0  0
    0.3191   -7.6786   22.6539 N   0  0  0  0  0  0  0  0  0  0  0  0
    4.8310   -8.8416   28.3686 C   0  0  1  0  0  0  0  0  0  0  0  0
    6.1069   -8.6835   28.9024 O   0  0  0  0  0  0  0  0  0  0  0  0
  1  2  1  1  0  0  0
  1  5  1  0  0  0  0
  1 29  1  0  0  0  0
  3  4  1  6  0  0  0
  3  7  1  0  0  0  0
  3 34  1  0  0  0  0
  5  6  1  1  0  0  0
  5 16  1  0  0  0  0
  7 19  1  0  0  0  0
  8  4  1  0  0  0  0
  8 24  2  0  0  0  0
  9  8  1  1  0  0  0
  9 10  1  0  0  0  0
  9 13  1  0  0  0  0
 10 11  1  0  0  0  0
 11 12  1  0  0  0  0
 14 15  1  0  0  0  0
 14 35  1  0  0  0  0
 15 17  1  0  0  0  0
 16 18  1  6  0  0  0
 16 25  1  0  0  0  0
 19 20  1  6  0  0  0
 19 27  1  0  0  0  0
 21 22  1  0  0  0  0
 21 23  1  0  0  0  0
 23 17  1  0  0  0  0
 25 26  1  1  0  0  0
 25 28  1  0  0  0  0
 27  2  1  1  0  0  0
 27 30  1  0  0  0  0
 28 29  1  0  0  0  0
 28 32  1  6  0  0  0
 30 31  1  6  0  0  0
 30 34  1  0  0  0  0
 32 33  2  0  0  0  0
 34 35  1  1  0  0  0
M  END
>  <CHROM.1>
-158.11445329,-72.15855801,172.72353668,-174.26807171,-172.87322190,-89.43798388
61.54005162,-76.72442087,-174.81595236,172.54886714,-178.46728516,-118.96676193
-59.79612388,3.37939369,-7.99045272,28.55046970,-2.24627700,0.94863181,2.85782829

>  <Name>
2f4t_lig

>  <RI>
0

>  <Rbt.Current_Directory>
/home/itssahil/PROJECTS/Mol_Feturizer/New_Systems/rnas/2f4t

>  <Rbt.Executable>
rbdock ($Id: //depot/dev/client3/rdock/2013.1/src/exe/rbdock.cxx#4 $)

>  <Rbt.Library>
libRbt.so (2013.1, Build901 2013/11/27)

>  <Rbt.Parameter_File>
/export/apps/rDock/src/rDock_2013.1_src/data/scripts/dock_solv.prm

>  <Rbt.Receptor>
prm/pocket_docking_2.prm

>  <SCORE>
-20.9538

>  <SCORE.INTER>
-12.7358

>  <SCORE.INTER.CONST>
1

>  <SCORE.INTER.POLAR>
-0.938083

>  <SCORE.INTER.ROT>
13

>  <SCORE.INTER.SOLV>
15.141

>  <SCORE.INTER.VDW>
-22.6773

>  <SCORE.INTER.norm>
-0.363881

>  <SCORE.INTRA>
-8.24424

>  <SCORE.INTRA.DIHEDRAL>
-16.628

>  <SCORE.INTRA.DIHEDRAL.0>
23.8882

>  <SCORE.INTRA.POLAR>
0

>  <SCORE.INTRA.POLAR.0>
0

>  <SCORE.INTRA.REPUL>
0

>  <SCORE.INTRA.REPUL.0>
0

>  <SCORE.INTRA.SOLV>
-0.126205

>  <SCORE.INTRA.SOLV.lig_0>
-97.6888

>  <SCORE.INTRA.VDW>
0.132849

>  <SCORE.INTRA.VDW.0>
-3.9206

>  <SCORE.INTRA.norm>
-0.23555

>  <SCORE.RESTR>
0.0262394

>  <SCORE.RESTR.CAVITY>
0.0262394

>  <SCORE.RESTR.norm>
0.000749696

>  <SCORE.SYSTEM>
0

>  <SCORE.SYSTEM.CONST>
0

>  <SCORE.SYSTEM.DIHEDRAL>
0

>  <SCORE.SYSTEM.SOLV>
0

>  <SCORE.SYSTEM.norm>
0

>  <SCORE.heavy>
35

>  <SCORE.norm>
-0.598681

>  <RMSD>
0.871

$$$$
2f4t_lig
 OpenBabel11021811433D
libRbt.so/2013.1/901 2013/11/27
 35 36  0  0  0  0  0  0  0  0999 V2000
    2.8843   -5.4911   25.7992 C   0  0  2  0  0  0  0  0  0  0  0  0
    2.2503   -6.3250   26.8239 O   0  0  0  0  0  0  0  0  0  0  0  0
    3.6696   -9.5254   29.3538 C   0  0  2  0  0  0  0  0  0  0  0  0
    4.1650  -10.8483   29.7627 N   0  0  0  0  0  0  0  0  0  0  0  0
    2.2864   -4.0633   25.9826 C   0  0  2  0  0  0  0  0  0  0  0  0
    2.5017   -3.5899   27.3298 N   0  0  0  0  0  0  0  0  0  0  0  0
    2.3709   -9.7035   28.4847 C   0  0  0  0  0  0  0  0  0  0  0  0
    3.1413  -11.4904   31.0505 C   0  0  0  0  0  0  0  0  0  0  0  0
    4.0471  -12.7015   31.0202 C   0  0  1  0  0  0  0  0  0  0  0  0
    3.7795  -13.5100   32.2917 C   0  0  0  0  0  0  0  0  0  0  0  0
    4.8918  -14.4884   32.7049 C   0  0  0  0  0  0  0  0  0  0  0  0
    6.0513  -13.7095   33.1499 N   0  0  0  0  0  0  0  0  0  0  0  0
    3.7175  -13.5479   29.9500 O   0  0  0  0  0  0  0  0  0  0  0  0
    6.7144   -8.2704   30.3895 C   0  0  0  0  0  0  0  0  0  0  0  0
    6.6712   -6.7590   30.5547 C   0  0  0  0  0  0  0  0  0  0  0  0
    0.7588   -4.0715   25.6379 C   0  0  1  0  0  0  0  0  0  0  0  0
    7.0817   -6.2993   31.8996 N   0  0  0  0  0  0  0  0  0  0  0  0
    0.1974   -2.7827   25.7935 O   0  0  0  0  0  0  0  0  0  0  0  0
    1.8071   -8.3552   28.0151 C   0  0  2  0  0  0  0  0  0  0  0  0
    0.6273   -8.5483   27.1779 N   0  0  0  0  0  0  0  0  0  0  0  0
    7.1578   -4.4132   33.5331 C   0  0  0  0  0  0  0  0  0  0  0  0
    5.6250   -4.4744   33.8307 N   0  0  0  0  0  0  0  0  0  0  0  0
    7.5373   -4.8947   32.1015 C   0  0  0  0  0  0  0  0  0  0  0  0
    2.2819  -11.1331   31.5729 O   0  0  0  0  0  0  0  0  0  0  0  0
    0.6000   -4.5615   24.1949 C   0  0  2  0  0  0  0  0  0  0  0  0
   -0.7658   -4.5812   23.8125 O   0  0  0  0  0  0  0  0  0  0  0  0
    2.8474   -7.5933   27.2325 C   0  0  2  0  0  0  0  0  0  0  0  0
    1.2240   -5.9789   24.0444 C   0  0  2  0  0  0  0  0  0  0  0  0
    2.6153   -5.9775   24.4264 O   0  0  0  0  0  0  0  0  0  0  0  0
    4.1514   -7.3822   28.1156 C   0  0  2  0  0  0  0  0  0  0  0  0
    5.1307   -6.6385   27.3302 O   0  0  0  0  0  0  0  0  0  0  0  0
    1.1207   -6.4853   22.6552 C   0  0  0  0  0  0  0  0  0  0  0  0
    0.1533   -7.4263   22.5899 N   0  0  0  0  0  0  0  0  0  0  0  0
    4.7244   -8.7859   28.5161 C   0  0  1  0  0  0  0  0  0  0  0  0
    5.8859   -8.6353   29.2686 O   0  0  0  0  0  0  0  0  0  0  0  0
  1  2  1  1  0  0  0
  1  5  1  0  0  0  0
  1 29  1  0  0  0  0
  3  4  1  6  0  0  0
  3  7  1  0  0  0  0
  3 34  1  0  0  0  0
  5  6  1  1  0  0  0
  5 16  1  0  0  0  0
  7 19  1  0  0  0  0
  8  4  1  0  0  0  0
  8 24  2  0  0  0  0
  9  8  1  1  0  0  0
  9 10  1  0  0  0  0
  9 13  1  0  0  0  0
 10 11  1  0  0  0  0
 11 12  1  0  0  0  0
 14 15  1  0  0  0  0
 14 35  1  0  0  0  0
 15 17  1  0  0  0  0
 16 18  1  6  0  0  0
 16 25  1  0  0  0  0
 19 20  1  6  0  0  0
 19 27  1  0  0  0  0
 21 22  1  0  0  0  0
 21 23  1  0  0  0  0
 23 17  1  0  0  0  0
 25 26  1  1  0  0  0
 25 28  1  0  0  0  0
 27  2  1  1  0  0  0
 27 30  1  0  0  0  0
 28 29  1  0  0  0  0
 28 32  1  6  0  0  0
 30 31  1  6  0  0  0
 30 34  1  0  0  0  0
 32 33  2  0  0  0  0
 34 35  1  1  0  0  0
M  END
>  <CHROM.1>
-160.73148951,-75.19797824,165.46935662,-159.77249801,69.22253245,160.29425771
-64.18220633,159.33358714,-58.61285926,148.43557263,-165.92945999,-105.07215895
-52.65164988,3.42498374,-7.79256105,28.46558593,-2.25976889,0.89492475,2.83955602

>  <Name>
2f4t_lig

>  <RI>
0

>  <Rbt.Current_Directory>
/home/itssahil/PROJECTS/Mol_Feturizer/New_Systems/rnas/2f4t

>  <Rbt.Executable>
rbdock ($Id: //depot/dev/client3/rdock/2013.1/src/exe/rbdock.cxx#4 $)

>  <Rbt.Library>
libRbt.so (2013.1, Build901 2013/11/27)

>  <Rbt.Parameter_File>
/export/apps/rDock/src/rDock_2013.1_src/data/scripts/dock_solv.prm

>  <Rbt.Receptor>
prm/pocket_docking_2.prm

>  <SCORE>
-18.9295

>  <SCORE.INTER>
-11.9995

>  <SCORE.INTER.CONST>
1

>  <SCORE.INTER.POLAR>
-1.53869

>  <SCORE.INTER.ROT>
13

>  <SCORE.INTER.SOLV>
20.8534

>  <SCORE.INTER.VDW>
-22.0885

>  <SCORE.INTER.norm>
-0.342843

>  <SCORE.INTRA>
-6.95758

>  <SCORE.INTRA.DIHEDRAL>
-14.8658

>  <SCORE.INTRA.DIHEDRAL.0>
23.8882

>  <SCORE.INTRA.POLAR>
0

>  <SCORE.INTRA.POLAR.0>
0

>  <SCORE.INTRA.REPUL>
0

>  <SCORE.INTRA.REPUL.0>
0

>  <SCORE.INTRA.SOLV>
1.42867

>  <SCORE.INTRA.SOLV.lig_0>
-97.6888

>  <SCORE.INTRA.VDW>
-0.239026

>  <SCORE.INTRA.VDW.0>
-3.9206

>  <SCORE.INTRA.norm>
-0.198788

>  <SCORE.RESTR>
0.0275431

>  <SCORE.RESTR.CAVITY>
0.0275431

>  <SCORE.RESTR.norm>
0.000786946

>  <SCORE.SYSTEM>
0

>  <SCORE.SYSTEM.CONST>
0

>  <SCORE.SYSTEM.DIHEDRAL>
0

>  <SCORE.SYSTEM.SOLV>
0

>  <SCORE.SYSTEM.norm>
0

>  <SCORE.heavy>
35

>  <SCORE.norm>
-0.540844

>  <RMSD>
0.872

$$$$
2f4t_lig
 OpenBabel11021811433D
libRbt.so/2013.1/901 2013/11/27
 35 36  0  0  0  0  0  0  0  0999 V2000
    3.0551   -5.4972   25.8854 C   0  0  2  0  0  0  0  0  0  0  0  0
    2.4038   -6.3607   26.8740 O   0  0  0  0  0  0  0  0  0  0  0  0
    3.7135   -9.5584   29.4656 C   0  0  2  0  0  0  0  0  0  0  0  0
    4.2483  -10.8597   29.8939 N   0  0  0  0  0  0  0  0  0  0  0  0
    2.6502   -4.0396   26.2609 C   0  0  2  0  0  0  0  0  0  0  0  0
    3.0222   -3.7426   27.6244 N   0  0  0  0  0  0  0  0  0  0  0  0
    2.5570   -9.7897   28.4251 C   0  0  0  0  0  0  0  0  0  0  0  0
    3.1767  -11.5691   31.1052 C   0  0  0  0  0  0  0  0  0  0  0  0
    4.1434  -12.7325   31.1234 C   0  0  1  0  0  0  0  0  0  0  0  0
    3.7483  -13.6428   32.2883 C   0  0  0  0  0  0  0  0  0  0  0  0
    4.6446  -14.8736   32.5051 C   0  0  0  0  0  0  0  0  0  0  0  0
    4.0227  -15.7253   33.5234 N   0  0  0  0  0  0  0  0  0  0  0  0
    4.0115  -13.5126   29.9640 O   0  0  0  0  0  0  0  0  0  0  0  0
    7.0837   -7.9859   30.2304 C   0  0  0  0  0  0  0  0  0  0  0  0
    6.9467   -6.4778   30.3723 C   0  0  0  0  0  0  0  0  0  0  0  0
    1.1114   -3.8380   26.0523 C   0  0  1  0  0  0  0  0  0  0  0  0
    7.9909   -5.8668   31.2239 N   0  0  0  0  0  0  0  0  0  0  0  0
    0.7236   -2.5188   26.3834 O   0  0  0  0  0  0  0  0  0  0  0  0
    1.9608   -8.4652   27.9284 C   0  0  2  0  0  0  0  0  0  0  0  0
    0.9188   -8.7046   26.9348 N   0  0  0  0  0  0  0  0  0  0  0  0
    7.3403   -3.6763   32.2288 C   0  0  0  0  0  0  0  0  0  0  0  0
    6.8525   -2.8941   33.4905 N   0  0  0  0  0  0  0  0  0  0  0  0
    7.6135   -5.1862   32.4950 C   0  0  0  0  0  0  0  0  0  0  0  0
    2.2677  -11.2625   31.5729 O   0  0  0  0  0  0  0  0  0  0  0  0
    0.7860   -4.1474   24.5873 C   0  0  2  0  0  0  0  0  0  0  0  0
   -0.5970   -3.9713   24.3260 O   0  0  0  0  0  0  0  0  0  0  0  0
    3.0350   -7.6005   27.3174 C   0  0  2  0  0  0  0  0  0  0  0  0
    1.2205   -5.6012   24.2431 C   0  0  2  0  0  0  0  0  0  0  0  0
    2.6264   -5.7981   24.5000 O   0  0  0  0  0  0  0  0  0  0  0  0
    4.1924   -7.3366   28.3736 C   0  0  2  0  0  0  0  0  0  0  0  0
    5.2082   -6.4941   27.7510 O   0  0  0  0  0  0  0  0  0  0  0  0
    0.9522   -5.9387   22.8250 C   0  0  0  0  0  0  0  0  0  0  0  0
   -0.2769   -6.4897   22.7183 N   0  0  0  0  0  0  0  0  0  0  0  0
    4.8110   -8.7127   28.8013 C   0  0  1  0  0  0  0  0  0  0  0  0
    5.8492   -8.5134   29.7071 O   0  0  0  0  0  0  0  0  0  0  0  0
  1  2  1  1  0  0  0
  1  5  1  0  0  0  0
  1 29  1  0  0  0  0
  3  4  1  6  0  0  0
  3  7  1  0  0  0  0
  3 34  1  0  0  0  0
  5  6  1  1  0  0  0
  5 16  1  0  0  0  0
  7 19  1  0  0  0  0
  8  4  1  0  0  0  0
  8 24  2  0  0  0  0
  9  8  1  6  0  0  0
  9 10  1  0  0  0  0
  9 13  1  0  0  0  0
 10 11  1  0  0  0  0
 11 12  1  0  0  0  0
 14 15  1  0  0  0  0
 14 35  1  0  0  0  0
 15 17  1  0  0  0  0
 16 18  1  6  0  0  0
 16 25  1  0  0  0  0
 19 20  1  6  0  0  0
 19 27  1  0  0  0  0
 21 22  1  0  0  0  0
 21 23  1  0  0  0  0
 23 17  1  0  0  0  0
 25 26  1  1  0  0  0
 25 28  1  0  0  0  0
 27  2  1  1  0  0  0
 27 30  1  0  0  0  0
 28 29  1  0  0  0  0
 28 32  1  6  0  0  0
 30 31  1  6  0  0  0
 30 34  1  0  0  0  0
 32 33  2  0  0  0  0
 34 35  1  1  0  0  0
M  END
>  <CHROM.1>
-147.06570980,-79.51622353,170.88717986,-178.21450978,-172.11165336,164.54977378
62.90361527,-116.58216885,176.50744394,-90.50639372,-160.80520494,-91.30785820
-173.43603920,3.54352205,-7.68642694,28.54330365,2.05526671,-0.82114398,-0.36520602

>  <Name>
2f4t_lig

>  <RI>
0

>  <Rbt.Current_Directory>
/home/itssahil/PROJECTS/Mol_Feturizer/New_Systems/rnas/2f4t

>  <Rbt.Executable>
rbdock ($Id: //depot/dev/client3/rdock/2013.1/src/exe/rbdock.cxx#4 $)

>  <Rbt.Library>
libRbt.so (2013.1, Build901 2013/11/27)

>  <Rbt.Parameter_File>
/export/apps/rDock/src/rDock_2013.1_src/data/scripts/dock_solv.prm

>  <Rbt.Receptor>
prm/pocket_docking_2.prm

>  <SCORE>
-17.075

>  <SCORE.INTER>
-10.9857

>  <SCORE.INTER.CONST>
1

>  <SCORE.INTER.POLAR>
-0.938083

>  <SCORE.INTER.ROT>
13

>  <SCORE.INTER.SOLV>
12.4164

>  <SCORE.INTER.VDW>
-20.6023

>  <SCORE.INTER.norm>
-0.313876

>  <SCORE.INTRA>
-6.09418

>  <SCORE.INTRA.DIHEDRAL>
-12.444

>  <SCORE.INTRA.DIHEDRAL.0>
23.8882

>  <SCORE.INTRA.POLAR>
0

>  <SCORE.INTRA.POLAR.0>
0

>  <SCORE.INTRA.REPUL>
0

>  <SCORE.INTRA.REPUL.0>
0

>  <SCORE.INTRA.SOLV>
-0.28204

>  <SCORE.INTRA.SOLV.lig_0>
-97.6888

>  <SCORE.INTRA.VDW>
0.268832

>  <SCORE.INTRA.VDW.0>
-3.9206

>  <SCORE.INTRA.norm>
-0.17412

>  <SCORE.RESTR>
0.00488546

>  <SCORE.RESTR.CAVITY>
0.00488546

>  <SCORE.RESTR.norm>
0.000139585

>  <SCORE.SYSTEM>
0

>  <SCORE.SYSTEM.CONST>
0

>  <SCORE.SYSTEM.DIHEDRAL>
0

>  <SCORE.SYSTEM.SOLV>
0

>  <SCORE.SYSTEM.norm>
0

>  <SCORE.heavy>
35

>  <SCORE.norm>
-0.487856

>  <RMSD>
0.873

$$$$
2f4t_lig
 OpenBabel11021811433D
libRbt.so/2013.1/901 2013/11/27
 35 36  0  0  0  0  0  0  0  0999 V2000
    3.1329   -5.6967   26.1281 C   0  0  2  0  0  0  0  0  0  0  0  0
    2.6122   -6.3748   27.3182 O   0  0  0  0  0  0  0  0  0  0  0  0
    4.0654   -9.5770   29.8265 C   0  0  2  0  0  0  0  0  0  0  0  0
    4.4739  -10.9248   30.2498 N   0  0  0  0  0  0  0  0  0  0  0  0
    2.6231   -4.2265   26.2186 C   0  0  2  0  0  0  0  0  0  0  0  0
    3.0391   -3.6185   27.4607 N   0  0  0  0  0  0  0  0  0  0  0  0
    2.6321   -9.6474   29.1829 C   0  0  0  0  0  0  0  0  0  0  0  0
    3.8030  -11.2714   31.8462 C   0  0  0  0  0  0  0  0  0  0  0  0
    4.4834  -12.6167   31.7219 C   0  0  1  0  0  0  0  0  0  0  0  0
    4.6803  -13.1668   33.1363 C   0  0  0  0  0  0  0  0  0  0  0  0
    3.3911  -13.4870   33.9115 C   0  0  0  0  0  0  0  0  0  0  0  0
    3.7610  -14.0893   35.1958 N   0  0  0  0  0  0  0  0  0  0  0  0
    3.6556  -13.5387   31.0625 O   0  0  0  0  0  0  0  0  0  0  0  0
    7.3547   -8.6391   30.2884 C   0  0  0  0  0  0  0  0  0  0  0  0
    7.3935   -7.1296   30.4706 C   0  0  0  0  0  0  0  0  0  0  0  0
    1.0636   -4.1885   26.0806 C   0  0  1  0  0  0  0  0  0  0  0  0
    6.2091   -6.5882   31.1724 N   0  0  0  0  0  0  0  0  0  0  0  0
    0.5805   -2.8613   26.1555 O   0  0  0  0  0  0  0  0  0  0  0  0
    2.1494   -8.2696   28.7084 C   0  0  2  0  0  0  0  0  0  0  0  0
    0.8362   -8.3672   28.0790 N   0  0  0  0  0  0  0  0  0  0  0  0
    6.9534   -4.5990   32.4843 C   0  0  0  0  0  0  0  0  0  0  0  0
    7.1647   -3.9430   33.8867 N   0  0  0  0  0  0  0  0  0  0  0  0
    6.3464   -6.0318   32.5483 C   0  0  0  0  0  0  0  0  0  0  0  0
    3.1959  -10.7303   32.5374 O   0  0  0  0  0  0  0  0  0  0  0  0
    0.6897   -4.8268   24.7389 C   0  0  2  0  0  0  0  0  0  0  0  0
   -0.7152   -4.8133   24.5439 O   0  0  0  0  0  0  0  0  0  0  0  0
    3.1263   -7.6806   27.7216 C   0  0  2  0  0  0  0  0  0  0  0  0
    1.2303   -6.2845   24.6760 C   0  0  2  0  0  0  0  0  0  0  0  0
    2.6597   -6.3175   24.8694 O   0  0  0  0  0  0  0  0  0  0  0  0
    4.5707   -7.5774   28.3758 C   0  0  2  0  0  0  0  0  0  0  0  0
    5.4854   -6.9993   27.3969 O   0  0  0  0  0  0  0  0  0  0  0  0
    0.9181   -6.9360   23.3818 C   0  0  0  0  0  0  0  0  0  0  0  0
    0.9717   -6.0184   22.3915 N   0  0  0  0  0  0  0  0  0  0  0  0
    5.0453   -9.0150   28.7848 C   0  0  1  0  0  0  0  0  0  0  0  0
    6.3222   -8.9619   29.3366 O   0  0  0  0  0  0  0  0  0  0  0  0
  1  2  1  1  0  0  0
  1  5  1  0  0  0  0
  1 29  1  0  0  0  0
  3  4  1  6  0  0  0
  3  7  1  0  0  0  0
  3 34  1  0  0  0  0
  5  6  1  1  0  0  0
  5 16  1  0  0  0  0
  7 19  1  0  0  0  0
  8  4  1  0  0  0  0
  8 24  2  0  0  0  0
  9  8  1  1  0  0  0
  9 10  1  0  0  0  0
  9 13  1  0  0  0  0
 10 11  1  0  0  0  0
 11 12  1  0  0  0  0
 14 15  1  0  0  0  0
 14 35  1  0  0  0  0
 15 17  1  0  0  0  0
 16 18  1  6  0  0  0
 16 25  1  0  0  0  0
 19 20  1  6  0  0  0
 19 27  1  0  0  0  0
 21 22  1  0  0  0  0
 21 23  1  0  0  0  0
 23 17  1  0  0  0  0
 25 26  1  1  0  0  0
 25 28  1  0  0  0  0
 27  2  1  1  0  0  0
 27 30  1  0  0  0  0
 28 29  1  0  0  0  0
 28 32  1  6  0  0  0
 30 31  1  6  0  0  0
 30 34  1  0  0  0  0
 32 33  2  0  0  0  0
 34 35  1  1  0  0  0
M  END
>  <CHROM.1>
-166.37623271,-83.83635977,157.47115787,64.94942908,175.95530715,69.36529432
-57.91764928,110.91692389,-178.74989654,78.24083241,-164.18093844,34.88362352
-52.36509972,3.59702379,-7.84969928,28.90858494,-2.08039525,0.82676607,2.65320310

>  <Name>
2f4t_lig

>  <RI>
0

>  <Rbt.Current_Directory>
/home/itssahil/PROJECTS/Mol_Feturizer/New_Systems/rnas/2f4t

>  <Rbt.Executable>
rbdock ($Id: //depot/dev/client3/rdock/2013.1/src/exe/rbdock.cxx#4 $)

>  <Rbt.Library>
libRbt.so (2013.1, Build901 2013/11/27)

>  <Rbt.Parameter_File>
/export/apps/rDock/src/rDock_2013.1_src/data/scripts/dock_solv.prm

>  <Rbt.Receptor>
prm/pocket_docking_2.prm

>  <SCORE>
-15.5298

>  <SCORE.INTER>
-8.6482

>  <SCORE.INTER.CONST>
1

>  <SCORE.INTER.POLAR>
-0.938083

>  <SCORE.INTER.ROT>
13

>  <SCORE.INTER.SOLV>
13.6662

>  <SCORE.INTER.VDW>
-19.4606

>  <SCORE.INTER.norm>
-0.247091

>  <SCORE.INTRA>
-6.88224

>  <SCORE.INTRA.DIHEDRAL>
-16.5382

>  <SCORE.INTRA.DIHEDRAL.0>
23.8882

>  <SCORE.INTRA.POLAR>
0

>  <SCORE.INTRA.POLAR.0>
0

>  <SCORE.INTRA.REPUL>
0

>  <SCORE.INTRA.REPUL.0>
0

>  <SCORE.INTRA.SOLV>
0.913725

>  <SCORE.INTRA.SOLV.lig_0>
-97.6888

>  <SCORE.INTRA.VDW>
0.929969

>  <SCORE.INTRA.VDW.0>
-3.9206

>  <SCORE.INTRA.norm>
-0.196636

>  <SCORE.RESTR>
0.000677171

>  <SCORE.RESTR.CAVITY>
0.000677171

>  <SCORE.RESTR.norm>
1.93478e-05

>  <SCORE.SYSTEM>
0

>  <SCORE.SYSTEM.CONST>
0

>  <SCORE.SYSTEM.DIHEDRAL>
0

>  <SCORE.SYSTEM.SOLV>
0

>  <SCORE.SYSTEM.norm>
0

>  <SCORE.heavy>
35

>  <SCORE.norm>
-0.443708

>  <RMSD>
0.878

$$$$
2f4t_lig
 OpenBabel11021811433D
libRbt.so/2013.1/901 2013/11/27
 35 36  0  0  0  0  0  0  0  0999 V2000
    2.6416   -5.6521   25.6224 C   0  0  2  0  0  0  0  0  0  0  0  0
    1.9903   -6.5171   26.6098 O   0  0  0  0  0  0  0  0  0  0  0  0
    3.7020   -9.1041   29.6155 C   0  0  2  0  0  0  0  0  0  0  0  0
    4.3236  -10.2865   30.2305 N   0  0  0  0  0  0  0  0  0  0  0  0
    1.9678   -4.2544   25.7706 C   0  0  2  0  0  0  0  0  0  0  0  0
    2.0834   -3.7742   27.1276 N   0  0  0  0  0  0  0  0  0  0  0  0
    2.4341   -9.5499   28.7988 C   0  0  0  0  0  0  0  0  0  0  0  0
    3.1329  -11.1296   31.2257 C   0  0  0  0  0  0  0  0  0  0  0  0
    4.2400  -12.1160   31.5251 C   0  0  1  0  0  0  0  0  0  0  0  0
    3.6851  -13.1479   32.5095 C   0  0  0  0  0  0  0  0  0  0  0  0
    4.6586  -14.2644   32.9228 C   0  0  0  0  0  0  0  0  0  0  0  0
    5.7342  -13.6685   33.7210 N   0  0  0  0  0  0  0  0  0  0  0  0
    4.5958  -12.8356   30.3737 O   0  0  0  0  0  0  0  0  0  0  0  0
    6.6056   -7.3427   30.3631 C   0  0  0  0  0  0  0  0  0  0  0  0
    6.1140   -7.7614   31.7402 C   0  0  0  0  0  0  0  0  0  0  0  0
    0.4644   -4.3337   25.3394 C   0  0  1  0  0  0  0  0  0  0  0  0
    6.2735   -6.7109   32.7696 N   0  0  0  0  0  0  0  0  0  0  0  0
   -0.1651   -3.0730   25.4620 O   0  0  0  0  0  0  0  0  0  0  0  0
    1.7424   -8.3592   28.1204 C   0  0  2  0  0  0  0  0  0  0  0  0
    0.5940   -8.8028   27.3365 N   0  0  0  0  0  0  0  0  0  0  0  0
    7.5114   -5.3104   34.4242 C   0  0  0  0  0  0  0  0  0  0  0  0
    7.2174   -3.9293   33.7547 N   0  0  0  0  0  0  0  0  0  0  0  0
    7.6002   -6.4906   33.4120 C   0  0  0  0  0  0  0  0  0  0  0  0
    2.1064  -10.9647   31.4667 O   0  0  0  0  0  0  0  0  0  0  0  0
    0.4112   -4.8276   23.8900 C   0  0  2  0  0  0  0  0  0  0  0  0
   -0.9281   -4.9106   23.4304 O   0  0  0  0  0  0  0  0  0  0  0  0
    2.7075   -7.6359   27.2147 C   0  0  2  0  0  0  0  0  0  0  0  0
    1.1088   -6.2138   23.7761 C   0  0  2  0  0  0  0  0  0  0  0  0
    2.4744   -6.1478   24.2368 O   0  0  0  0  0  0  0  0  0  0  0  0
    3.9774   -7.1548   28.0398 C   0  0  2  0  0  0  0  0  0  0  0  0
    4.8838   -6.4558   27.1348 O   0  0  0  0  0  0  0  0  0  0  0  0
    1.1087   -6.7215   22.3836 C   0  0  0  0  0  0  0  0  0  0  0  0
   -0.1329   -7.1441   22.0587 N   0  0  0  0  0  0  0  0  0  0  0  0
    4.6843   -8.4103   28.6590 C   0  0  1  0  0  0  0  0  0  0  0  0
    5.8193   -8.0241   29.3664 O   0  0  0  0  0  0  0  0  0  0  0  0
  1  2  1  1  0  0  0
  1  5  1  0  0  0  0
  1 29  1  0  0  0  0
  3  4  1  6  0  0  0
  3  7  1  0  0  0  0
  3 34  1  0  0  0  0
  5  6  1  1  0  0  0
  5 16  1  0  0  0  0
  7 19  1  0  0  0  0
  8  4  1  0  0  0  0
  8 24  2  0  0  0  0
  9  8  1  6  0  0  0
  9 10  1  0  0  0  0
  9 13  1  0  0  0  0
 10 11  1  0  0  0  0
 11 12  1  0  0  0  0
 14 15  1  0  0  0  0
 14 35  1  0  0  0  0
 15 17  1  0  0  0  0
 16 18  1  6  0  0  0
 16 25  1  0  0  0  0
 19 20  1  6  0  0  0
 19 27  1  0  0  0  0
 21 22  1  0  0  0  0
 21 23  1  0  0  0  0
 23 17  1  0  0  0  0
 25 26  1  1  0  0  0
 25 28  1  0  0  0  0
 27  2  1  1  0  0  0
 27 30  1  0  0  0  0
 28 29  1  0  0  0  0
 28 32  1  6  0  0  0
 30 31  1  6  0  0  0
 30 34  1  0  0  0  0
 32 33  2  0  0  0  0
 34 35  1  1  0  0  0
M  END
>  <CHROM.1>
-150.68244712,-56.06415359,177.56251790,178.89062307,67.55183752,-149.47681906
60.07330636,-79.96035459,-65.36838179,178.44659575,-177.03575286,-74.05281018
-60.31077225,3.35343846,-7.79123857,28.57743364,-2.36214273,0.90786495,2.78762678

>  <Name>
2f4t_lig

>  <RI>
0

>  <Rbt.Current_Directory>
/home/itssahil/PROJECTS/Mol_Feturizer/New_Systems/rnas/2f4t

>  <Rbt.Executable>
rbdock ($Id: //depot/dev/client3/rdock/2013.1/src/exe/rbdock.cxx#4 $)

>  <Rbt.Library>
libRbt.so (2013.1, Build901 2013/11/27)

>  <Rbt.Parameter_File>
/export/apps/rDock/src/rDock_2013.1_src/data/scripts/dock_solv.prm

>  <Rbt.Receptor>
prm/pocket_docking_2.prm

>  <SCORE>
-20.0322

>  <SCORE.INTER>
-14.9813

>  <SCORE.INTER.CONST>
1

>  <SCORE.INTER.POLAR>
-2.13454

>  <SCORE.INTER.ROT>
13

>  <SCORE.INTER.SOLV>
21.3622

>  <SCORE.INTER.VDW>
-22.2598

>  <SCORE.INTER.norm>
-0.428037

>  <SCORE.INTRA>
-5.07348

>  <SCORE.INTRA.DIHEDRAL>
-14.3919

>  <SCORE.INTRA.DIHEDRAL.0>
23.8882

>  <SCORE.INTRA.POLAR>
0

>  <SCORE.INTRA.POLAR.0>
0

>  <SCORE.INTRA.REPUL>
0

>  <SCORE.INTRA.REPUL.0>
0

>  <SCORE.INTRA.SOLV>
1.64229

>  <SCORE.INTRA.SOLV.lig_0>
-97.6888

>  <SCORE.INTRA.VDW>
1.30133

>  <SCORE.INTRA.VDW.0>
-3.9206

>  <SCORE.INTRA.norm>
-0.144957

>  <SCORE.RESTR>
0.0226003

>  <SCORE.RESTR.CAVITY>
0.0226003

>  <SCORE.RESTR.norm>
0.000645722

>  <SCORE.SYSTEM>
0

>  <SCORE.SYSTEM.CONST>
0

>  <SCORE.SYSTEM.DIHEDRAL>
0

>  <SCORE.SYSTEM.SOLV>
0

>  <SCORE.SYSTEM.norm>
0

>  <SCORE.heavy>
35

>  <SCORE.norm>
-0.572348

>  <RMSD>
0.884

$$$$
2f4t_lig
 OpenBabel11021811433D
libRbt.so/2013.1/901 2013/11/27
 35 36  0  0  0  0  0  0  0  0999 V2000
    3.0539   -5.4965   25.8401 C   0  0  2  0  0  0  0  0  0  0  0  0
    2.4819   -6.2353   26.9689 O   0  0  0  0  0  0  0  0  0  0  0  0
    4.2895   -9.2048   29.5326 C   0  0  2  0  0  0  0  0  0  0  0  0
    4.7725  -10.5089   30.0107 N   0  0  0  0  0  0  0  0  0  0  0  0
    2.4406   -4.0654   25.9135 C   0  0  2  0  0  0  0  0  0  0  0  0
    2.7090   -3.4611   27.1973 N   0  0  0  0  0  0  0  0  0  0  0  0
    2.7907   -9.3420   29.0761 C   0  0  0  0  0  0  0  0  0  0  0  0
    3.8479  -10.9956   31.4344 C   0  0  0  0  0  0  0  0  0  0  0  0
    4.7033  -12.2432   31.4310 C   0  0  1  0  0  0  0  0  0  0  0  0
    4.3781  -13.0294   32.7030 C   0  0  0  0  0  0  0  0  0  0  0  0
    5.2163  -14.2978   32.9343 C   0  0  0  0  0  0  0  0  0  0  0  0
    4.6610  -15.0160   34.0853 N   0  0  0  0  0  0  0  0  0  0  0  0
    4.3597  -13.0842   30.3609 O   0  0  0  0  0  0  0  0  0  0  0  0
    7.6074   -8.1057   29.4310 C   0  0  0  0  0  0  0  0  0  0  0  0
    7.2943   -8.0915   30.9194 C   0  0  0  0  0  0  0  0  0  0  0  0
    0.8992   -4.1263   25.6436 C   0  0  1  0  0  0  0  0  0  0  0  0
    8.3198   -7.4020   31.7326 N   0  0  0  0  0  0  0  0  0  0  0  0
    0.3234   -2.8358   25.7009 O   0  0  0  0  0  0  0  0  0  0  0  0
    2.2275   -8.0129   28.5540 C   0  0  2  0  0  0  0  0  0  0  0  0
    0.8501   -8.1750   28.0992 N   0  0  0  0  0  0  0  0  0  0  0  0
    7.3139   -5.3784   32.7932 C   0  0  0  0  0  0  0  0  0  0  0  0
    6.9866   -4.6015   34.1089 N   0  0  0  0  0  0  0  0  0  0  0  0
    7.9462   -6.7809   33.0350 C   0  0  0  0  0  0  0  0  0  0  0  0
    3.0529  -10.5588   31.9968 O   0  0  0  0  0  0  0  0  0  0  0  0
    0.6830   -4.7557   24.2634 C   0  0  2  0  0  0  0  0  0  0  0  0
   -0.6982   -4.8296   23.9495 O   0  0  0  0  0  0  0  0  0  0  0  0
    3.0664   -7.4982   27.4111 C   0  0  2  0  0  0  0  0  0  0  0  0
    1.3239   -6.1729   24.2205 C   0  0  2  0  0  0  0  0  0  0  0  0
    2.7309   -6.1169   24.5346 O   0  0  0  0  0  0  0  0  0  0  0  0
    4.5769   -7.3273   27.8740 C   0  0  2  0  0  0  0  0  0  0  0  0
    5.3554   -6.8234   26.7474 O   0  0  0  0  0  0  0  0  0  0  0  0
    1.1659   -6.8126   22.8928 C   0  0  0  0  0  0  0  0  0  0  0  0
    0.4522   -7.9523   23.0244 N   0  0  0  0  0  0  0  0  0  0  0  0
    5.1254   -8.7214   28.3372 C   0  0  1  0  0  0  0  0  0  0  0  0
    6.4583   -8.6106   28.7233 O   0  0  0  0  0  0  0  0  0  0  0  0
  1  2  1  1  0  0  0
  1  5  1  0  0  0  0
  1 29  1  0  0  0  0
  3  4  1  6  0  0  0
  3  7  1  0  0  0  0
  3 34  1  0  0  0  0
  5  6  1  1  0  0  0
  5 16  1  0  0  0  0
  7 19  1  0  0  0  0
  8  4  1  0  0  0  0
  8 24  2  0  0  0  0
  9  8  1  6  0  0  0
  9 10  1  0  0  0  0
  9 13  1  0  0  0  0
 10 11  1  0  0  0  0
 11 12  1  0  0  0  0
 14 15  1  0  0  0  0
 14 35  1  0  0  0  0
 15 17  1  0  0  0  0
 16 18  1  6  0  0  0
 16 25  1  0  0  0  0
 19 20  1  6  0  0  0
 19 27  1  0  0  0  0
 21 22  1  0  0  0  0
 21 23  1  0  0  0  0
 23 17  1  0  0  0  0
 25 26  1  1  0  0  0
 25 28  1  0  0  0  0
 27  2  1  1  0  0  0
 27 30  1  0  0  0  0
 28 29  1  0  0  0  0
 28 32  1  6  0  0  0
 30 31  1  6  0  0  0
 30 34  1  0  0  0  0
 32 33  2  0  0  0  0
 34 35  1  1  0  0  0
M  END
>  <CHROM.1>
-164.91192503,-63.32287336,173.14856100,-176.19357439,-172.56860490,-171.22201334
51.21956547,153.55539435,-175.67173801,-81.65575067,-178.42467982,-118.96502514
-65.82883820,3.79232208,-7.89684774,28.60600906,-2.23016580,0.80602119,2.74427840

>  <Name>
2f4t_lig

>  <RI>
0

>  <Rbt.Current_Directory>
/home/itssahil/PROJECTS/Mol_Feturizer/New_Systems/rnas/2f4t

>  <Rbt.Executable>
rbdock ($Id: //depot/dev/client3/rdock/2013.1/src/exe/rbdock.cxx#4 $)

>  <Rbt.Library>
libRbt.so (2013.1, Build901 2013/11/27)

>  <Rbt.Parameter_File>
/export/apps/rDock/src/rDock_2013.1_src/data/scripts/dock_solv.prm

>  <Rbt.Receptor>
prm/pocket_docking_3.prm

>  <SCORE>
-24.2455

>  <SCORE.INTER>
-14.7143

>  <SCORE.INTER.CONST>
1

>  <SCORE.INTER.POLAR>
-0.96324

>  <SCORE.INTER.ROT>
13

>  <SCORE.INTER.SOLV>
18.883

>  <SCORE.INTER.VDW>
-25.1598

>  <SCORE.INTER.norm>
-0.420409

>  <SCORE.INTRA>
-9.53118

>  <SCORE.INTRA.DIHEDRAL>
-19.1593

>  <SCORE.INTRA.DIHEDRAL.0>
23.8882

>  <SCORE.INTRA.POLAR>
0

>  <SCORE.INTRA.POLAR.0>
0

>  <SCORE.INTRA.REPUL>
0

>  <SCORE.INTRA.REPUL.0>
0

>  <SCORE.INTRA.SOLV>
-1.46813

>  <SCORE.INTRA.SOLV.lig_0>
-97.6888

>  <SCORE.INTRA.VDW>
0.782554

>  <SCORE.INTRA.VDW.0>
-3.9206

>  <SCORE.INTRA.norm>
-0.272319

>  <SCORE.RESTR>
0

>  <SCORE.RESTR.CAVITY>
0

>  <SCORE.RESTR.norm>
0

>  <SCORE.SYSTEM>
0

>  <SCORE.SYSTEM.CONST>
0

>  <SCORE.SYSTEM.DIHEDRAL>
0

>  <SCORE.SYSTEM.SOLV>
0

>  <SCORE.SYSTEM.norm>
0

>  <SCORE.heavy>
35

>  <SCORE.norm>
-0.692729

>  <RMSD>
0.897

$$$$
2f4t_lig
 OpenBabel11021811433D
libRbt.so/2013.1/901 2013/11/27
 35 36  0  0  0  0  0  0  0  0999 V2000
    3.4516   -6.1286   26.0320 C   0  0  2  0  0  0  0  0  0  0  0  0
    2.8349   -6.7981   27.1804 O   0  0  0  0  0  0  0  0  0  0  0  0
    4.1238   -9.7488   30.0595 C   0  0  2  0  0  0  0  0  0  0  0  0
    4.5979  -11.0268   30.6116 N   0  0  0  0  0  0  0  0  0  0  0  0
    3.2419   -4.6020   26.2664 C   0  0  2  0  0  0  0  0  0  0  0  0
    3.7966   -4.2006   27.5378 N   0  0  0  0  0  0  0  0  0  0  0  0
    2.8710  -10.0111   29.1457 C   0  0  0  0  0  0  0  0  0  0  0  0
    3.6126  -11.4684   32.0091 C   0  0  0  0  0  0  0  0  0  0  0  0
    4.4806  -12.7042   32.0956 C   0  0  1  0  0  0  0  0  0  0  0  0
    4.4369  -13.1986   33.5432 C   0  0  0  0  0  0  0  0  0  0  0  0
    5.3076  -14.4277   33.8536 C   0  0  0  0  0  0  0  0  0  0  0  0
    4.5793  -15.6286   33.4334 N   0  0  0  0  0  0  0  0  0  0  0  0
    3.9504  -13.7453   31.3176 O   0  0  0  0  0  0  0  0  0  0  0  0
    7.6433   -8.3607   30.3699 C   0  0  0  0  0  0  0  0  0  0  0  0
    7.5790   -6.8428   30.4431 C   0  0  0  0  0  0  0  0  0  0  0  0
    1.7174   -4.2511   26.1938 C   0  0  1  0  0  0  0  0  0  0  0  0
    6.6810   -6.3397   31.5057 N   0  0  0  0  0  0  0  0  0  0  0  0
    1.5055   -2.8679   26.3994 O   0  0  0  0  0  0  0  0  0  0  0  0
    2.3318   -8.7137   28.5274 C   0  0  2  0  0  0  0  0  0  0  0  0
    1.1960   -8.9876   27.6527 N   0  0  0  0  0  0  0  0  0  0  0  0
    7.1975   -4.8866   33.4687 C   0  0  0  0  0  0  0  0  0  0  0  0
    5.8366   -4.1229   33.3883 N   0  0  0  0  0  0  0  0  0  0  0  0
    7.1299   -6.3451   32.9269 C   0  0  0  0  0  0  0  0  0  0  0  0
    2.7872  -11.0198   32.5157 O   0  0  0  0  0  0  0  0  0  0  0  0
    1.1958   -4.6811   24.8189 C   0  0  2  0  0  0  0  0  0  0  0  0
   -0.1832   -4.3789   24.6814 O   0  0  0  0  0  0  0  0  0  0  0  0
    3.4104   -8.0213   27.7323 C   0  0  2  0  0  0  0  0  0  0  0  0
    1.4388   -6.2040   24.6120 C   0  0  2  0  0  0  0  0  0  0  0  0
    2.8379   -6.5299   24.7452 O   0  0  0  0  0  0  0  0  0  0  0  0
    4.6679   -7.7248   28.6574 C   0  0  2  0  0  0  0  0  0  0  0  0
    5.6859   -7.0510   27.8581 O   0  0  0  0  0  0  0  0  0  0  0  0
    0.9761   -6.6632   23.2808 C   0  0  0  0  0  0  0  0  0  0  0  0
    0.4999   -7.9238   23.3801 N   0  0  0  0  0  0  0  0  0  0  0  0
    5.2199   -9.0837   29.2124 C   0  0  1  0  0  0  0  0  0  0  0  0
    6.3416   -8.8599   30.0058 O   0  0  0  0  0  0  0  0  0  0  0  0
  1  2  1  1  0  0  0
  1  5  1  0  0  0  0
  1 29  1  0  0  0  0
  3  4  1  6  0  0  0
  3  7  1  0  0  0  0
  3 34  1  0  0  0  0
  5  6  1  1  0  0  0
  5 16  1  0  0  0  0
  7 19  1  0  0  0  0
  8  4  1  0  0  0  0
  8 24  2  0  0  0  0
  9  8  1  1  0  0  0
  9 10  1  0  0  0  0
  9 13  1  0  0  0  0
 10 11  1  0  0  0  0
 11 12  1  0  0  0  0
 14 15  1  0  0  0  0
 14 35  1  0  0  0  0
 15 17  1  0  0  0  0
 16 18  1  6  0  0  0
 16 25  1  0  0  0  0
 19 20  1  6  0  0  0
 19 27  1  0  0  0  0
 21 22  1  0  0  0  0
 21 23  1  0  0  0  0
 23 17  1  0  0  0  0
 25 26  1  1  0  0  0
 25 28  1  0  0  0  0
 27  2  1  1  0  0  0
 27 30  1  0  0  0  0
 28 29  1  0  0  0  0
 28 32  1  6  0  0  0
 30 31  1  6  0  0  0
 30 34  1  0  0  0  0
 32 33  2  0  0  0  0
 34 35  1  1  0  0  0
M  END
>  <CHROM.1>
-145.02387335,-81.15452706,155.66901179,-177.73092464,-81.33394700,64.28789625
66.19194253,77.58617002,58.44417355,117.13369079,-159.99238745,-145.85121885
-171.68069510,3.85770575,-8.09105225,29.01340752,2.08986157,-0.86997419,-0.42366113

>  <Name>
2f4t_lig

>  <RI>
0

>  <Rbt.Current_Directory>
/home/itssahil/PROJECTS/Mol_Feturizer/New_Systems/rnas/2f4t

>  <Rbt.Executable>
rbdock ($Id: //depot/dev/client3/rdock/2013.1/src/exe/rbdock.cxx#4 $)

>  <Rbt.Library>
libRbt.so (2013.1, Build901 2013/11/27)

>  <Rbt.Parameter_File>
/export/apps/rDock/src/rDock_2013.1_src/data/scripts/dock_solv.prm

>  <Rbt.Receptor>
prm/pocket_docking_2.prm

>  <SCORE>
-16.0269

>  <SCORE.INTER>
-11.9494

>  <SCORE.INTER.CONST>
1

>  <SCORE.INTER.POLAR>
-0.933648

>  <SCORE.INTER.ROT>
13

>  <SCORE.INTER.SOLV>
11.2941

>  <SCORE.INTER.VDW>
-20.8855

>  <SCORE.INTER.norm>
-0.341412

>  <SCORE.INTRA>
-4.15092

>  <SCORE.INTRA.DIHEDRAL>
-10.9623

>  <SCORE.INTRA.DIHEDRAL.0>
23.8882

>  <SCORE.INTRA.POLAR>
0

>  <SCORE.INTRA.POLAR.0>
0

>  <SCORE.INTRA.REPUL>
0

>  <SCORE.INTRA.REPUL.0>
0

>  <SCORE.INTRA.SOLV>
3.52397

>  <SCORE.INTRA.SOLV.lig_0>
-97.6888

>  <SCORE.INTRA.VDW>
-0.431742

>  <SCORE.INTRA.VDW.0>
-3.9206

>  <SCORE.INTRA.norm>
-0.118598

>  <SCORE.RESTR>
0.0734247

>  <SCORE.RESTR.CAVITY>
0.0734247

>  <SCORE.RESTR.norm>
0.00209785

>  <SCORE.SYSTEM>
0

>  <SCORE.SYSTEM.CONST>
0

>  <SCORE.SYSTEM.DIHEDRAL>
0

>  <SCORE.SYSTEM.SOLV>
0

>  <SCORE.SYSTEM.norm>
0

>  <SCORE.heavy>
35

>  <SCORE.norm>
-0.457912

>  <RMSD>
0.901

$$$$
2f4t_lig
 OpenBabel11021811433D
libRbt.so/2013.1/901 2013/11/27
 35 36  0  0  0  0  0  0  0  0999 V2000
    3.1860   -5.7047   25.9521 C   0  0  2  0  0  0  0  0  0  0  0  0
    2.6712   -6.3644   27.1551 O   0  0  0  0  0  0  0  0  0  0  0  0
    3.8540   -9.6566   29.6887 C   0  0  2  0  0  0  0  0  0  0  0  0
    4.2508  -11.0119   30.0994 N   0  0  0  0  0  0  0  0  0  0  0  0
    2.6965   -4.2272   26.0344 C   0  0  2  0  0  0  0  0  0  0  0  0
    3.1356   -3.6126   27.2652 N   0  0  0  0  0  0  0  0  0  0  0  0
    2.5441   -9.7395   28.8223 C   0  0  0  0  0  0  0  0  0  0  0  0
    3.5086  -11.3991   31.6544 C   0  0  0  0  0  0  0  0  0  0  0  0
    4.2023  -12.7376   31.5309 C   0  0  1  0  0  0  0  0  0  0  0  0
    4.3578  -13.3089   32.9420 C   0  0  0  0  0  0  0  0  0  0  0  0
    5.1729  -14.6087   33.0480 C   0  0  0  0  0  0  0  0  0  0  0  0
    4.9600  -15.1810   34.3807 N   0  0  0  0  0  0  0  0  0  0  0  0
    3.4026  -13.6545   30.8309 O   0  0  0  0  0  0  0  0  0  0  0  0
    7.4713   -8.5429   29.9508 C   0  0  0  0  0  0  0  0  0  0  0  0
    7.4459   -7.1024   30.4384 C   0  0  0  0  0  0  0  0  0  0  0  0
    1.1361   -4.1700   25.9150 C   0  0  1  0  0  0  0  0  0  0  0  0
    6.5402   -6.8830   31.5874 N   0  0  0  0  0  0  0  0  0  0  0  0
    0.6712   -2.8360   25.9826 O   0  0  0  0  0  0  0  0  0  0  0  0
    2.0809   -8.3539   28.3511 C   0  0  2  0  0  0  0  0  0  0  0  0
    0.8885   -8.4606   27.5163 N   0  0  0  0  0  0  0  0  0  0  0  0
    7.4117   -5.1883   33.1997 C   0  0  0  0  0  0  0  0  0  0  0  0
    7.4024   -6.1762   34.4104 N   0  0  0  0  0  0  0  0  0  0  0  0
    6.3331   -5.5075   32.1227 C   0  0  0  0  0  0  0  0  0  0  0  0
    2.8668  -10.8773   32.3289 O   0  0  0  0  0  0  0  0  0  0  0  0
    0.7375   -4.8164   24.5842 C   0  0  2  0  0  0  0  0  0  0  0  0
   -0.6694   -4.7864   24.4062 O   0  0  0  0  0  0  0  0  0  0  0  0
    3.1733   -7.6728   27.5651 C   0  0  2  0  0  0  0  0  0  0  0  0
    1.2583   -6.2816   24.5291 C   0  0  2  0  0  0  0  0  0  0  0  0
    2.6894   -6.3314   24.7055 O   0  0  0  0  0  0  0  0  0  0  0  0
    4.4911   -7.5574   28.4455 C   0  0  2  0  0  0  0  0  0  0  0  0
    5.5214   -6.8898   27.6569 O   0  0  0  0  0  0  0  0  0  0  0  0
    0.9218   -6.9415   23.2453 C   0  0  0  0  0  0  0  0  0  0  0  0
    0.8531   -6.0127   22.2663 N   0  0  0  0  0  0  0  0  0  0  0  0
    4.9592   -8.9990   28.8478 C   0  0  1  0  0  0  0  0  0  0  0  0
    6.1301   -8.9335   29.5979 O   0  0  0  0  0  0  0  0  0  0  0  0
  1  2  1  1  0  0  0
  1  5  1  0  0  0  0
  1 29  1  0  0  0  0
  3  4  1  6  0  0  0
  3  7  1  0  0  0  0
  3 34  1  0  0  0  0
  5  6  1  1  0  0  0
  5 16  1  0  0  0  0
  7 19  1  0  0  0  0
  8  4  1  0  0  0  0
  8 24  2  0  0  0  0
  9  8  1  1  0  0  0
  9 10  1  0  0  0  0
  9 13  1  0  0  0  0
 10 11  1  0  0  0  0
 11 12  1  0  0  0  0
 14 15  1  0  0  0  0
 14 35  1  0  0  0  0
 15 17  1  0  0  0  0
 16 18  1  6  0  0  0
 16 25  1  0  0  0  0
 19 20  1  6  0  0  0
 19 27  1  0  0  0  0
 21 22  1  0  0  0  0
 21 23  1  0  0  0  0
 23 17  1  0  0  0  0
 25 26  1  1  0  0  0
 25 28  1  0  0  0  0
 27  2  1  1  0  0  0
 27 30  1  0  0  0  0
 28 29  1  0  0  0  0
 28 32  1  6  0  0  0
 30 31  1  6  0  0  0
 30 34  1  0  0  0  0
 32 33  2  0  0  0  0
 34 35  1  1  0  0  0
M  END
>  <CHROM.1>
-166.37004315,-90.84362547,156.53524155,-174.00670812,-166.77165640,57.45665384
74.69532740,-175.85167633,-59.12361548,-88.06653986,-153.23309603,29.22699737
-168.35722728,3.66392763,-8.00589708,28.77302962,-2.12752892,0.82405944,2.71205419

>  <Name>
2f4t_lig

>  <RI>
0

>  <Rbt.Current_Directory>
/home/itssahil/PROJECTS/Mol_Feturizer/New_Systems/rnas/2f4t

>  <Rbt.Executable>
rbdock ($Id: //depot/dev/client3/rdock/2013.1/src/exe/rbdock.cxx#4 $)

>  <Rbt.Library>
libRbt.so (2013.1, Build901 2013/11/27)

>  <Rbt.Parameter_File>
/export/apps/rDock/src/rDock_2013.1_src/data/scripts/dock_solv.prm

>  <Rbt.Receptor>
prm/pocket_docking_2.prm

>  <SCORE>
-15.7022

>  <SCORE.INTER>
-10.3844

>  <SCORE.INTER.CONST>
1

>  <SCORE.INTER.POLAR>
-0.938083

>  <SCORE.INTER.ROT>
13

>  <SCORE.INTER.SOLV>
18.8433

>  <SCORE.INTER.VDW>
-22.3438

>  <SCORE.INTER.norm>
-0.296696

>  <SCORE.INTRA>
-5.39507

>  <SCORE.INTRA.DIHEDRAL>
-13.7839

>  <SCORE.INTRA.DIHEDRAL.0>
23.8882

>  <SCORE.INTRA.POLAR>
0

>  <SCORE.INTRA.POLAR.0>
0

>  <SCORE.INTRA.REPUL>
0

>  <SCORE.INTRA.REPUL.0>
0

>  <SCORE.INTRA.SOLV>
2.07269

>  <SCORE.INTRA.SOLV.lig_0>
-97.6888

>  <SCORE.INTRA.VDW>
0.460552

>  <SCORE.INTRA.VDW.0>
-3.9206

>  <SCORE.INTRA.norm>
-0.154145

>  <SCORE.RESTR>
0.077221

>  <SCORE.RESTR.CAVITY>
0.077221

>  <SCORE.RESTR.norm>
0.00220631

>  <SCORE.SYSTEM>
0

>  <SCORE.SYSTEM.CONST>
0

>  <SCORE.SYSTEM.DIHEDRAL>
0

>  <SCORE.SYSTEM.SOLV>
0

>  <SCORE.SYSTEM.norm>
0

>  <SCORE.heavy>
35

>  <SCORE.norm>
-0.448635

>  <RMSD>
0.909

$$$$
2f4t_lig
 OpenBabel11021811433D
libRbt.so/2013.1/901 2013/11/27
 35 36  0  0  0  0  0  0  0  0999 V2000
    3.0045   -5.4359   25.7464 C   0  0  2  0  0  0  0  0  0  0  0  0
    2.3916   -6.2228   26.8199 O   0  0  0  0  0  0  0  0  0  0  0  0
    3.2757   -9.8351   29.0169 C   0  0  2  0  0  0  0  0  0  0  0  0
    3.6297  -11.2364   29.2884 N   0  0  0  0  0  0  0  0  0  0  0  0
    2.4516   -3.9879   25.9112 C   0  0  2  0  0  0  0  0  0  0  0  0
    2.7337   -3.4821   27.2341 N   0  0  0  0  0  0  0  0  0  0  0  0
    2.0858   -9.7901   27.9895 C   0  0  0  0  0  0  0  0  0  0  0  0
    3.6040  -11.5254   31.0304 C   0  0  0  0  0  0  0  0  0  0  0  0
    3.9888  -12.9486   30.6917 C   0  0  1  0  0  0  0  0  0  0  0  0
    4.0271  -13.7404   32.0008 C   0  0  0  0  0  0  0  0  0  0  0  0
    5.2021  -13.4185   32.9393 C   0  0  0  0  0  0  0  0  0  0  0  0
    5.0779  -14.2520   34.1389 N   0  0  0  0  0  0  0  0  0  0  0  0
    3.0033  -13.5602   29.9012 O   0  0  0  0  0  0  0  0  0  0  0  0
    6.2380   -9.0053   30.5649 C   0  0  0  0  0  0  0  0  0  0  0  0
    6.0070   -7.6078   31.1190 C   0  0  0  0  0  0  0  0  0  0  0  0
    0.9115   -3.9647   25.6283 C   0  0  1  0  0  0  0  0  0  0  0  0
    6.5270   -7.4227   32.4916 N   0  0  0  0  0  0  0  0  0  0  0  0
    0.3902   -2.6574   25.7681 O   0  0  0  0  0  0  0  0  0  0  0  0
    1.6733   -8.3500   27.6542 C   0  0  2  0  0  0  0  0  0  0  0  0
    0.5962   -8.3338   26.6694 N   0  0  0  0  0  0  0  0  0  0  0  0
    7.4484   -5.6747   34.0170 C   0  0  0  0  0  0  0  0  0  0  0  0
    6.3044   -4.6208   33.8664 N   0  0  0  0  0  0  0  0  0  0  0  0
    7.6906   -6.5235   32.7340 C   0  0  0  0  0  0  0  0  0  0  0  0
    3.4000  -10.9223   31.8870 O   0  0  0  0  0  0  0  0  0  0  0  0
    0.6813   -4.4913   24.2080 C   0  0  2  0  0  0  0  0  0  0  0  0
   -0.6989   -4.4851   23.8814 O   0  0  0  0  0  0  0  0  0  0  0  0
    2.8498   -7.5785   27.1104 C   0  0  2  0  0  0  0  0  0  0  0  0
    1.2620   -5.9287   24.0747 C   0  0  2  0  0  0  0  0  0  0  0  0
    2.6673   -5.9539   24.4005 O   0  0  0  0  0  0  0  0  0  0  0  0
    4.0454   -7.5932   28.1568 C   0  0  2  0  0  0  0  0  0  0  0  0
    5.1607   -6.8342   27.6008 O   0  0  0  0  0  0  0  0  0  0  0  0
    1.0891   -6.4715   22.7063 C   0  0  0  0  0  0  0  0  0  0  0  0
    0.6006   -7.7292   22.7795 N   0  0  0  0  0  0  0  0  0  0  0  0
    4.4720   -9.0796   28.4175 C   0  0  1  0  0  0  0  0  0  0  0  0
    5.5387   -9.1250   29.3108 O   0  0  0  0  0  0  0  0  0  0  0  0
  1  2  1  1  0  0  0
  1  5  1  0  0  0  0
  1 29  1  0  0  0  0
  3  4  1  6  0  0  0
  3  7  1  0  0  0  0
  3 34  1  0  0  0  0
  5  6  1  1  0  0  0
  5 16  1  0  0  0  0
  7 19  1  0  0  0  0
  8  4  1  0  0  0  0
  8 24  2  0  0  0  0
  9  8  1  1  0  0  0
  9 10  1  0  0  0  0
  9 13  1  0  0  0  0
 10 11  1  0  0  0  0
 11 12  1  0  0  0  0
 14 15  1  0  0  0  0
 14 35  1  0  0  0  0
 15 17  1  0  0  0  0
 16 18  1  6  0  0  0
 16 25  1  0  0  0  0
 19 20  1  6  0  0  0
 19 27  1  0  0  0  0
 21 22  1  0  0  0  0
 21 23  1  0  0  0  0
 23 17  1  0  0  0  0
 25 26  1  1  0  0  0
 25 28  1  0  0  0  0
 27  2  1  1  0  0  0
 27 30  1  0  0  0  0
 28 29  1  0  0  0  0
 28 32  1  6  0  0  0
 30 31  1  6  0  0  0
 30 34  1  0  0  0  0
 32 33  2  0  0  0  0
 34 35  1  1  0  0  0
M  END
>  <CHROM.1>
-169.79435852,-126.38244584,-176.58355765,-71.70248321,179.54655007,172.30566942
-53.74826073,111.82285662,-68.35001321,138.24601272,-150.20653322,-132.93997916
-49.86997913,3.40979498,-7.98368041,28.50927823,-2.27867745,0.93257942,2.84469177

>  <Name>
2f4t_lig

>  <RI>
0

>  <Rbt.Current_Directory>
/home/itssahil/PROJECTS/Mol_Feturizer/New_Systems/rnas/2f4t

>  <Rbt.Executable>
rbdock ($Id: //depot/dev/client3/rdock/2013.1/src/exe/rbdock.cxx#4 $)

>  <Rbt.Library>
libRbt.so (2013.1, Build901 2013/11/27)

>  <Rbt.Parameter_File>
/export/apps/rDock/src/rDock_2013.1_src/data/scripts/dock_solv.prm

>  <Rbt.Receptor>
prm/pocket_docking_2.prm

>  <SCORE>
-20.3599

>  <SCORE.INTER>
-14.3106

>  <SCORE.INTER.CONST>
1

>  <SCORE.INTER.POLAR>
-0.938083

>  <SCORE.INTER.ROT>
13

>  <SCORE.INTER.SOLV>
20.1833

>  <SCORE.INTER.VDW>
-25.4079

>  <SCORE.INTER.norm>
-0.408873

>  <SCORE.INTRA>
-6.10139

>  <SCORE.INTRA.DIHEDRAL>
-13.1605

>  <SCORE.INTRA.DIHEDRAL.0>
23.8882

>  <SCORE.INTRA.POLAR>
0

>  <SCORE.INTRA.POLAR.0>
0

>  <SCORE.INTRA.REPUL>
0

>  <SCORE.INTRA.REPUL.0>
0

>  <SCORE.INTRA.SOLV>
1.61298

>  <SCORE.INTRA.SOLV.lig_0>
-97.6888

>  <SCORE.INTRA.VDW>
-0.327643

>  <SCORE.INTRA.VDW.0>
-3.9206

>  <SCORE.INTRA.norm>
-0.174325

>  <SCORE.RESTR>
0.0519985

>  <SCORE.RESTR.CAVITY>
0.0519985

>  <SCORE.RESTR.norm>
0.00148567

>  <SCORE.SYSTEM>
0

>  <SCORE.SYSTEM.CONST>
0

>  <SCORE.SYSTEM.DIHEDRAL>
0

>  <SCORE.SYSTEM.SOLV>
0

>  <SCORE.SYSTEM.norm>
0

>  <SCORE.heavy>
35

>  <SCORE.norm>
-0.581713

>  <RMSD>
0.926

$$$$
2f4t_lig
 OpenBabel11021811433D
libRbt.so/2013.1/901 2013/11/27
 35 36  0  0  0  0  0  0  0  0999 V2000
    2.9085   -5.5357   25.9176 C   0  0  2  0  0  0  0  0  0  0  0  0
    2.2590   -6.3797   26.9242 O   0  0  0  0  0  0  0  0  0  0  0  0
    4.0495   -9.0891   29.7720 C   0  0  2  0  0  0  0  0  0  0  0  0
    4.6273  -10.3181   30.3363 N   0  0  0  0  0  0  0  0  0  0  0  0
    2.2622   -4.1249   26.0638 C   0  0  2  0  0  0  0  0  0  0  0  0
    2.4096   -3.6342   27.4140 N   0  0  0  0  0  0  0  0  0  0  0  0
    2.6671   -9.4258   29.1018 C   0  0  0  0  0  0  0  0  0  0  0  0
    3.4447  -11.0963   31.3921 C   0  0  0  0  0  0  0  0  0  0  0  0
    4.5003  -12.1567   31.6143 C   0  0  1  0  0  0  0  0  0  0  0  0
    3.8771  -13.2542   32.4798 C   0  0  0  0  0  0  0  0  0  0  0  0
    4.8299  -14.3801   32.9152 C   0  0  0  0  0  0  0  0  0  0  0  0
    5.8937  -13.7945   33.7365 N   0  0  0  0  0  0  0  0  0  0  0  0
    4.8530  -12.7749   30.4045 O   0  0  0  0  0  0  0  0  0  0  0  0
    7.5001   -8.4526   29.8830 C   0  0  0  0  0  0  0  0  0  0  0  0
    8.1457   -7.1178   30.2220 C   0  0  0  0  0  0  0  0  0  0  0  0
    0.7505   -4.1812   25.6590 C   0  0  1  0  0  0  0  0  0  0  0  0
    7.5166   -6.4320   31.3719 N   0  0  0  0  0  0  0  0  0  0  0  0
    0.1457   -2.9084   25.7802 O   0  0  0  0  0  0  0  0  0  0  0  0
    2.0138   -8.1827   28.4817 C   0  0  2  0  0  0  0  0  0  0  0  0
    0.7536   -8.5275   27.8313 N   0  0  0  0  0  0  0  0  0  0  0  0
    6.9821   -6.0627   33.7822 C   0  0  0  0  0  0  0  0  0  0  0  0
    7.0384   -4.5067   33.6500 N   0  0  0  0  0  0  0  0  0  0  0  0
    7.8920   -6.8110   32.7636 C   0  0  0  0  0  0  0  0  0  0  0  0
    2.4471  -10.8686   31.6958 O   0  0  0  0  0  0  0  0  0  0  0  0
    0.6637   -4.6875   24.2155 C   0  0  2  0  0  0  0  0  0  0  0  0
   -0.6845   -4.7508   23.7795 O   0  0  0  0  0  0  0  0  0  0  0  0
    2.9360   -7.5539   27.4672 C   0  0  2  0  0  0  0  0  0  0  0  0
    1.3346   -6.0869   24.1031 C   0  0  2  0  0  0  0  0  0  0  0  0
    2.7089   -6.0411   24.5399 O   0  0  0  0  0  0  0  0  0  0  0  0
    4.3243   -7.1823   28.1451 C   0  0  2  0  0  0  0  0  0  0  0  0
    5.1862   -6.5725   27.1379 O   0  0  0  0  0  0  0  0  0  0  0  0
    1.3017   -6.6075   22.7157 C   0  0  0  0  0  0  0  0  0  0  0  0
    0.7488   -7.8403   22.7105 N   0  0  0  0  0  0  0  0  0  0  0  0
    4.9806   -8.4916   28.7057 C   0  0  1  0  0  0  0  0  0  0  0  0
    6.2144   -8.2032   29.2823 O   0  0  0  0  0  0  0  0  0  0  0  0
  1  2  1  1  0  0  0
  1  5  1  0  0  0  0
  1 29  1  0  0  0  0
  3  4  1  6  0  0  0
  3  7  1  0  0  0  0
  3 34  1  0  0  0  0
  5  6  1  1  0  0  0
  5 16  1  0  0  0  0
  7 19  1  0  0  0  0
  8  4  1  0  0  0  0
  8 24  2  0  0  0  0
  9  8  1  6  0  0  0
  9 10  1  0  0  0  0
  9 13  1  0  0  0  0
 10 11  1  0  0  0  0
 11 12  1  0  0  0  0
 14 15  1  0  0  0  0
 14 35  1  0  0  0  0
 15 17  1  0  0  0  0
 16 18  1  6  0  0  0
 16 25  1  0  0  0  0
 19 20  1  6  0  0  0
 19 27  1  0  0  0  0
 21 22  1  0  0  0  0
 21 23  1  0  0  0  0
 23 17  1  0  0  0  0
 25 26  1  1  0  0  0
 25 28  1  0  0  0  0
 27  2  1  1  0  0  0
 27 30  1  0  0  0  0
 28 29  1  0  0  0  0
 28 32  1  6  0  0  0
 30 31  1  6  0  0  0
 30 34  1  0  0  0  0
 32 33  2  0  0  0  0
 34 35  1  1  0  0  0
M  END
>  <CHROM.1>
-154.48093305,-52.74670476,-175.49824973,-175.32590668,61.98435662,72.34304734
-178.67276310,82.16018931,-57.65758828,-173.70557787,179.22150486,-126.48186582
69.71251251,3.69981241,-7.82017916,28.62119165,-2.25004293,0.80128662,2.73516396

>  <Name>
2f4t_lig

>  <RI>
0

>  <Rbt.Current_Directory>
/home/itssahil/PROJECTS/Mol_Feturizer/New_Systems/rnas/2f4t

>  <Rbt.Executable>
rbdock ($Id: //depot/dev/client3/rdock/2013.1/src/exe/rbdock.cxx#4 $)

>  <Rbt.Library>
libRbt.so (2013.1, Build901 2013/11/27)

>  <Rbt.Parameter_File>
/export/apps/rDock/src/rDock_2013.1_src/data/scripts/dock_solv.prm

>  <Rbt.Receptor>
prm/pocket_docking_4.prm

>  <SCORE>
-24.8784

>  <SCORE.INTER>
-18.5057

>  <SCORE.INTER.CONST>
1

>  <SCORE.INTER.POLAR>
-2.22562

>  <SCORE.INTER.ROT>
13

>  <SCORE.INTER.SOLV>
20.3627

>  <SCORE.INTER.VDW>
-23.9726

>  <SCORE.INTER.norm>
-0.528733

>  <SCORE.INTRA>
-6.37276

>  <SCORE.INTRA.DIHEDRAL>
-17.8788

>  <SCORE.INTRA.DIHEDRAL.0>
23.8882

>  <SCORE.INTRA.POLAR>
0

>  <SCORE.INTRA.POLAR.0>
0

>  <SCORE.INTRA.REPUL>
0

>  <SCORE.INTRA.REPUL.0>
0

>  <SCORE.INTRA.SOLV>
1.69072

>  <SCORE.INTRA.SOLV.lig_0>
-97.6888

>  <SCORE.INTRA.VDW>
1.72129

>  <SCORE.INTRA.VDW.0>
-3.9206

>  <SCORE.INTRA.norm>
-0.182079

>  <SCORE.RESTR>
0

>  <SCORE.RESTR.CAVITY>
0

>  <SCORE.RESTR.norm>
0

>  <SCORE.SYSTEM>
0

>  <SCORE.SYSTEM.CONST>
0

>  <SCORE.SYSTEM.DIHEDRAL>
0

>  <SCORE.SYSTEM.SOLV>
0

>  <SCORE.SYSTEM.norm>
0

>  <SCORE.heavy>
35

>  <SCORE.norm>
-0.710812

>  <RMSD>
0.933

$$$$
2f4t_lig
 OpenBabel11021811433D
libRbt.so/2013.1/901 2013/11/27
 35 36  0  0  0  0  0  0  0  0999 V2000
    2.8873   -5.7455   25.6304 C   0  0  2  0  0  0  0  0  0  0  0  0
    2.3645   -6.3487   26.8592 O   0  0  0  0  0  0  0  0  0  0  0  0
    4.0211   -9.0516   29.7931 C   0  0  2  0  0  0  0  0  0  0  0  0
    4.5475  -10.2865   30.3935 N   0  0  0  0  0  0  0  0  0  0  0  0
    2.3811   -4.2713   25.6311 C   0  0  2  0  0  0  0  0  0  0  0  0
    2.7982   -3.5898   26.8341 N   0  0  0  0  0  0  0  0  0  0  0  0
    2.6362   -9.3549   29.1122 C   0  0  0  0  0  0  0  0  0  0  0  0
    3.3454  -10.9679   31.4932 C   0  0  0  0  0  0  0  0  0  0  0  0
    4.3519  -12.0700   31.7391 C   0  0  1  0  0  0  0  0  0  0  0  0
    3.7400  -13.0353   32.7568 C   0  0  0  0  0  0  0  0  0  0  0  0
    4.5979  -14.2617   33.1105 C   0  0  0  0  0  0  0  0  0  0  0  0
    5.8829  -13.7914   33.6364 N   0  0  0  0  0  0  0  0  0  0  0  0
    4.5650  -12.8238   30.5743 O   0  0  0  0  0  0  0  0  0  0  0  0
    7.4221   -8.5086   30.0684 C   0  0  0  0  0  0  0  0  0  0  0  0
    7.0533   -8.6315   31.5389 C   0  0  0  0  0  0  0  0  0  0  0  0
    0.8218   -4.2379   25.4902 C   0  0  1  0  0  0  0  0  0  0  0  0
    6.6369   -7.3516   32.1530 N   0  0  0  0  0  0  0  0  0  0  0  0
    0.3420   -2.9074   25.4839 O   0  0  0  0  0  0  0  0  0  0  0  0
    2.0355   -8.1046   28.4548 C   0  0  2  0  0  0  0  0  0  0  0  0
    0.7721   -8.4200   27.7956 N   0  0  0  0  0  0  0  0  0  0  0  0
    6.9249   -5.2688   33.4986 C   0  0  0  0  0  0  0  0  0  0  0  0
    6.3126   -4.3459   32.3962 N   0  0  0  0  0  0  0  0  0  0  0  0
    7.6169   -6.5445   32.9337 C   0  0  0  0  0  0  0  0  0  0  0  0
    2.3649  -10.6810   31.8024 O   0  0  0  0  0  0  0  0  0  0  0  0
    0.4468   -4.9557   24.1896 C   0  0  2  0  0  0  0  0  0  0  0  0
   -0.9579   -4.9506   23.9934 O   0  0  0  0  0  0  0  0  0  0  0  0
    2.9923   -7.5329   27.4385 C   0  0  2  0  0  0  0  0  0  0  0  0
    0.9838   -6.4158   24.2158 C   0  0  2  0  0  0  0  0  0  0  0  0
    2.4130   -6.4406   24.4116 O   0  0  0  0  0  0  0  0  0  0  0  0
    4.3842   -7.1947   28.1262 C   0  0  2  0  0  0  0  0  0  0  0  0
    5.2800   -6.6397   27.1169 O   0  0  0  0  0  0  0  0  0  0  0  0
    0.6705   -7.1441   22.9634 C   0  0  0  0  0  0  0  0  0  0  0  0
    1.0177   -6.3839   21.9018 N   0  0  0  0  0  0  0  0  0  0  0  0
    4.9864   -8.5127   28.7259 C   0  0  1  0  0  0  0  0  0  0  0  0
    6.2222   -8.2545   29.3122 O   0  0  0  0  0  0  0  0  0  0  0  0
  1  2  1  1  0  0  0
  1  5  1  0  0  0  0
  1 29  1  0  0  0  0
  3  4  1  6  0  0  0
  3  7  1  0  0  0  0
  3 34  1  0  0  0  0
  5  6  1  1  0  0  0
  5 16  1  0  0  0  0
  7 19  1  0  0  0  0
  8  4  1  0  0  0  0
  8 24  2  0  0  0  0
  9  8  1  6  0  0  0
  9 10  1  0  0  0  0
  9 13  1  0  0  0  0
 10 11  1  0  0  0  0
 11 12  1  0  0  0  0
 14 15  1  0  0  0  0
 14 35  1  0  0  0  0
 15 17  1  0  0  0  0
 16 18  1  6  0  0  0
 16 25  1  0  0  0  0
 19 20  1  6  0  0  0
 19 27  1  0  0  0  0
 21 22  1  0  0  0  0
 21 23  1  0  0  0  0
 23 17  1  0  0  0  0
 25 26  1  1  0  0  0
 25 28  1  0  0  0  0
 27  2  1  1  0  0  0
 27 30  1  0  0  0  0
 28 29  1  0  0  0  0
 28 32  1  6  0  0  0
 30 31  1  6  0  0  0
 30 34  1  0  0  0  0
 32 33  2  0  0  0  0
 34 35  1  1  0  0  0
M  END
>  <CHROM.1>
-158.15390233,-54.65550510,179.21029184,178.12945558,58.19064438,-70.01382463
-70.23284393,-97.46438106,-58.89775205,-178.67733094,-165.57002952,48.70848630
53.51852033,3.56867671,-7.84841887,28.60986515,-2.23305414,0.83198294,2.71937221

>  <Name>
2f4t_lig

>  <RI>
0

>  <Rbt.Current_Directory>
/home/itssahil/PROJECTS/Mol_Feturizer/New_Systems/rnas/2f4t

>  <Rbt.Executable>
rbdock ($Id: //depot/dev/client3/rdock/2013.1/src/exe/rbdock.cxx#4 $)

>  <Rbt.Library>
libRbt.so (2013.1, Build901 2013/11/27)

>  <Rbt.Parameter_File>
/export/apps/rDock/src/rDock_2013.1_src/data/scripts/dock_solv.prm

>  <Rbt.Receptor>
prm/pocket_docking_2.prm

>  <SCORE>
-20.8176

>  <SCORE.INTER>
-15.5744

>  <SCORE.INTER.CONST>
1

>  <SCORE.INTER.POLAR>
-2.11704

>  <SCORE.INTER.ROT>
13

>  <SCORE.INTER.SOLV>
19.0902

>  <SCORE.INTER.VDW>
-21.9562

>  <SCORE.INTER.norm>
-0.444983

>  <SCORE.INTRA>
-5.55056

>  <SCORE.INTRA.DIHEDRAL>
-16.2823

>  <SCORE.INTRA.DIHEDRAL.0>
23.8882

>  <SCORE.INTRA.POLAR>
0

>  <SCORE.INTRA.POLAR.0>
0

>  <SCORE.INTRA.REPUL>
0

>  <SCORE.INTRA.REPUL.0>
0

>  <SCORE.INTRA.SOLV>
3.04116

>  <SCORE.INTRA.SOLV.lig_0>
-97.6888

>  <SCORE.INTRA.VDW>
1.07

>  <SCORE.INTRA.VDW.0>
-3.9206

>  <SCORE.INTRA.norm>
-0.158588

>  <SCORE.RESTR>
0.307377

>  <SCORE.RESTR.CAVITY>
0.307377

>  <SCORE.RESTR.norm>
0.00878221

>  <SCORE.SYSTEM>
0

>  <SCORE.SYSTEM.CONST>
0

>  <SCORE.SYSTEM.DIHEDRAL>
0

>  <SCORE.SYSTEM.SOLV>
0

>  <SCORE.SYSTEM.norm>
0

>  <SCORE.heavy>
35

>  <SCORE.norm>
-0.594788

>  <RMSD>
0.939

$$$$
2f4t_lig
 OpenBabel11021811433D
libRbt.so/2013.1/901 2013/11/27
 35 36  0  0  0  0  0  0  0  0999 V2000
    2.6735   -5.4443   25.6201 C   0  0  2  0  0  0  0  0  0  0  0  0
    2.0235   -6.2905   26.6245 O   0  0  0  0  0  0  0  0  0  0  0  0
    3.3378   -9.3073   29.4224 C   0  0  2  0  0  0  0  0  0  0  0  0
    3.9196  -10.5562   29.9367 N   0  0  0  0  0  0  0  0  0  0  0  0
    2.0157   -4.0380   25.7582 C   0  0  2  0  0  0  0  0  0  0  0  0
    2.1502   -3.5427   27.1080 N   0  0  0  0  0  0  0  0  0  0  0  0
    2.2757   -9.6477   28.3135 C   0  0  0  0  0  0  0  0  0  0  0  0
    3.4457  -10.7780   31.6235 C   0  0  0  0  0  0  0  0  0  0  0  0
    4.2431  -12.0622   31.5668 C   0  0  1  0  0  0  0  0  0  0  0  0
    4.1567  -12.7204   32.9457 C   0  0  0  0  0  0  0  0  0  0  0  0
    4.6422  -14.1778   33.0193 C   0  0  0  0  0  0  0  0  0  0  0  0
    5.9898  -14.2461   32.4462 N   0  0  0  0  0  0  0  0  0  0  0  0
    3.6644  -12.9729   30.6691 O   0  0  0  0  0  0  0  0  0  0  0  0
    6.3871   -8.3609   30.7756 C   0  0  0  0  0  0  0  0  0  0  0  0
    6.8858   -7.0215   31.2960 C   0  0  0  0  0  0  0  0  0  0  0  0
    0.5073   -4.1067   25.3432 C   0  0  1  0  0  0  0  0  0  0  0  0
    7.6721   -7.1281   32.5446 N   0  0  0  0  0  0  0  0  0  0  0  0
   -0.1078   -2.8381   25.4569 O   0  0  0  0  0  0  0  0  0  0  0  0
    1.6363   -8.3819   27.7258 C   0  0  2  0  0  0  0  0  0  0  0  0
    0.6852   -8.7214   26.6720 N   0  0  0  0  0  0  0  0  0  0  0  0
    7.3231   -5.0569   33.8937 C   0  0  0  0  0  0  0  0  0  0  0  0
    6.5314   -4.2673   32.8021 N   0  0  0  0  0  0  0  0  0  0  0  0
    7.1180   -6.5991   33.8231 C   0  0  0  0  0  0  0  0  0  0  0  0
    2.8573  -10.2184   32.3162 O   0  0  0  0  0  0  0  0  0  0  0  0
    0.4341   -4.6174   23.9005 C   0  0  2  0  0  0  0  0  0  0  0  0
   -0.9106   -4.6919   23.4555 O   0  0  0  0  0  0  0  0  0  0  0  0
    2.6963   -7.4714   27.1582 C   0  0  2  0  0  0  0  0  0  0  0  0
    1.1162   -6.0121   23.7964 C   0  0  2  0  0  0  0  0  0  0  0  0
    2.4871   -5.9548   24.2424 O   0  0  0  0  0  0  0  0  0  0  0  0
    3.7563   -7.0978   28.2815 C   0  0  2  0  0  0  0  0  0  0  0  0
    4.7603   -6.2135   27.6993 O   0  0  0  0  0  0  0  0  0  0  0  0
    1.0966   -6.5365   22.4102 C   0  0  0  0  0  0  0  0  0  0  0  0
    0.6499   -7.8116   22.4177 N   0  0  0  0  0  0  0  0  0  0  0  0
    4.4261   -8.4160   28.8041 C   0  0  1  0  0  0  0  0  0  0  0  0
    5.3822   -8.1197   29.7716 O   0  0  0  0  0  0  0  0  0  0  0  0
  1  2  1  1  0  0  0
  1  5  1  0  0  0  0
  1 29  1  0  0  0  0
  3  4  1  6  0  0  0
  3  7  1  0  0  0  0
  3 34  1  0  0  0  0
  5  6  1  1  0  0  0
  5 16  1  0  0  0  0
  7 19  1  0  0  0  0
  8  4  1  0  0  0  0
  8 24  2  0  0  0  0
  9  8  1  1  0  0  0
  9 10  1  0  0  0  0
  9 13  1  0  0  0  0
 10 11  1  0  0  0  0
 11 12  1  0  0  0  0
 14 15  1  0  0  0  0
 14 35  1  0  0  0  0
 15 17  1  0  0  0  0
 16 18  1  6  0  0  0
 16 25  1  0  0  0  0
 19 20  1  6  0  0  0
 19 27  1  0  0  0  0
 21 22  1  0  0  0  0
 21 23  1  0  0  0  0
 23 17  1  0  0  0  0
 25 26  1  1  0  0  0
 25 28  1  0  0  0  0
 27  2  1  1  0  0  0
 27 30  1  0  0  0  0
 28 29  1  0  0  0  0
 28 32  1  6  0  0  0
 30 31  1  6  0  0  0
 30 34  1  0  0  0  0
 32 33  2  0  0  0  0
 34 35  1  1  0  0  0
M  END
>  <CHROM.1>
-155.55229438,-113.49187692,179.60014276,167.34109446,52.49743427,166.08417480
179.65532342,-110.97664826,64.63026654,-80.51363751,-158.89323188,-131.20225986
57.42355760,3.36723108,-7.74320351,28.56236121,-2.35256216,0.91561263,2.82233010

>  <Name>
2f4t_lig

>  <RI>
0

>  <Rbt.Current_Directory>
/home/itssahil/PROJECTS/Mol_Feturizer/New_Systems/rnas/2f4t

>  <Rbt.Executable>
rbdock ($Id: //depot/dev/client3/rdock/2013.1/src/exe/rbdock.cxx#4 $)

>  <Rbt.Library>
libRbt.so (2013.1, Build901 2013/11/27)

>  <Rbt.Parameter_File>
/export/apps/rDock/src/rDock_2013.1_src/data/scripts/dock_solv.prm

>  <Rbt.Receptor>
prm/pocket_docking_2.prm

>  <SCORE>
-17.2167

>  <SCORE.INTER>
-12.8888

>  <SCORE.INTER.CONST>
1

>  <SCORE.INTER.POLAR>
-1.07743

>  <SCORE.INTER.ROT>
13

>  <SCORE.INTER.SOLV>
20.9792

>  <SCORE.INTER.VDW>
-24.2608

>  <SCORE.INTER.norm>
-0.368251

>  <SCORE.INTRA>
-4.3279

>  <SCORE.INTRA.DIHEDRAL>
-13.4261

>  <SCORE.INTRA.DIHEDRAL.0>
23.8882

>  <SCORE.INTRA.POLAR>
0

>  <SCORE.INTRA.POLAR.0>
0

>  <SCORE.INTRA.REPUL>
0

>  <SCORE.INTRA.REPUL.0>
0

>  <SCORE.INTRA.SOLV>
3.42836

>  <SCORE.INTRA.SOLV.lig_0>
-97.6888

>  <SCORE.INTRA.VDW>
0.670983

>  <SCORE.INTRA.VDW.0>
-3.9206

>  <SCORE.INTRA.norm>
-0.123654

>  <SCORE.RESTR>
0

>  <SCORE.RESTR.CAVITY>
0

>  <SCORE.RESTR.norm>
0

>  <SCORE.SYSTEM>
0

>  <SCORE.SYSTEM.CONST>
0

>  <SCORE.SYSTEM.DIHEDRAL>
0

>  <SCORE.SYSTEM.SOLV>
0

>  <SCORE.SYSTEM.norm>
0

>  <SCORE.heavy>
35

>  <SCORE.norm>
-0.491906

>  <RMSD>
0.950

$$$$
2f4t_lig
 OpenBabel11021811433D
libRbt.so/2013.1/901 2013/11/27
 35 36  0  0  0  0  0  0  0  0999 V2000
    2.8425   -5.5842   25.7946 C   0  0  2  0  0  0  0  0  0  0  0  0
    2.2188   -6.4380   26.8091 O   0  0  0  0  0  0  0  0  0  0  0  0
    4.0625   -9.0414   29.7211 C   0  0  2  0  0  0  0  0  0  0  0  0
    4.6853  -10.2373   30.3083 N   0  0  0  0  0  0  0  0  0  0  0  0
    2.2218   -4.1678   25.9902 C   0  0  2  0  0  0  0  0  0  0  0  0
    2.4258   -3.7044   27.3427 N   0  0  0  0  0  0  0  0  0  0  0  0
    2.7183   -9.4504   29.0144 C   0  0  0  0  0  0  0  0  0  0  0  0
    3.5781  -10.9683   31.4737 C   0  0  0  0  0  0  0  0  0  0  0  0
    4.6549  -12.0101   31.6815 C   0  0  1  0  0  0  0  0  0  0  0  0
    4.1364  -13.0097   32.7178 C   0  0  0  0  0  0  0  0  0  0  0  0
    5.1211  -14.1190   33.1237 C   0  0  0  0  0  0  0  0  0  0  0  0
    4.4558  -14.9972   34.0908 N   0  0  0  0  0  0  0  0  0  0  0  0
    4.8705  -12.7498   30.5082 O   0  0  0  0  0  0  0  0  0  0  0  0
    7.4171   -8.2207   30.0276 C   0  0  0  0  0  0  0  0  0  0  0  0
    7.0706   -8.5003   31.4820 C   0  0  0  0  0  0  0  0  0  0  0  0
    0.6956   -4.1964   25.6409 C   0  0  1  0  0  0  0  0  0  0  0  0
    6.3923   -7.3713   32.1557 N   0  0  0  0  0  0  0  0  0  0  0  0
    0.1135   -2.9182   25.8075 O   0  0  0  0  0  0  0  0  0  0  0  0
    2.0210   -8.2445   28.3693 C   0  0  2  0  0  0  0  0  0  0  0  0
    0.7985   -8.6554   27.6859 N   0  0  0  0  0  0  0  0  0  0  0  0
    7.6340   -6.3644   34.0730 C   0  0  0  0  0  0  0  0  0  0  0  0
    7.4629   -4.8562   33.7018 N   0  0  0  0  0  0  0  0  0  0  0  0
    6.4321   -7.2557   33.6411 C   0  0  0  0  0  0  0  0  0  0  0  0
    2.5995  -10.7314   31.8279 O   0  0  0  0  0  0  0  0  0  0  0  0
    0.5485   -4.6746   24.1926 C   0  0  2  0  0  0  0  0  0  0  0  0
   -0.8157   -4.7117   23.8060 O   0  0  0  0  0  0  0  0  0  0  0  0
    2.9385   -7.5742   27.3775 C   0  0  2  0  0  0  0  0  0  0  0  0
    1.1951   -6.0805   24.0300 C   0  0  2  0  0  0  0  0  0  0  0  0
    2.5850   -6.0611   24.4162 O   0  0  0  0  0  0  0  0  0  0  0  0
    4.2866   -7.1301   28.0918 C   0  0  2  0  0  0  0  0  0  0  0  0
    5.1448   -6.4817   27.1057 O   0  0  0  0  0  0  0  0  0  0  0  0
    1.1037   -6.5746   22.6356 C   0  0  0  0  0  0  0  0  0  0  0  0
    2.2251   -6.2342   21.9631 N   0  0  0  0  0  0  0  0  0  0  0  0
    4.9920   -8.4021   28.6779 C   0  0  1  0  0  0  0  0  0  0  0  0
    6.1929   -8.0493   29.2871 O   0  0  0  0  0  0  0  0  0  0  0  0
  1  2  1  1  0  0  0
  1  5  1  0  0  0  0
  1 29  1  0  0  0  0
  3  4  1  6  0  0  0
  3  7  1  0  0  0  0
  3 34  1  0  0  0  0
  5  6  1  1  0  0  0
  5 16  1  0  0  0  0
  7 19  1  0  0  0  0
  8  4  1  0  0  0  0
  8 24  2  0  0  0  0
  9  8  1  6  0  0  0
  9 10  1  0  0  0  0
  9 13  1  0  0  0  0
 10 11  1  0  0  0  0
 11 12  1  0  0  0  0
 14 15  1  0  0  0  0
 14 35  1  0  0  0  0
 15 17  1  0  0  0  0
 16 18  1  6  0  0  0
 16 25  1  0  0  0  0
 19 20  1  6  0  0  0
 19 27  1  0  0  0  0
 21 22  1  0  0  0  0
 21 23  1  0  0  0  0
 23 17  1  0  0  0  0
 25 26  1  1  0  0  0
 25 28  1  0  0  0  0
 27  2  1  1  0  0  0
 27 30  1  0  0  0  0
 28 29  1  0  0  0  0
 28 32  1  6  0  0  0
 30 31  1  6  0  0  0
 30 34  1  0  0  0  0
 32 33  2  0  0  0  0
 34 35  1  1  0  0  0
M  END
>  <CHROM.1>
-149.90118509,-59.06245874,-179.64687499,-177.05528908,-178.68443425,-64.48908899
-69.96394456,-157.39967142,69.45888726,92.68831625,-179.41488886,92.93246342
57.23324579,3.62938718,-7.86900210,28.69569173,-2.22634578,0.86714179,2.73117365

>  <Name>
2f4t_lig

>  <RI>
0

>  <Rbt.Current_Directory>
/home/itssahil/PROJECTS/Mol_Feturizer/New_Systems/rnas/2f4t

>  <Rbt.Executable>
rbdock ($Id: //depot/dev/client3/rdock/2013.1/src/exe/rbdock.cxx#4 $)

>  <Rbt.Library>
libRbt.so (2013.1, Build901 2013/11/27)

>  <Rbt.Parameter_File>
/export/apps/rDock/src/rDock_2013.1_src/data/scripts/dock_solv.prm

>  <Rbt.Receptor>
prm/pocket_docking_4.prm

>  <SCORE>
-26.912

>  <SCORE.INTER>
-20.9164

>  <SCORE.INTER.CONST>
1

>  <SCORE.INTER.POLAR>
-1.81898

>  <SCORE.INTER.ROT>
13

>  <SCORE.INTER.SOLV>
17.7233

>  <SCORE.INTER.VDW>
-26.0555

>  <SCORE.INTER.norm>
-0.597613

>  <SCORE.INTRA>
-5.99551

>  <SCORE.INTRA.DIHEDRAL>
-16.1316

>  <SCORE.INTRA.DIHEDRAL.0>
23.8882

>  <SCORE.INTRA.POLAR>
0

>  <SCORE.INTRA.POLAR.0>
0

>  <SCORE.INTRA.REPUL>
0

>  <SCORE.INTRA.REPUL.0>
0

>  <SCORE.INTRA.SOLV>
1.5251

>  <SCORE.INTRA.SOLV.lig_0>
-97.6888

>  <SCORE.INTRA.VDW>
1.30771

>  <SCORE.INTRA.VDW.0>
-3.9206

>  <SCORE.INTRA.norm>
-0.1713

>  <SCORE.RESTR>
0

>  <SCORE.RESTR.CAVITY>
0

>  <SCORE.RESTR.norm>
0

>  <SCORE.SYSTEM>
0

>  <SCORE.SYSTEM.CONST>
0

>  <SCORE.SYSTEM.DIHEDRAL>
0

>  <SCORE.SYSTEM.SOLV>
0

>  <SCORE.SYSTEM.norm>
0

>  <SCORE.heavy>
35

>  <SCORE.norm>
-0.768913

>  <RMSD>
0.966

$$$$
2f4t_lig
 OpenBabel11021811433D
libRbt.so/2013.1/901 2013/11/27
 35 36  0  0  0  0  0  0  0  0999 V2000
    2.8884   -5.5826   25.9672 C   0  0  2  0  0  0  0  0  0  0  0  0
    2.2632   -6.3867   27.0207 O   0  0  0  0  0  0  0  0  0  0  0  0
    3.8869   -9.5462   29.4780 C   0  0  2  0  0  0  0  0  0  0  0  0
    4.3411  -10.8831   29.8889 N   0  0  0  0  0  0  0  0  0  0  0  0
    2.2781   -4.1548   26.1027 C   0  0  2  0  0  0  0  0  0  0  0  0
    2.4908   -3.6338   27.4326 N   0  0  0  0  0  0  0  0  0  0  0  0
    2.4298   -9.6495   28.8951 C   0  0  0  0  0  0  0  0  0  0  0  0
    3.3249  -11.4730   31.2074 C   0  0  0  0  0  0  0  0  0  0  0  0
    4.1827  -12.7184   31.1683 C   0  0  1  0  0  0  0  0  0  0  0  0
    3.8328  -13.5587   32.3985 C   0  0  0  0  0  0  0  0  0  0  0  0
    4.9173  -14.5465   32.8603 C   0  0  0  0  0  0  0  0  0  0  0  0
    6.1238  -13.7849   33.1971 N   0  0  0  0  0  0  0  0  0  0  0  0
    3.8631  -13.5131   30.0563 O   0  0  0  0  0  0  0  0  0  0  0  0
    7.1603   -8.6562   29.8490 C   0  0  0  0  0  0  0  0  0  0  0  0
    7.0622   -7.2214   30.3443 C   0  0  0  0  0  0  0  0  0  0  0  0
    0.7502   -4.1882   25.7608 C   0  0  1  0  0  0  0  0  0  0  0  0
    5.9863   -7.0111   31.3377 N   0  0  0  0  0  0  0  0  0  0  0  0
    0.1775   -2.8999   25.8733 O   0  0  0  0  0  0  0  0  0  0  0  0
    1.8988   -8.2843   28.4360 C   0  0  2  0  0  0  0  0  0  0  0  0
    0.5629   -8.4124   27.8623 N   0  0  0  0  0  0  0  0  0  0  0  0
    7.0619   -5.3326   32.8401 C   0  0  0  0  0  0  0  0  0  0  0  0
    6.1914   -4.1247   32.3655 N   0  0  0  0  0  0  0  0  0  0  0  0
    6.3290   -6.7041   32.7553 C   0  0  0  0  0  0  0  0  0  0  0  0
    2.4926  -11.0780   31.7462 O   0  0  0  0  0  0  0  0  0  0  0  0
    0.5939   -4.7286   24.3356 C   0  0  2  0  0  0  0  0  0  0  0  0
   -0.7721   -4.7734   23.9562 O   0  0  0  0  0  0  0  0  0  0  0  0
    2.8211   -7.6795   27.4071 C   0  0  2  0  0  0  0  0  0  0  0  0
    1.2304   -6.1447   24.2326 C   0  0  2  0  0  0  0  0  0  0  0  0
    2.6220   -6.1180   24.6122 O   0  0  0  0  0  0  0  0  0  0  0  0
    4.2890   -7.5431   28.0001 C   0  0  2  0  0  0  0  0  0  0  0  0
    5.1497   -6.9504   26.9817 O   0  0  0  0  0  0  0  0  0  0  0  0
    1.1299   -6.6990   22.8616 C   0  0  0  0  0  0  0  0  0  0  0  0
    0.4268   -7.8525   22.8929 N   0  0  0  0  0  0  0  0  0  0  0  0
    4.8105   -8.9685   28.3943 C   0  0  1  0  0  0  0  0  0  0  0  0
    6.1078   -8.8862   28.8921 O   0  0  0  0  0  0  0  0  0  0  0  0
  1  2  1  1  0  0  0
  1  5  1  0  0  0  0
  1 29  1  0  0  0  0
  3  4  1  6  0  0  0
  3  7  1  0  0  0  0
  3 34  1  0  0  0  0
  5  6  1  1  0  0  0
  5 16  1  0  0  0  0
  7 19  1  0  0  0  0
  8  4  1  0  0  0  0
  8 24  2  0  0  0  0
  9  8  1  6  0  0  0
  9 10  1  0  0  0  0
  9 13  1  0  0  0  0
 10 11  1  0  0  0  0
 11 12  1  0  0  0  0
 14 15  1  0  0  0  0
 14 35  1  0  0  0  0
 15 17  1  0  0  0  0
 16 18  1  6  0  0  0
 16 25  1  0  0  0  0
 19 20  1  6  0  0  0
 19 27  1  0  0  0  0
 21 22  1  0  0  0  0
 21 23  1  0  0  0  0
 23 17  1  0  0  0  0
 25 26  1  1  0  0  0
 25 28  1  0  0  0  0
 27  2  1  1  0  0  0
 27 30  1  0  0  0  0
 28 29  1  0  0  0  0
 28 32  1  6  0  0  0
 30 31  1  6  0  0  0
 30 34  1  0  0  0  0
 32 33  2  0  0  0  0
 34 35  1  1  0  0  0
M  END
>  <CHROM.1>
-164.99637675,-64.09190337,169.93079432,-156.86405747,60.17909169,77.34208853
-58.57028647,111.36893173,62.68675413,64.40171591,-176.13707919,-120.05816339
-38.55456951,3.45380678,-7.98329330,28.49127002,-2.21052119,0.85425815,2.82453832

>  <Name>
2f4t_lig

>  <RI>
0

>  <Rbt.Current_Directory>
/home/itssahil/PROJECTS/Mol_Feturizer/New_Systems/rnas/2f4t

>  <Rbt.Executable>
rbdock ($Id: //depot/dev/client3/rdock/2013.1/src/exe/rbdock.cxx#4 $)

>  <Rbt.Library>
libRbt.so (2013.1, Build901 2013/11/27)

>  <Rbt.Parameter_File>
/export/apps/rDock/src/rDock_2013.1_src/data/scripts/dock_solv.prm

>  <Rbt.Receptor>
prm/pocket_docking_2.prm

>  <SCORE>
-18.0313

>  <SCORE.INTER>
-12.1934

>  <SCORE.INTER.CONST>
1

>  <SCORE.INTER.POLAR>
-1.58614

>  <SCORE.INTER.ROT>
13

>  <SCORE.INTER.SOLV>
18.6693

>  <SCORE.INTER.VDW>
-21.3316

>  <SCORE.INTER.norm>
-0.348382

>  <SCORE.INTRA>
-5.8919

>  <SCORE.INTRA.DIHEDRAL>
-15.0824

>  <SCORE.INTRA.DIHEDRAL.0>
23.8882

>  <SCORE.INTRA.POLAR>
0

>  <SCORE.INTRA.POLAR.0>
0

>  <SCORE.INTRA.REPUL>
0

>  <SCORE.INTRA.REPUL.0>
0

>  <SCORE.INTRA.SOLV>
2.54728

>  <SCORE.INTRA.SOLV.lig_0>
-97.6888

>  <SCORE.INTRA.VDW>
0.375644

>  <SCORE.INTRA.VDW.0>
-3.9206

>  <SCORE.INTRA.norm>
-0.16834

>  <SCORE.RESTR>
0.0539515

>  <SCORE.RESTR.CAVITY>
0.0539515

>  <SCORE.RESTR.norm>
0.00154147

>  <SCORE.SYSTEM>
0

>  <SCORE.SYSTEM.CONST>
0

>  <SCORE.SYSTEM.DIHEDRAL>
0

>  <SCORE.SYSTEM.SOLV>
0

>  <SCORE.SYSTEM.norm>
0

>  <SCORE.heavy>
35

>  <SCORE.norm>
-0.515181

>  <RMSD>
0.970

$$$$
2f4t_lig
 OpenBabel11021811433D
libRbt.so/2013.1/901 2013/11/27
 35 36  0  0  0  0  0  0  0  0999 V2000
    3.1441   -5.8586   26.1289 C   0  0  2  0  0  0  0  0  0  0  0  0
    2.6211   -6.4879   27.3445 O   0  0  0  0  0  0  0  0  0  0  0  0
    4.2307   -9.3812   30.1186 C   0  0  2  0  0  0  0  0  0  0  0  0
    4.7102  -10.6636   30.6554 N   0  0  0  0  0  0  0  0  0  0  0  0
    2.8681   -4.3327   26.2870 C   0  0  2  0  0  0  0  0  0  0  0  0
    3.4647   -3.8302   27.5024 N   0  0  0  0  0  0  0  0  0  0  0  0
    2.8084   -9.5857   29.4790 C   0  0  0  0  0  0  0  0  0  0  0  0
    3.5162  -11.3165   31.7810 C   0  0  0  0  0  0  0  0  0  0  0  0
    4.4681  -12.4801   31.9482 C   0  0  1  0  0  0  0  0  0  0  0  0
    3.8434  -13.4461   32.9575 C   0  0  0  0  0  0  0  0  0  0  0  0
    4.7555  -14.5863   33.4402 C   0  0  0  0  0  0  0  0  0  0  0  0
    5.9039  -13.9975   34.1355 N   0  0  0  0  0  0  0  0  0  0  0  0
    4.5927  -13.2024   30.7512 O   0  0  0  0  0  0  0  0  0  0  0  0
    7.4502   -8.3135   30.5575 C   0  0  0  0  0  0  0  0  0  0  0  0
    7.2105   -6.8704   30.9739 C   0  0  0  0  0  0  0  0  0  0  0  0
    1.3259   -4.0609   26.2759 C   0  0  1  0  0  0  0  0  0  0  0  0
    6.0213   -6.6936   31.8361 N   0  0  0  0  0  0  0  0  0  0  0  0
    1.0537   -2.6799   26.4137 O   0  0  0  0  0  0  0  0  0  0  0  0
    2.2537   -8.2819   28.8884 C   0  0  2  0  0  0  0  0  0  0  0  0
    0.9528   -8.5056   28.2656 N   0  0  0  0  0  0  0  0  0  0  0  0
    6.0130   -4.3296   32.6378 C   0  0  0  0  0  0  0  0  0  0  0  0
    7.2679   -3.8173   31.8601 N   0  0  0  0  0  0  0  0  0  0  0  0
    6.0998   -5.8295   33.0479 C   0  0  0  0  0  0  0  0  0  0  0  0
    2.5664  -10.9874   32.1399 O   0  0  0  0  0  0  0  0  0  0  0  0
    0.7586   -4.5966   24.9573 C   0  0  2  0  0  0  0  0  0  0  0  0
   -0.6393   -4.3702   24.8765 O   0  0  0  0  0  0  0  0  0  0  0  0
    3.2038   -7.7243   27.8583 C   0  0  2  0  0  0  0  0  0  0  0  0
    1.0689   -6.1155   24.8245 C   0  0  2  0  0  0  0  0  0  0  0  0
    2.4879   -6.3648   24.9014 O   0  0  0  0  0  0  0  0  0  0  0  0
    4.6352   -7.4856   28.5057 C   0  0  2  0  0  0  0  0  0  0  0  0
    5.5239   -6.9416   27.4842 O   0  0  0  0  0  0  0  0  0  0  0  0
    0.5641   -6.6747   23.5480 C   0  0  0  0  0  0  0  0  0  0  0  0
    1.0687   -5.9649   22.5149 N   0  0  0  0  0  0  0  0  0  0  0  0
    5.1858   -8.8548   29.0361 C   0  0  1  0  0  0  0  0  0  0  0  0
    6.4535   -8.6841   29.5852 O   0  0  0  0  0  0  0  0  0  0  0  0
  1  2  1  1  0  0  0
  1  5  1  0  0  0  0
  1 29  1  0  0  0  0
  3  4  1  6  0  0  0
  3  7  1  0  0  0  0
  3 34  1  0  0  0  0
  5  6  1  1  0  0  0
  5 16  1  0  0  0  0
  7 19  1  0  0  0  0
  8  4  1  0  0  0  0
  8 24  2  0  0  0  0
  9  8  1  6  0  0  0
  9 10  1  0  0  0  0
  9 13  1  0  0  0  0
 10 11  1  0  0  0  0
 11 12  1  0  0  0  0
 14 15  1  0  0  0  0
 14 35  1  0  0  0  0
 15 17  1  0  0  0  0
 16 18  1  6  0  0  0
 16 25  1  0  0  0  0
 19 20  1  6  0  0  0
 19 27  1  0  0  0  0
 21 22  1  0  0  0  0
 21 23  1  0  0  0  0
 23 17  1  0  0  0  0
 25 26  1  1  0  0  0
 25 28  1  0  0  0  0
 27  2  1  1  0  0  0
 27 30  1  0  0  0  0
 28 29  1  0  0  0  0
 28 32  1  6  0  0  0
 30 31  1  6  0  0  0
 30 34  1  0  0  0  0
 32 33  2  0  0  0  0
 34 35  1  1  0  0  0
M  END
>  <CHROM.1>
-151.22304466,-54.96734464,179.23640561,-170.52021359,62.33413506,72.59819266
-52.41254722,135.32971206,-68.92168531,78.33146096,-166.38013481,55.31893271
-41.58117355,3.70138343,-7.79976259,28.95235046,2.11676175,-0.83008432,-0.39333056

>  <Name>
2f4t_lig

>  <RI>
0

>  <Rbt.Current_Directory>
/home/itssahil/PROJECTS/Mol_Feturizer/New_Systems/rnas/2f4t

>  <Rbt.Executable>
rbdock ($Id: //depot/dev/client3/rdock/2013.1/src/exe/rbdock.cxx#4 $)

>  <Rbt.Library>
libRbt.so (2013.1, Build901 2013/11/27)

>  <Rbt.Parameter_File>
/export/apps/rDock/src/rDock_2013.1_src/data/scripts/dock_solv.prm

>  <Rbt.Receptor>
prm/pocket_docking_2.prm

>  <SCORE>
-13.4172

>  <SCORE.INTER>
-9.99599

>  <SCORE.INTER.CONST>
1

>  <SCORE.INTER.POLAR>
-1.64437

>  <SCORE.INTER.ROT>
13

>  <SCORE.INTER.SOLV>
16.1744

>  <SCORE.INTER.VDW>
-18.8409

>  <SCORE.INTER.norm>
-0.2856

>  <SCORE.INTRA>
-3.42205

>  <SCORE.INTRA.DIHEDRAL>
-12.6721

>  <SCORE.INTRA.DIHEDRAL.0>
23.8882

>  <SCORE.INTRA.POLAR>
0

>  <SCORE.INTRA.POLAR.0>
0

>  <SCORE.INTRA.REPUL>
0

>  <SCORE.INTRA.REPUL.0>
0

>  <SCORE.INTRA.SOLV>
4.2056

>  <SCORE.INTRA.SOLV.lig_0>
-97.6888

>  <SCORE.INTRA.VDW>
0.811203

>  <SCORE.INTRA.VDW.0>
-3.9206

>  <SCORE.INTRA.norm>
-0.0977729

>  <SCORE.RESTR>
0.000881108

>  <SCORE.RESTR.CAVITY>
0.000881108

>  <SCORE.RESTR.norm>
2.51745e-05

>  <SCORE.SYSTEM>
0

>  <SCORE.SYSTEM.CONST>
0

>  <SCORE.SYSTEM.DIHEDRAL>
0

>  <SCORE.SYSTEM.SOLV>
0

>  <SCORE.SYSTEM.norm>
0

>  <SCORE.heavy>
35

>  <SCORE.norm>
-0.383347

>  <RMSD>
0.988

$$$$
2f4t_lig
 OpenBabel11021811433D
libRbt.so/2013.1/901 2013/11/27
 35 36  0  0  0  0  0  0  0  0999 V2000
    2.8893   -5.4544   25.6947 C   0  0  2  0  0  0  0  0  0  0  0  0
    2.3833   -6.1906   26.8563 O   0  0  0  0  0  0  0  0  0  0  0  0
    3.5395   -9.5893   29.2583 C   0  0  2  0  0  0  0  0  0  0  0  0
    4.0012  -10.9404   29.6103 N   0  0  0  0  0  0  0  0  0  0  0  0
    2.2408   -4.0391   25.7722 C   0  0  2  0  0  0  0  0  0  0  0  0
    2.5439   -3.4081   27.0353 N   0  0  0  0  0  0  0  0  0  0  0  0
    2.3536   -9.6973   28.2309 C   0  0  0  0  0  0  0  0  0  0  0  0
    3.5971  -11.2826   31.2950 C   0  0  0  0  0  0  0  0  0  0  0  0
    4.2376  -12.6331   31.0624 C   0  0  1  0  0  0  0  0  0  0  0  0
    4.5634  -13.2316   32.4326 C   0  0  0  0  0  0  0  0  0  0  0  0
    3.3550  -13.5065   33.3434 C   0  0  0  0  0  0  0  0  0  0  0  0
    3.8419  -14.1042   34.5903 N   0  0  0  0  0  0  0  0  0  0  0  0
    3.3322  -13.5209   30.4605 O   0  0  0  0  0  0  0  0  0  0  0  0
    7.0675   -8.3897   29.9793 C   0  0  0  0  0  0  0  0  0  0  0  0
    7.0856   -8.5129   31.4952 C   0  0  0  0  0  0  0  0  0  0  0  0
    0.6920   -4.1451   25.5659 C   0  0  1  0  0  0  0  0  0  0  0  0
    6.1865   -7.5562   32.1769 N   0  0  0  0  0  0  0  0  0  0  0  0
    0.0841   -2.8696   25.6279 O   0  0  0  0  0  0  0  0  0  0  0  0
    1.8308   -8.3158   27.8130 C   0  0  2  0  0  0  0  0  0  0  0  0
    0.7594   -8.4411   26.8298 N   0  0  0  0  0  0  0  0  0  0  0  0
    6.7584   -5.4608   33.4072 C   0  0  0  0  0  0  0  0  0  0  0  0
    7.9183   -5.0399   32.4483 N   0  0  0  0  0  0  0  0  0  0  0  0
    6.5585   -7.0018   33.5094 C   0  0  0  0  0  0  0  0  0  0  0  0
    3.1152  -10.7371   32.0756 O   0  0  0  0  0  0  0  0  0  0  0  0
    0.4379   -4.8013   24.2048 C   0  0  2  0  0  0  0  0  0  0  0  0
   -0.9523   -4.9167   23.9482 O   0  0  0  0  0  0  0  0  0  0  0  0
    2.9452   -7.4871   27.2244 C   0  0  2  0  0  0  0  0  0  0  0  0
    1.1147   -6.2015   24.1564 C   0  0  2  0  0  0  0  0  0  0  0  0
    2.5312   -6.1032   24.4124 O   0  0  0  0  0  0  0  0  0  0  0  0
    4.1344   -7.3474   28.2691 C   0  0  2  0  0  0  0  0  0  0  0  0
    5.1888   -6.5367   27.6691 O   0  0  0  0  0  0  0  0  0  0  0  0
    0.9211   -6.8656   22.8455 C   0  0  0  0  0  0  0  0  0  0  0  0
    0.4998   -5.9570   21.9386 N   0  0  0  0  0  0  0  0  0  0  0  0
    4.6751   -8.7781   28.6151 C   0  0  1  0  0  0  0  0  0  0  0  0
    5.7387   -8.6880   29.5086 O   0  0  0  0  0  0  0  0  0  0  0  0
  1  2  1  1  0  0  0
  1  5  1  0  0  0  0
  1 29  1  0  0  0  0
  3  4  1  6  0  0  0
  3  7  1  0  0  0  0
  3 34  1  0  0  0  0
  5  6  1  1  0  0  0
  5 16  1  0  0  0  0
  7 19  1  0  0  0  0
  8  4  1  0  0  0  0
  8 24  2  0  0  0  0
  9  8  1  1  0  0  0
  9 10  1  0  0  0  0
  9 13  1  0  0  0  0
 10 11  1  0  0  0  0
 11 12  1  0  0  0  0
 14 15  1  0  0  0  0
 14 35  1  0  0  0  0
 15 17  1  0  0  0  0
 16 18  1  6  0  0  0
 16 25  1  0  0  0  0
 19 20  1  6  0  0  0
 19 27  1  0  0  0  0
 21 22  1  0  0  0  0
 21 23  1  0  0  0  0
 23 17  1  0  0  0  0
 25 26  1  1  0  0  0
 25 28  1  0  0  0  0
 27  2  1  1  0  0  0
 27 30  1  0  0  0  0
 28 29  1  0  0  0  0
 28 32  1  6  0  0  0
 30 31  1  6  0  0  0
 30 34  1  0  0  0  0
 32 33  2  0  0  0  0
 34 35  1  1  0  0  0
M  END
>  <CHROM.1>
-170.18730503,-111.56008587,161.62483111,62.65432959,178.61214505,-62.29142955
168.73343749,-146.78020955,-62.27724033,116.32282754,-146.90825101,15.06618801
170.71100033,3.37511503,-7.92591633,28.55564078,-2.16153686,0.83132793,2.67923715

>  <Name>
2f4t_lig

>  <RI>
0

>  <Rbt.Current_Directory>
/home/itssahil/PROJECTS/Mol_Feturizer/New_Systems/rnas/2f4t

>  <Rbt.Executable>
rbdock ($Id: //depot/dev/client3/rdock/2013.1/src/exe/rbdock.cxx#4 $)

>  <Rbt.Library>
libRbt.so (2013.1, Build901 2013/11/27)

>  <Rbt.Parameter_File>
/export/apps/rDock/src/rDock_2013.1_src/data/scripts/dock_solv.prm

>  <Rbt.Receptor>
prm/pocket_docking_2.prm

>  <SCORE>
-17.2957

>  <SCORE.INTER>
-13.7849

>  <SCORE.INTER.CONST>
1

>  <SCORE.INTER.POLAR>
-0.938083

>  <SCORE.INTER.ROT>
13

>  <SCORE.INTER.SOLV>
14.7512

>  <SCORE.INTER.VDW>
-23.2467

>  <SCORE.INTER.norm>
-0.393854

>  <SCORE.INTRA>
-3.52802

>  <SCORE.INTRA.DIHEDRAL>
-13.0475

>  <SCORE.INTRA.DIHEDRAL.0>
23.8882

>  <SCORE.INTRA.POLAR>
0

>  <SCORE.INTRA.POLAR.0>
0

>  <SCORE.INTRA.REPUL>
0

>  <SCORE.INTRA.REPUL.0>
0

>  <SCORE.INTRA.SOLV>
3.02443

>  <SCORE.INTRA.SOLV.lig_0>
-97.6888

>  <SCORE.INTRA.VDW>
1.48351

>  <SCORE.INTRA.VDW.0>
-3.9206

>  <SCORE.INTRA.norm>
-0.100801

>  <SCORE.RESTR>
0.0171907

>  <SCORE.RESTR.CAVITY>
0.0171907

>  <SCORE.RESTR.norm>
0.000491163

>  <SCORE.SYSTEM>
0

>  <SCORE.SYSTEM.CONST>
0

>  <SCORE.SYSTEM.DIHEDRAL>
0

>  <SCORE.SYSTEM.SOLV>
0

>  <SCORE.SYSTEM.norm>
0

>  <SCORE.heavy>
35

>  <SCORE.norm>
-0.494163

>  <RMSD>
0.989

$$$$
2f4t_lig
 OpenBabel11021811433D
libRbt.so/2013.1/901 2013/11/27
 35 36  0  0  0  0  0  0  0  0999 V2000
    2.8698   -5.4351   25.6924 C   0  0  2  0  0  0  0  0  0  0  0  0
    2.2173   -6.2689   26.7053 O   0  0  0  0  0  0  0  0  0  0  0  0
    3.3643   -9.7302   29.0208 C   0  0  2  0  0  0  0  0  0  0  0  0
    3.7800  -11.1043   29.3397 N   0  0  0  0  0  0  0  0  0  0  0  0
    2.3009   -3.9978   25.8932 C   0  0  2  0  0  0  0  0  0  0  0  0
    2.5234   -3.5462   27.2467 N   0  0  0  0  0  0  0  0  0  0  0  0
    2.1052   -9.7742   28.0793 C   0  0  0  0  0  0  0  0  0  0  0  0
    3.6083  -11.3858   31.0746 C   0  0  0  0  0  0  0  0  0  0  0  0
    4.1137  -12.7827   30.7892 C   0  0  1  0  0  0  0  0  0  0  0  0
    4.4854  -13.4219   32.1291 C   0  0  0  0  0  0  0  0  0  0  0  0
    3.3204  -13.6375   33.1097 C   0  0  0  0  0  0  0  0  0  0  0  0
    3.8457  -14.2805   34.3180 N   0  0  0  0  0  0  0  0  0  0  0  0
    3.0954  -13.5844   30.2502 O   0  0  0  0  0  0  0  0  0  0  0  0
    6.7272   -9.4485   29.8852 C   0  0  0  0  0  0  0  0  0  0  0  0
    7.4954   -8.2701   30.4637 C   0  0  0  0  0  0  0  0  0  0  0  0
    0.7741   -3.9704   25.5462 C   0  0  1  0  0  0  0  0  0  0  0  0
    6.7831   -7.5823   31.5628 N   0  0  0  0  0  0  0  0  0  0  0  0
    0.2387   -2.6725   25.7176 O   0  0  0  0  0  0  0  0  0  0  0  0
    1.6256   -8.3665   27.6989 C   0  0  2  0  0  0  0  0  0  0  0  0
    0.4828   -8.4338   26.7934 N   0  0  0  0  0  0  0  0  0  0  0  0
    6.4776   -5.8590   33.3428 C   0  0  0  0  0  0  0  0  0  0  0  0
    7.0866   -4.6545   34.1302 N   0  0  0  0  0  0  0  0  0  0  0  0
    7.4842   -6.5468   32.3738 C   0  0  0  0  0  0  0  0  0  0  0  0
    3.2861  -10.7930   31.9016 O   0  0  0  0  0  0  0  0  0  0  0  0
    0.6077   -4.4385   24.0968 C   0  0  2  0  0  0  0  0  0  0  0  0
   -0.7575   -4.4254   23.7122 O   0  0  0  0  0  0  0  0  0  0  0  0
    2.7367   -7.5935   27.0333 C   0  0  2  0  0  0  0  0  0  0  0  0
    1.2030   -5.8663   23.9290 C   0  0  2  0  0  0  0  0  0  0  0  0
    2.5933   -5.8982   24.3130 O   0  0  0  0  0  0  0  0  0  0  0  0
    4.0018   -7.5181   27.9918 C   0  0  2  0  0  0  0  0  0  0  0  0
    5.0516   -6.7600   27.3191 O   0  0  0  0  0  0  0  0  0  0  0  0
    1.0918   -6.3526   22.5333 C   0  0  0  0  0  0  0  0  0  0  0  0
    0.4218   -7.5258   22.5174 N   0  0  0  0  0  0  0  0  0  0  0  0
    4.4919   -8.9757   28.2993 C   0  0  1  0  0  0  0  0  0  0  0  0
    5.6188   -8.9429   29.1159 O   0  0  0  0  0  0  0  0  0  0  0  0
  1  2  1  1  0  0  0
  1  5  1  0  0  0  0
  1 29  1  0  0  0  0
  3  4  1  6  0  0  0
  3  7  1  0  0  0  0
  3 34  1  0  0  0  0
  5  6  1  1  0  0  0
  5 16  1  0  0  0  0
  7 19  1  0  0  0  0
  8  4  1  0  0  0  0
  8 24  2  0  0  0  0
  9  8  1  1  0  0  0
  9 10  1  0  0  0  0
  9 13  1  0  0  0  0
 10 11  1  0  0  0  0
 11 12  1  0  0  0  0
 14 15  1  0  0  0  0
 14 35  1  0  0  0  0
 15 17  1  0  0  0  0
 16 18  1  6  0  0  0
 16 25  1  0  0  0  0
 19 20  1  6  0  0  0
 19 27  1  0  0  0  0
 21 22  1  0  0  0  0
 21 23  1  0  0  0  0
 23 17  1  0  0  0  0
 25 26  1  1  0  0  0
 25 28  1  0  0  0  0
 27  2  1  1  0  0  0
 27 30  1  0  0  0  0
 28 29  1  0  0  0  0
 28 32  1  6  0  0  0
 30 31  1  6  0  0  0
 30 34  1  0  0  0  0
 32 33  2  0  0  0  0
 34 35  1  1  0  0  0
M  END
>  <CHROM.1>
-164.91411779,-116.39006118,166.41174376,64.17244934,178.75786032,72.26032874
178.35787491,170.54671005,-173.93617311,173.22797838,-160.17486570,-123.58726048
62.12311949,3.34679145,-7.98545977,28.39952176,-2.17850634,0.86536735,2.74053875

>  <Name>
2f4t_lig

>  <RI>
0

>  <Rbt.Current_Directory>
/home/itssahil/PROJECTS/Mol_Feturizer/New_Systems/rnas/2f4t

>  <Rbt.Executable>
rbdock ($Id: //depot/dev/client3/rdock/2013.1/src/exe/rbdock.cxx#4 $)

>  <Rbt.Library>
libRbt.so (2013.1, Build901 2013/11/27)

>  <Rbt.Parameter_File>
/export/apps/rDock/src/rDock_2013.1_src/data/scripts/dock_solv.prm

>  <Rbt.Receptor>
prm/pocket_docking_2.prm

>  <SCORE>
-22.3876

>  <SCORE.INTER>
-13.853

>  <SCORE.INTER.CONST>
1

>  <SCORE.INTER.POLAR>
-0.938083

>  <SCORE.INTER.ROT>
13

>  <SCORE.INTER.SOLV>
18.4001

>  <SCORE.INTER.VDW>
-24.5084

>  <SCORE.INTER.norm>
-0.395801

>  <SCORE.INTRA>
-8.5346

>  <SCORE.INTRA.DIHEDRAL>
-17.1421

>  <SCORE.INTRA.DIHEDRAL.0>
23.8882

>  <SCORE.INTRA.POLAR>
0

>  <SCORE.INTRA.POLAR.0>
0

>  <SCORE.INTRA.REPUL>
0

>  <SCORE.INTRA.REPUL.0>
0

>  <SCORE.INTRA.SOLV>
-0.120972

>  <SCORE.INTRA.SOLV.lig_0>
-97.6888

>  <SCORE.INTRA.VDW>
0.0969221

>  <SCORE.INTRA.VDW.0>
-3.9206

>  <SCORE.INTRA.norm>
-0.243846

>  <SCORE.RESTR>
0

>  <SCORE.RESTR.CAVITY>
0

>  <SCORE.RESTR.norm>
0

>  <SCORE.SYSTEM>
0

>  <SCORE.SYSTEM.CONST>
0

>  <SCORE.SYSTEM.DIHEDRAL>
0

>  <SCORE.SYSTEM.SOLV>
0

>  <SCORE.SYSTEM.norm>
0

>  <SCORE.heavy>
35

>  <SCORE.norm>
-0.639646

>  <RMSD>
0.999

$$$$
2f4t_lig
 OpenBabel11021811433D
libRbt.so/2013.1/901 2013/11/27
 35 36  0  0  0  0  0  0  0  0999 V2000
    2.9000   -5.6467   25.8795 C   0  0  2  0  0  0  0  0  0  0  0  0
    2.2951   -6.4020   26.9799 O   0  0  0  0  0  0  0  0  0  0  0  0
    4.0824   -9.0323   29.9029 C   0  0  2  0  0  0  0  0  0  0  0  0
    4.6612  -10.2449   30.5008 N   0  0  0  0  0  0  0  0  0  0  0  0
    2.6118   -4.1456   26.1845 C   0  0  2  0  0  0  0  0  0  0  0  0
    3.1222   -3.7828   27.4858 N   0  0  0  0  0  0  0  0  0  0  0  0
    2.7030   -9.3896   29.2372 C   0  0  0  0  0  0  0  0  0  0  0  0
    3.5697  -10.8715   31.7397 C   0  0  0  0  0  0  0  0  0  0  0  0
    4.5922  -11.9695   31.9328 C   0  0  1  0  0  0  0  0  0  0  0  0
    4.1285  -12.8302   33.1102 C   0  0  0  0  0  0  0  0  0  0  0  0
    4.0394  -14.3408   32.8361 C   0  0  0  0  0  0  0  0  0  0  0  0
    2.9109  -14.5813   31.9319 N   0  0  0  0  0  0  0  0  0  0  0  0
    4.6256  -12.8253   30.8207 O   0  0  0  0  0  0  0  0  0  0  0  0
    7.1811   -7.5645   30.3224 C   0  0  0  0  0  0  0  0  0  0  0  0
    7.1025   -6.0509   30.1944 C   0  0  0  0  0  0  0  0  0  0  0  0
    1.0737   -3.8646   26.0970 C   0  0  1  0  0  0  0  0  0  0  0  0
    6.6103   -5.3790   31.4171 N   0  0  0  0  0  0  0  0  0  0  0  0
    0.7908   -2.5052   26.3661 O   0  0  0  0  0  0  0  0  0  0  0  0
    2.0490   -8.1646   28.5830 C   0  0  2  0  0  0  0  0  0  0  0  0
    0.7917   -8.5292   27.9377 N   0  0  0  0  0  0  0  0  0  0  0  0
    6.8481   -4.7782   33.8283 C   0  0  0  0  0  0  0  0  0  0  0  0
    5.9174   -3.5260   33.9154 N   0  0  0  0  0  0  0  0  0  0  0  0
    7.5746   -4.9243   32.4585 C   0  0  0  0  0  0  0  0  0  0  0  0
    2.6248  -10.5652   32.1302 O   0  0  0  0  0  0  0  0  0  0  0  0
    0.5997   -4.2492   24.6917 C   0  0  2  0  0  0  0  0  0  0  0  0
   -0.7896   -4.0066   24.5400 O   0  0  0  0  0  0  0  0  0  0  0  0
    2.9730   -7.5601   27.5555 C   0  0  2  0  0  0  0  0  0  0  0  0
    0.9204   -5.7464   24.4149 C   0  0  2  0  0  0  0  0  0  0  0  0
    2.3310   -6.0114   24.5617 O   0  0  0  0  0  0  0  0  0  0  0  0
    4.3582   -7.1677   28.2280 C   0  0  2  0  0  0  0  0  0  0  0  0
    5.2220   -6.5821   27.2082 O   0  0  0  0  0  0  0  0  0  0  0  0
    0.5059   -6.1594   23.0532 C   0  0  0  0  0  0  0  0  0  0  0  0
    0.8660   -7.4448   22.8436 N   0  0  0  0  0  0  0  0  0  0  0  0
    5.0157   -8.4604   28.8245 C   0  0  1  0  0  0  0  0  0  0  0  0
    6.2469   -8.1542   29.3974 O   0  0  0  0  0  0  0  0  0  0  0  0
  1  2  1  1  0  0  0
  1  5  1  0  0  0  0
  1 29  1  0  0  0  0
  3  4  1  6  0  0  0
  3  7  1  0  0  0  0
  3 34  1  0  0  0  0
  5  6  1  1  0  0  0
  5 16  1  0  0  0  0
  7 19  1  0  0  0  0
  8  4  1  0  0  0  0
  8 24  2  0  0  0  0
  9  8  1  6  0  0  0
  9 10  1  0  0  0  0
  9 13  1  0  0  0  0
 10 11  1  0  0  0  0
 11 12  1  0  0  0  0
 14 15  1  0  0  0  0
 14 35  1  0  0  0  0
 15 17  1  0  0  0  0
 16 18  1  6  0  0  0
 16 25  1  0  0  0  0
 19 20  1  6  0  0  0
 19 27  1  0  0  0  0
 21 22  1  0  0  0  0
 21 23  1  0  0  0  0
 23 17  1  0  0  0  0
 25 26  1  1  0  0  0
 25 28  1  0  0  0  0
 27  2  1  1  0  0  0
 27 30  1  0  0  0  0
 28 29  1  0  0  0  0
 28 32  1  6  0  0  0
 30 31  1  6  0  0  0
 30 34  1  0  0  0  0
 32 33  2  0  0  0  0
 34 35  1  1  0  0  0
M  END
>  <CHROM.1>
-139.99410584,-60.64839807,175.29291399,127.27591279,-70.49149581,115.42926240
-63.46094455,90.81068503,-73.86240928,-157.89026209,-175.84215555,177.01288128
-53.27992638,3.51798777,-7.51761134,28.77027405,2.16669752,-0.87466335,-0.38367101

>  <Name>
2f4t_lig

>  <RI>
0

>  <Rbt.Current_Directory>
/home/itssahil/PROJECTS/Mol_Feturizer/New_Systems/rnas/2f4t

>  <Rbt.Executable>
rbdock ($Id: //depot/dev/client3/rdock/2013.1/src/exe/rbdock.cxx#4 $)

>  <Rbt.Library>
libRbt.so (2013.1, Build901 2013/11/27)

>  <Rbt.Parameter_File>
/export/apps/rDock/src/rDock_2013.1_src/data/scripts/dock_solv.prm

>  <Rbt.Receptor>
prm/pocket_docking_2.prm

>  <SCORE>
-9.77954

>  <SCORE.INTER>
-12.8875

>  <SCORE.INTER.CONST>
1

>  <SCORE.INTER.POLAR>
-1.58113

>  <SCORE.INTER.ROT>
13

>  <SCORE.INTER.SOLV>
12.3811

>  <SCORE.INTER.VDW>
-19.715

>  <SCORE.INTER.norm>
-0.368216

>  <SCORE.INTRA>
2.82034

>  <SCORE.INTRA.DIHEDRAL>
-2.96458

>  <SCORE.INTRA.DIHEDRAL.0>
23.8882

>  <SCORE.INTRA.POLAR>
0

>  <SCORE.INTRA.POLAR.0>
0

>  <SCORE.INTRA.REPUL>
0

>  <SCORE.INTRA.REPUL.0>
0

>  <SCORE.INTRA.SOLV>
3.33112

>  <SCORE.INTRA.SOLV.lig_0>
-97.6888

>  <SCORE.INTRA.VDW>
2.63706

>  <SCORE.INTRA.VDW.0>
-3.9206

>  <SCORE.INTRA.norm>
0.080581

>  <SCORE.RESTR>
0.287678

>  <SCORE.RESTR.CAVITY>
0.287678

>  <SCORE.RESTR.norm>
0.00821937

>  <SCORE.SYSTEM>
0

>  <SCORE.SYSTEM.CONST>
0

>  <SCORE.SYSTEM.DIHEDRAL>
0

>  <SCORE.SYSTEM.SOLV>
0

>  <SCORE.SYSTEM.norm>
0

>  <SCORE.heavy>
35

>  <SCORE.norm>
-0.279415

>  <RMSD>
1.005

$$$$
2f4t_lig
 OpenBabel11021811433D
libRbt.so/2013.1/901 2013/11/27
 35 36  0  0  0  0  0  0  0  0999 V2000
    2.7647   -5.4306   25.7940 C   0  0  2  0  0  0  0  0  0  0  0  0
    2.1905   -6.2634   26.8542 O   0  0  0  0  0  0  0  0  0  0  0  0
    3.9001   -9.2509   29.4636 C   0  0  2  0  0  0  0  0  0  0  0  0
    4.4714  -10.5287   29.9147 N   0  0  0  0  0  0  0  0  0  0  0  0
    2.0451   -4.0519   25.8990 C   0  0  2  0  0  0  0  0  0  0  0  0
    2.2014   -3.4949   27.2221 N   0  0  0  0  0  0  0  0  0  0  0  0
    2.5514   -9.5253   28.7026 C   0  0  0  0  0  0  0  0  0  0  0  0
    3.7234  -11.0037   31.4424 C   0  0  0  0  0  0  0  0  0  0  0  0
    4.6102  -12.2272   31.3727 C   0  0  1  0  0  0  0  0  0  0  0  0
    4.6532  -12.8464   32.7715 C   0  0  0  0  0  0  0  0  0  0  0  0
    3.3191  -13.4061   33.2931 C   0  0  0  0  0  0  0  0  0  0  0  0
    3.5592  -14.0369   34.5945 N   0  0  0  0  0  0  0  0  0  0  0  0
    4.0504  -13.2056   30.5362 O   0  0  0  0  0  0  0  0  0  0  0  0
    7.2684   -8.5948   29.9088 C   0  0  0  0  0  0  0  0  0  0  0  0
    6.9118   -8.7012   31.3836 C   0  0  0  0  0  0  0  0  0  0  0  0
    0.5285   -4.2081   25.5415 C   0  0  1  0  0  0  0  0  0  0  0  0
    6.9385   -7.4035   32.0934 N   0  0  0  0  0  0  0  0  0  0  0  0
   -0.1426   -2.9660   25.6262 O   0  0  0  0  0  0  0  0  0  0  0  0
    1.9068   -8.2281   28.1944 C   0  0  2  0  0  0  0  0  0  0  0  0
    0.6793   -8.5117   27.4574 N   0  0  0  0  0  0  0  0  0  0  0  0
    5.8152   -5.3744   33.0166 C   0  0  0  0  0  0  0  0  0  0  0  0
    7.0770   -4.4583   33.1199 N   0  0  0  0  0  0  0  0  0  0  0  0
    5.8746   -6.3913   31.8386 C   0  0  0  0  0  0  0  0  0  0  0  0
    2.9821  -10.5744   32.0790 O   0  0  0  0  0  0  0  0  0  0  0  0
    0.4310   -4.7816   24.1240 C   0  0  2  0  0  0  0  0  0  0  0  0
   -0.9229   -4.9372   23.7310 O   0  0  0  0  0  0  0  0  0  0  0  0
    2.8610   -7.4835   27.2944 C   0  0  2  0  0  0  0  0  0  0  0  0
    1.1754   -6.1460   24.0516 C   0  0  2  0  0  0  0  0  0  0  0  0
    2.5563   -6.0063   24.4455 O   0  0  0  0  0  0  0  0  0  0  0  0
    4.2149   -7.1751   28.0670 C   0  0  2  0  0  0  0  0  0  0  0  0
    5.1088   -6.4507   27.1698 O   0  0  0  0  0  0  0  0  0  0  0  0
    1.1340   -6.7283   22.6892 C   0  0  0  0  0  0  0  0  0  0  0  0
    0.3182   -5.9871   21.9076 N   0  0  0  0  0  0  0  0  0  0  0  0
    4.8659   -8.5315   28.5091 C   0  0  1  0  0  0  0  0  0  0  0  0
    6.0707   -8.2963   29.1656 O   0  0  0  0  0  0  0  0  0  0  0  0
  1  2  1  1  0  0  0
  1  5  1  0  0  0  0
  1 29  1  0  0  0  0
  3  4  1  6  0  0  0
  3  7  1  0  0  0  0
  3 34  1  0  0  0  0
  5  6  1  1  0  0  0
  5 16  1  0  0  0  0
  7 19  1  0  0  0  0
  8  4  1  0  0  0  0
  8 24  2  0  0  0  0
  9  8  1  1  0  0  0
  9 10  1  0  0  0  0
  9 13  1  0  0  0  0
 10 11  1  0  0  0  0
 11 12  1  0  0  0  0
 14 15  1  0  0  0  0
 14 35  1  0  0  0  0
 15 17  1  0  0  0  0
 16 18  1  6  0  0  0
 16 25  1  0  0  0  0
 19 20  1  6  0  0  0
 19 27  1  0  0  0  0
 21 22  1  0  0  0  0
 21 23  1  0  0  0  0
 23 17  1  0  0  0  0
 25 26  1  1  0  0  0
 25 28  1  0  0  0  0
 27  2  1  1  0  0  0
 27 30  1  0  0  0  0
 28 29  1  0  0  0  0
 28 32  1  6  0  0  0
 30 31  1  6  0  0  0
 30 34  1  0  0  0  0
 32 33  2  0  0  0  0
 34 35  1  1  0  0  0
M  END
>  <CHROM.1>
-163.24777800,-83.41803134,162.87754170,65.21004200,176.20412003,-86.89946677
-81.19329993,71.93546646,67.68647627,159.90979936,-169.76905356,-7.28344162
55.17686601,3.36133663,-7.79711011,28.54759253,-2.17556999,0.84117097,2.69315020

>  <Name>
2f4t_lig

>  <RI>
0

>  <Rbt.Current_Directory>
/home/itssahil/PROJECTS/Mol_Feturizer/New_Systems/rnas/2f4t

>  <Rbt.Executable>
rbdock ($Id: //depot/dev/client3/rdock/2013.1/src/exe/rbdock.cxx#4 $)

>  <Rbt.Library>
libRbt.so (2013.1, Build901 2013/11/27)

>  <Rbt.Parameter_File>
/export/apps/rDock/src/rDock_2013.1_src/data/scripts/dock_solv.prm

>  <Rbt.Receptor>
prm/pocket_docking_2.prm

>  <SCORE>
-15.5297

>  <SCORE.INTER>
-11.5204

>  <SCORE.INTER.CONST>
1

>  <SCORE.INTER.POLAR>
-0.938083

>  <SCORE.INTER.ROT>
13

>  <SCORE.INTER.SOLV>
15.1817

>  <SCORE.INTER.VDW>
-21.8805

>  <SCORE.INTER.norm>
-0.329153

>  <SCORE.INTRA>
-4.03289

>  <SCORE.INTRA.DIHEDRAL>
-14.5045

>  <SCORE.INTRA.DIHEDRAL.0>
23.8882

>  <SCORE.INTRA.POLAR>
0

>  <SCORE.INTRA.POLAR.0>
0

>  <SCORE.INTRA.REPUL>
0

>  <SCORE.INTRA.REPUL.0>
0

>  <SCORE.INTRA.SOLV>
1.06247

>  <SCORE.INTRA.SOLV.lig_0>
-97.6888

>  <SCORE.INTRA.VDW>
2.68812

>  <SCORE.INTRA.VDW.0>
-3.9206

>  <SCORE.INTRA.norm>
-0.115226

>  <SCORE.RESTR>
0.0235881

>  <SCORE.RESTR.CAVITY>
0.0235881

>  <SCORE.RESTR.norm>
0.000673946

>  <SCORE.SYSTEM>
0

>  <SCORE.SYSTEM.CONST>
0

>  <SCORE.SYSTEM.DIHEDRAL>
0

>  <SCORE.SYSTEM.SOLV>
0

>  <SCORE.SYSTEM.norm>
0

>  <SCORE.heavy>
35

>  <SCORE.norm>
-0.443705

>  <RMSD>
1.012

$$$$
2f4t_lig
 OpenBabel11021811433D
libRbt.so/2013.1/901 2013/11/27
 35 36  0  0  0  0  0  0  0  0999 V2000
    2.7359   -5.5680   25.6735 C   0  0  2  0  0  0  0  0  0  0  0  0
    2.0815   -6.4063   26.6817 O   0  0  0  0  0  0  0  0  0  0  0  0
    3.5058   -9.5786   29.2440 C   0  0  2  0  0  0  0  0  0  0  0  0
    3.9970  -10.8985   29.6673 N   0  0  0  0  0  0  0  0  0  0  0  0
    2.1023   -4.1516   25.8214 C   0  0  2  0  0  0  0  0  0  0  0  0
    2.2574   -3.6623   27.1713 N   0  0  0  0  0  0  0  0  0  0  0  0
    2.1974   -9.7609   28.3905 C   0  0  0  0  0  0  0  0  0  0  0  0
    3.5049  -11.2048   31.3355 C   0  0  0  0  0  0  0  0  0  0  0  0
    4.2099  -12.5348   31.1861 C   0  0  1  0  0  0  0  0  0  0  0  0
    4.8656  -12.8631   32.5293 C   0  0  0  0  0  0  0  0  0  0  0  0
    5.3900  -14.3009   32.6804 C   0  0  0  0  0  0  0  0  0  0  0  0
    4.2660  -15.1673   33.0479 N   0  0  0  0  0  0  0  0  0  0  0  0
    3.2892  -13.5665   30.9453 O   0  0  0  0  0  0  0  0  0  0  0  0
    6.8955   -9.0907   29.8725 C   0  0  0  0  0  0  0  0  0  0  0  0
    7.5408   -7.8391   30.4473 C   0  0  0  0  0  0  0  0  0  0  0  0
    0.5892   -4.1946   25.4204 C   0  0  1  0  0  0  0  0  0  0  0  0
    6.7732   -7.2352   31.5584 N   0  0  0  0  0  0  0  0  0  0  0  0
   -0.0042   -2.9166   25.5432 O   0  0  0  0  0  0  0  0  0  0  0  0
    1.6375   -8.4159   27.9068 C   0  0  2  0  0  0  0  0  0  0  0  0
    0.4481   -8.6137   27.0843 N   0  0  0  0  0  0  0  0  0  0  0  0
    6.7874   -5.3996   33.2501 C   0  0  0  0  0  0  0  0  0  0  0  0
    5.2918   -5.6041   33.6540 N   0  0  0  0  0  0  0  0  0  0  0  0
    7.4853   -6.7002   32.7535 C   0  0  0  0  0  0  0  0  0  0  0  0
    2.9560  -10.6555   32.0676 O   0  0  0  0  0  0  0  0  0  0  0  0
    0.4943   -4.7000   23.9771 C   0  0  2  0  0  0  0  0  0  0  0  0
   -0.8555   -4.7515   23.5445 O   0  0  0  0  0  0  0  0  0  0  0  0
    2.6746   -7.6723   27.1029 C   0  0  2  0  0  0  0  0  0  0  0  0
    1.1526   -6.1053   23.8629 C   0  0  2  0  0  0  0  0  0  0  0  0
    2.5283   -6.0715   24.2963 O   0  0  0  0  0  0  0  0  0  0  0  0
    3.9887   -7.4568   27.9698 C   0  0  2  0  0  0  0  0  0  0  0  0
    4.9648   -6.7310   27.1639 O   0  0  0  0  0  0  0  0  0  0  0  0
    1.1117   -6.6254   22.4756 C   0  0  0  0  0  0  0  0  0  0  0  0
    0.8674   -7.9541   22.5001 N   0  0  0  0  0  0  0  0  0  0  0  0
    4.5569   -8.8582   28.3852 C   0  0  1  0  0  0  0  0  0  0  0  0
    5.7267   -8.7041   29.1237 O   0  0  0  0  0  0  0  0  0  0  0  0
  1  2  1  1  0  0  0
  1  5  1  0  0  0  0
  1 29  1  0  0  0  0
  3  4  1  6  0  0  0
  3  7  1  0  0  0  0
  3 34  1  0  0  0  0
  5  6  1  1  0  0  0
  5 16  1  0  0  0  0
  7 19  1  0  0  0  0
  8  4  1  0  0  0  0
  8 24  2  0  0  0  0
  9  8  1  1  0  0  0
  9 10  1  0  0  0  0
  9 13  1  0  0  0  0
 10 11  1  0  0  0  0
 11 12  1  0  0  0  0
 14 15  1  0  0  0  0
 14 35  1  0  0  0  0
 15 17  1  0  0  0  0
 16 18  1  6  0  0  0
 16 25  1  0  0  0  0
 19 20  1  6  0  0  0
 19 27  1  0  0  0  0
 21 22  1  0  0  0  0
 21 23  1  0  0  0  0
 23 17  1  0  0  0  0
 25 26  1  1  0  0  0
 25 28  1  0  0  0  0
 27  2  1  1  0  0  0
 27 30  1  0  0  0  0
 28 29  1  0  0  0  0
 28 32  1  6  0  0  0
 30 31  1  6  0  0  0
 30 34  1  0  0  0  0
 32 33  2  0  0  0  0
 34 35  1  1  0  0  0
M  END
>  <CHROM.1>
-162.05731026,-99.72663590,143.88327399,167.99273470,-82.04787644,72.03057033
-173.58480569,139.23936318,59.69551238,142.10543566,-168.17178811,-141.64143539
61.59326563,3.37003389,-8.04649751,28.41043743,-2.24880224,0.88622811,2.80626654

>  <Name>
2f4t_lig

>  <RI>
0

>  <Rbt.Current_Directory>
/home/itssahil/PROJECTS/Mol_Feturizer/New_Systems/rnas/2f4t

>  <Rbt.Executable>
rbdock ($Id: //depot/dev/client3/rdock/2013.1/src/exe/rbdock.cxx#4 $)

>  <Rbt.Library>
libRbt.so (2013.1, Build901 2013/11/27)

>  <Rbt.Parameter_File>
/export/apps/rDock/src/rDock_2013.1_src/data/scripts/dock_solv.prm

>  <Rbt.Receptor>
prm/pocket_docking_2.prm

>  <SCORE>
-20.8656

>  <SCORE.INTER>
-15.201

>  <SCORE.INTER.CONST>
1

>  <SCORE.INTER.POLAR>
-0.938083

>  <SCORE.INTER.ROT>
13

>  <SCORE.INTER.SOLV>
16.2377

>  <SCORE.INTER.VDW>
-24.6863

>  <SCORE.INTER.norm>
-0.434314

>  <SCORE.INTRA>
-5.72914

>  <SCORE.INTRA.DIHEDRAL>
-13.1553

>  <SCORE.INTRA.DIHEDRAL.0>
23.8882

>  <SCORE.INTRA.POLAR>
0

>  <SCORE.INTRA.POLAR.0>
0

>  <SCORE.INTRA.REPUL>
0

>  <SCORE.INTRA.REPUL.0>
0

>  <SCORE.INTRA.SOLV>
1.85078

>  <SCORE.INTRA.SOLV.lig_0>
-97.6888

>  <SCORE.INTRA.VDW>
-0.0768799

>  <SCORE.INTRA.VDW.0>
-3.9206

>  <SCORE.INTRA.norm>
-0.16369

>  <SCORE.RESTR>
0.064496

>  <SCORE.RESTR.CAVITY>
0.064496

>  <SCORE.RESTR.norm>
0.00184274

>  <SCORE.SYSTEM>
0

>  <SCORE.SYSTEM.CONST>
0

>  <SCORE.SYSTEM.DIHEDRAL>
0

>  <SCORE.SYSTEM.SOLV>
0

>  <SCORE.SYSTEM.norm>
0

>  <SCORE.heavy>
35

>  <SCORE.norm>
-0.596161

>  <RMSD>
1.013

$$$$
2f4t_lig
 OpenBabel11021811433D
libRbt.so/2013.1/901 2013/11/27
 35 36  0  0  0  0  0  0  0  0999 V2000
    2.7290   -5.7242   25.6247 C   0  0  2  0  0  0  0  0  0  0  0  0
    2.0620   -6.5180   26.6602 O   0  0  0  0  0  0  0  0  0  0  0  0
    3.9087   -9.0784   29.6083 C   0  0  2  0  0  0  0  0  0  0  0  0
    4.4673  -10.2856   30.2355 N   0  0  0  0  0  0  0  0  0  0  0  0
    2.1107   -4.2964   25.7187 C   0  0  2  0  0  0  0  0  0  0  0  0
    2.2668   -3.7602   27.0504 N   0  0  0  0  0  0  0  0  0  0  0  0
    2.4740   -9.4000   29.0501 C   0  0  0  0  0  0  0  0  0  0  0  0
    3.3098  -10.9358   31.4001 C   0  0  0  0  0  0  0  0  0  0  0  0
    4.3347  -12.0194   31.6519 C   0  0  1  0  0  0  0  0  0  0  0  0
    3.7136  -13.0256   32.6234 C   0  0  0  0  0  0  0  0  0  0  0  0
    4.5345  -13.3226   33.8894 C   0  0  0  0  0  0  0  0  0  0  0  0
    3.8290  -14.3438   34.6694 N   0  0  0  0  0  0  0  0  0  0  0  0
    4.6055  -12.7369   30.4763 O   0  0  0  0  0  0  0  0  0  0  0  0
    7.0998   -7.7014   29.7093 C   0  0  0  0  0  0  0  0  0  0  0  0
    6.8819   -8.0587   31.1716 C   0  0  0  0  0  0  0  0  0  0  0  0
    0.5985   -4.3374   25.3139 C   0  0  1  0  0  0  0  0  0  0  0  0
    7.9359   -7.5392   32.0705 N   0  0  0  0  0  0  0  0  0  0  0  0
    0.0191   -3.0493   25.3880 O   0  0  0  0  0  0  0  0  0  0  0  0
    1.8373   -8.1796   28.3707 C   0  0  2  0  0  0  0  0  0  0  0  0
    0.5252   -8.5136   27.8257 N   0  0  0  0  0  0  0  0  0  0  0  0
    6.6113   -5.6035   32.9249 C   0  0  0  0  0  0  0  0  0  0  0  0
    6.0710   -6.4492   34.1227 N   0  0  0  0  0  0  0  0  0  0  0  0
    7.9930   -6.0849   32.3915 C   0  0  0  0  0  0  0  0  0  0  0  0
    2.3376  -10.6459   31.7318 O   0  0  0  0  0  0  0  0  0  0  0  0
    0.5028   -4.8939   23.8896 C   0  0  2  0  0  0  0  0  0  0  0  0
   -0.8461   -4.9462   23.4542 O   0  0  0  0  0  0  0  0  0  0  0  0
    2.7205   -7.6771   27.2560 C   0  0  2  0  0  0  0  0  0  0  0  0
    1.1458   -6.3095   23.8290 C   0  0  2  0  0  0  0  0  0  0  0  0
    2.5204   -6.2752   24.2659 O   0  0  0  0  0  0  0  0  0  0  0  0
    4.1631   -7.3204   27.8186 C   0  0  2  0  0  0  0  0  0  0  0  0
    4.9859   -6.8333   26.7164 O   0  0  0  0  0  0  0  0  0  0  0  0
    1.1036   -6.8793   22.4613 C   0  0  0  0  0  0  0  0  0  0  0  0
    0.4488   -8.0610   22.4861 N   0  0  0  0  0  0  0  0  0  0  0  0
    4.7963   -8.6115   28.4441 C   0  0  1  0  0  0  0  0  0  0  0  0
    6.0749   -8.3382   28.9218 O   0  0  0  0  0  0  0  0  0  0  0  0
  1  2  1  1  0  0  0
  1  5  1  0  0  0  0
  1 29  1  0  0  0  0
  3  4  1  6  0  0  0
  3  7  1  0  0  0  0
  3 34  1  0  0  0  0
  5  6  1  1  0  0  0
  5 16  1  0  0  0  0
  7 19  1  0  0  0  0
  8  4  1  0  0  0  0
  8 24  2  0  0  0  0
  9  8  1  6  0  0  0
  9 10  1  0  0  0  0
  9 13  1  0  0  0  0
 10 11  1  0  0  0  0
 11 12  1  0  0  0  0
 14 15  1  0  0  0  0
 14 35  1  0  0  0  0
 15 17  1  0  0  0  0
 16 18  1  6  0  0  0
 16 25  1  0  0  0  0
 19 20  1  6  0  0  0
 19 27  1  0  0  0  0
 21 22  1  0  0  0  0
 21 23  1  0  0  0  0
 23 17  1  0  0  0  0
 25 26  1  1  0  0  0
 25 28  1  0  0  0  0
 27  2  1  1  0  0  0
 27 30  1  0  0  0  0
 28 29  1  0  0  0  0
 28 32  1  6  0  0  0
 30 31  1  6  0  0  0
 30 34  1  0  0  0  0
 32 33  2  0  0  0  0
 34 35  1  1  0  0  0
M  END
>  <CHROM.1>
-153.86317423,-51.84975116,-175.41741137,-126.10961258,-177.39358490,175.80547927
65.91485914,73.31596307,53.36774685,53.28469744,174.35328960,-122.52593214
-60.17660319,3.42554449,-7.92711451,28.54026599,-2.16954469,0.78285693,2.59502314

>  <Name>
2f4t_lig

>  <RI>
0

>  <Rbt.Current_Directory>
/home/itssahil/PROJECTS/Mol_Feturizer/New_Systems/rnas/2f4t

>  <Rbt.Executable>
rbdock ($Id: //depot/dev/client3/rdock/2013.1/src/exe/rbdock.cxx#4 $)

>  <Rbt.Library>
libRbt.so (2013.1, Build901 2013/11/27)

>  <Rbt.Parameter_File>
/export/apps/rDock/src/rDock_2013.1_src/data/scripts/dock_solv.prm

>  <Rbt.Receptor>
prm/pocket_docking_2.prm

>  <SCORE>
-18.8119

>  <SCORE.INTER>
-15.0884

>  <SCORE.INTER.CONST>
1

>  <SCORE.INTER.POLAR>
-1.70461

>  <SCORE.INTER.ROT>
13

>  <SCORE.INTER.SOLV>
18.0058

>  <SCORE.INTER.VDW>
-22.6455

>  <SCORE.INTER.norm>
-0.431098

>  <SCORE.INTRA>
-3.7325

>  <SCORE.INTRA.DIHEDRAL>
-13.5661

>  <SCORE.INTRA.DIHEDRAL.0>
23.8882

>  <SCORE.INTRA.POLAR>
0

>  <SCORE.INTRA.POLAR.0>
0

>  <SCORE.INTRA.REPUL>
0

>  <SCORE.INTRA.REPUL.0>
0

>  <SCORE.INTRA.SOLV>
0.846221

>  <SCORE.INTRA.SOLV.lig_0>
-97.6888

>  <SCORE.INTRA.VDW>
2.62742

>  <SCORE.INTRA.VDW.0>
-3.9206

>  <SCORE.INTRA.norm>
-0.106643

>  <SCORE.RESTR>
0.00902781

>  <SCORE.RESTR.CAVITY>
0.00902781

>  <SCORE.RESTR.norm>
0.000257938

>  <SCORE.SYSTEM>
0

>  <SCORE.SYSTEM.CONST>
0

>  <SCORE.SYSTEM.DIHEDRAL>
0

>  <SCORE.SYSTEM.SOLV>
0

>  <SCORE.SYSTEM.norm>
0

>  <SCORE.heavy>
35

>  <SCORE.norm>
-0.537483

>  <RMSD>
1.013

$$$$
2f4t_lig
 OpenBabel11021811433D
libRbt.so/2013.1/901 2013/11/27
 35 36  0  0  0  0  0  0  0  0999 V2000
    2.8842   -5.6478   25.8340 C   0  0  2  0  0  0  0  0  0  0  0  0
    2.1773   -6.4054   26.8701 O   0  0  0  0  0  0  0  0  0  0  0  0
    3.2179   -9.6249   29.5551 C   0  0  2  0  0  0  0  0  0  0  0  0
    3.6344  -10.9559   30.0218 N   0  0  0  0  0  0  0  0  0  0  0  0
    2.3814   -4.1781   25.9635 C   0  0  2  0  0  0  0  0  0  0  0  0
    2.6046   -3.6791   27.3002 N   0  0  0  0  0  0  0  0  0  0  0  0
    2.0305   -9.7806   28.5355 C   0  0  0  0  0  0  0  0  0  0  0  0
    2.3464  -11.6700   30.9964 C   0  0  0  0  0  0  0  0  0  0  0  0
    3.2644  -12.8635   31.1414 C   0  0  1  0  0  0  0  0  0  0  0  0
    4.1827  -12.5970   32.3363 C   0  0  0  0  0  0  0  0  0  0  0  0
    4.7918  -13.8440   32.9990 C   0  0  0  0  0  0  0  0  0  0  0  0
    5.5380  -14.5908   31.9819 N   0  0  0  0  0  0  0  0  0  0  0  0
    2.5372  -14.0194   31.4658 O   0  0  0  0  0  0  0  0  0  0  0  0
    6.7379   -8.3666   30.2231 C   0  0  0  0  0  0  0  0  0  0  0  0
    6.7240   -6.8593   30.4268 C   0  0  0  0  0  0  0  0  0  0  0  0
    0.8631   -4.0941   25.5894 C   0  0  1  0  0  0  0  0  0  0  0  0
    7.9129   -6.3487   31.1441 N   0  0  0  0  0  0  0  0  0  0  0  0
    0.3876   -2.7663   25.6960 O   0  0  0  0  0  0  0  0  0  0  0  0
    1.5540   -8.4231   28.0003 C   0  0  2  0  0  0  0  0  0  0  0  0
    0.4805   -8.5960   27.0267 N   0  0  0  0  0  0  0  0  0  0  0  0
    7.1028   -5.5099   33.3513 C   0  0  0  0  0  0  0  0  0  0  0  0
    7.3751   -4.0208   32.9639 N   0  0  0  0  0  0  0  0  0  0  0  0
    8.0281   -6.5265   32.6194 C   0  0  0  0  0  0  0  0  0  0  0  0
    1.3768  -11.3501   31.3070 O   0  0  0  0  0  0  0  0  0  0  0  0
    0.6967   -4.6164   24.1586 C   0  0  2  0  0  0  0  0  0  0  0  0
   -0.6602   -4.5559   23.7502 O   0  0  0  0  0  0  0  0  0  0  0  0
    2.6958   -7.6837   27.3487 C   0  0  2  0  0  0  0  0  0  0  0  0
    1.2258   -6.0765   24.0621 C   0  0  2  0  0  0  0  0  0  0  0  0
    2.6070   -6.1569   24.4711 O   0  0  0  0  0  0  0  0  0  0  0  0
    3.8874   -7.4951   28.3829 C   0  0  2  0  0  0  0  0  0  0  0  0
    4.9688   -6.7728   27.7211 O   0  0  0  0  0  0  0  0  0  0  0  0
    1.1129   -6.6171   22.6866 C   0  0  0  0  0  0  0  0  0  0  0  0
    0.9256   -7.9541   22.7425 N   0  0  0  0  0  0  0  0  0  0  0  0
    4.3804   -8.9084   28.8507 C   0  0  1  0  0  0  0  0  0  0  0  0
    5.4451   -8.7779   29.7379 O   0  0  0  0  0  0  0  0  0  0  0  0
  1  2  1  1  0  0  0
  1  5  1  0  0  0  0
  1 29  1  0  0  0  0
  3  4  1  6  0  0  0
  3  7  1  0  0  0  0
  3 34  1  0  0  0  0
  5  6  1  1  0  0  0
  5 16  1  0  0  0  0
  7 19  1  0  0  0  0
  8  4  1  0  0  0  0
  8 24  2  0  0  0  0
  9  8  1  1  0  0  0
  9 10  1  0  0  0  0
  9 13  1  0  0  0  0
 10 11  1  0  0  0  0
 11 12  1  0  0  0  0
 14 15  1  0  0  0  0
 14 35  1  0  0  0  0
 15 17  1  0  0  0  0
 16 18  1  6  0  0  0
 16 25  1  0  0  0  0
 19 20  1  6  0  0  0
 19 27  1  0  0  0  0
 21 22  1  0  0  0  0
 21 23  1  0  0  0  0
 23 17  1  0  0  0  0
 25 26  1  1  0  0  0
 25 28  1  0  0  0  0
 27  2  1  1  0  0  0
 27 30  1  0  0  0  0
 28 29  1  0  0  0  0
 28 32  1  6  0  0  0
 30 31  1  6  0  0  0
 30 34  1  0  0  0  0
 32 33  2  0  0  0  0
 34 35  1  1  0  0  0
M  END
>  <CHROM.1>
-159.35262064,-67.30451920,86.63147017,156.94782995,57.33783923,169.89917588
69.24786843,-76.40410141,-55.87104126,-76.11227327,-160.05181296,-149.60009426
-175.32695583,3.35146340,-7.94468371,28.49667936,-2.12761444,0.78575989,2.68537764

>  <Name>
2f4t_lig

>  <RI>
0

>  <Rbt.Current_Directory>
/home/itssahil/PROJECTS/Mol_Feturizer/New_Systems/rnas/2f4t

>  <Rbt.Executable>
rbdock ($Id: //depot/dev/client3/rdock/2013.1/src/exe/rbdock.cxx#4 $)

>  <Rbt.Library>
libRbt.so (2013.1, Build901 2013/11/27)

>  <Rbt.Parameter_File>
/export/apps/rDock/src/rDock_2013.1_src/data/scripts/dock_solv.prm

>  <Rbt.Receptor>
prm/pocket_docking_2.prm

>  <SCORE>
-17.8209

>  <SCORE.INTER>
-13.4596

>  <SCORE.INTER.CONST>
1

>  <SCORE.INTER.POLAR>
-1.40515

>  <SCORE.INTER.ROT>
13

>  <SCORE.INTER.SOLV>
17.3108

>  <SCORE.INTER.VDW>
-22.3262

>  <SCORE.INTER.norm>
-0.38456

>  <SCORE.INTRA>
-4.8251

>  <SCORE.INTRA.DIHEDRAL>
-14.2222

>  <SCORE.INTRA.DIHEDRAL.0>
23.8882

>  <SCORE.INTRA.POLAR>
0

>  <SCORE.INTRA.POLAR.0>
0

>  <SCORE.INTRA.REPUL>
0

>  <SCORE.INTRA.REPUL.0>
0

>  <SCORE.INTRA.SOLV>
2.51881

>  <SCORE.INTRA.SOLV.lig_0>
-97.6888

>  <SCORE.INTRA.VDW>
1.02659

>  <SCORE.INTRA.VDW.0>
-3.9206

>  <SCORE.INTRA.norm>
-0.13786

>  <SCORE.RESTR>
0.463773

>  <SCORE.RESTR.CAVITY>
0.463773

>  <SCORE.RESTR.norm>
0.0132507

>  <SCORE.SYSTEM>
0

>  <SCORE.SYSTEM.CONST>
0

>  <SCORE.SYSTEM.DIHEDRAL>
0

>  <SCORE.SYSTEM.SOLV>
0

>  <SCORE.SYSTEM.norm>
0

>  <SCORE.heavy>
35

>  <SCORE.norm>
-0.509169

>  <RMSD>
1.043

$$$$
2f4t_lig
 OpenBabel11021811433D
libRbt.so/2013.1/901 2013/11/27
 35 36  0  0  0  0  0  0  0  0999 V2000
    3.3197   -5.4519   26.2846 C   0  0  2  0  0  0  0  0  0  0  0  0
    2.6901   -6.2296   27.3551 O   0  0  0  0  0  0  0  0  0  0  0  0
    3.7514   -9.7021   29.6946 C   0  0  2  0  0  0  0  0  0  0  0  0
    4.1263  -11.0855   30.0236 N   0  0  0  0  0  0  0  0  0  0  0  0
    3.0545   -3.9559   26.6328 C   0  0  2  0  0  0  0  0  0  0  0  0
    3.5575   -3.6423   27.9497 N   0  0  0  0  0  0  0  0  0  0  0  0
    2.4810   -9.7151   28.7676 C   0  0  0  0  0  0  0  0  0  0  0  0
    3.8311  -11.3857   31.7387 C   0  0  0  0  0  0  0  0  0  0  0  0
    4.3370  -12.7858   31.4707 C   0  0  1  0  0  0  0  0  0  0  0  0
    4.8012  -13.3723   32.8058 C   0  0  0  0  0  0  0  0  0  0  0  0
    5.5195  -14.7296   32.7230 C   0  0  0  0  0  0  0  0  0  0  0  0
    4.5478  -15.7424   32.2998 N   0  0  0  0  0  0  0  0  0  0  0  0
    3.2981  -13.6181   31.0256 O   0  0  0  0  0  0  0  0  0  0  0  0
    6.8467   -8.7319   30.9164 C   0  0  0  0  0  0  0  0  0  0  0  0
    6.7529   -7.2535   31.2613 C   0  0  0  0  0  0  0  0  0  0  0  0
    1.5225   -3.6451   26.5388 C   0  0  1  0  0  0  0  0  0  0  0  0
    7.5597   -6.8692   32.4403 N   0  0  0  0  0  0  0  0  0  0  0  0
    1.2606   -2.2898   26.8469 O   0  0  0  0  0  0  0  0  0  0  0  0
    2.0426   -8.2966   28.3774 C   0  0  2  0  0  0  0  0  0  0  0  0
    0.8880   -8.3363   27.4854 N   0  0  0  0  0  0  0  0  0  0  0  0
    6.9019   -4.6323   33.3319 C   0  0  0  0  0  0  0  0  0  0  0  0
    7.2357   -3.1110   33.4589 N   0  0  0  0  0  0  0  0  0  0  0  0
    8.0077   -5.4579   32.6103 C   0  0  0  0  0  0  0  0  0  0  0  0
    3.4599  -10.7985   32.5490 O   0  0  0  0  0  0  0  0  0  0  0  0
    1.0566   -3.9779   25.1176 C   0  0  2  0  0  0  0  0  0  0  0  0
   -0.3265   -3.7061   24.9597 O   0  0  0  0  0  0  0  0  0  0  0  0
    3.1704   -7.5669   27.6915 C   0  0  2  0  0  0  0  0  0  0  0  0
    1.3541   -5.4714   24.7980 C   0  0  2  0  0  0  0  0  0  0  0  0
    2.7582   -5.7658   24.9505 O   0  0  0  0  0  0  0  0  0  0  0  0
    4.4481   -7.5224   28.6351 C   0  0  2  0  0  0  0  0  0  0  0  0
    5.5140   -6.8057   27.9428 O   0  0  0  0  0  0  0  0  0  0  0  0
    0.9467   -5.8350   23.4201 C   0  0  0  0  0  0  0  0  0  0  0  0
    2.0463   -6.0992   22.6806 N   0  0  0  0  0  0  0  0  0  0  0  0
    4.8944   -8.9919   28.9527 C   0  0  1  0  0  0  0  0  0  0  0  0
    6.0310   -8.9870   29.7564 O   0  0  0  0  0  0  0  0  0  0  0  0
  1  2  1  1  0  0  0
  1  5  1  0  0  0  0
  1 29  1  0  0  0  0
  3  4  1  6  0  0  0
  3  7  1  0  0  0  0
  3 34  1  0  0  0  0
  5  6  1  1  0  0  0
  5 16  1  0  0  0  0
  7 19  1  0  0  0  0
  8  4  1  0  0  0  0
  8 24  2  0  0  0  0
  9  8  1  1  0  0  0
  9 10  1  0  0  0  0
  9 13  1  0  0  0  0
 10 11  1  0  0  0  0
 11 12  1  0  0  0  0
 14 15  1  0  0  0  0
 14 35  1  0  0  0  0
 15 17  1  0  0  0  0
 16 18  1  6  0  0  0
 16 25  1  0  0  0  0
 19 20  1  6  0  0  0
 19 27  1  0  0  0  0
 21 22  1  0  0  0  0
 21 23  1  0  0  0  0
 23 17  1  0  0  0  0
 25 26  1  1  0  0  0
 25 28  1  0  0  0  0
 27  2  1  1  0  0  0
 27 30  1  0  0  0  0
 28 29  1  0  0  0  0
 28 32  1  6  0  0  0
 30 31  1  6  0  0  0
 30 34  1  0  0  0  0
 32 33  2  0  0  0  0
 34 35  1  1  0  0  0
M  END
>  <CHROM.1>
-154.18969001,-111.46975324,158.19727208,-172.50080677,-67.68719856,-179.74748257
-53.04847774,156.49086305,-175.59948390,86.39111937,-157.38324449,112.24757933
-56.98540953,3.82034678,-7.74897933,28.96096099,2.09708276,-0.87584356,-0.30333073

>  <Name>
2f4t_lig

>  <RI>
0

>  <Rbt.Current_Directory>
/home/itssahil/PROJECTS/Mol_Feturizer/New_Systems/rnas/2f4t

>  <Rbt.Executable>
rbdock ($Id: //depot/dev/client3/rdock/2013.1/src/exe/rbdock.cxx#4 $)

>  <Rbt.Library>
libRbt.so (2013.1, Build901 2013/11/27)

>  <Rbt.Parameter_File>
/export/apps/rDock/src/rDock_2013.1_src/data/scripts/dock_solv.prm

>  <Rbt.Receptor>
prm/pocket_docking_3.prm

>  <SCORE>
-21.0727

>  <SCORE.INTER>
-15.6024

>  <SCORE.INTER.CONST>
1

>  <SCORE.INTER.POLAR>
-1.51825

>  <SCORE.INTER.ROT>
13

>  <SCORE.INTER.SOLV>
13.2824

>  <SCORE.INTER.VDW>
-22.0349

>  <SCORE.INTER.norm>
-0.445782

>  <SCORE.INTRA>
-5.47031

>  <SCORE.INTRA.DIHEDRAL>
-13.8842

>  <SCORE.INTRA.DIHEDRAL.0>
23.8882

>  <SCORE.INTRA.POLAR>
0

>  <SCORE.INTRA.POLAR.0>
0

>  <SCORE.INTRA.REPUL>
0

>  <SCORE.INTRA.REPUL.0>
0

>  <SCORE.INTRA.SOLV>
1.39043

>  <SCORE.INTRA.SOLV.lig_0>
-97.6888

>  <SCORE.INTRA.VDW>
0.776559

>  <SCORE.INTRA.VDW.0>
-3.9206

>  <SCORE.INTRA.norm>
-0.156295

>  <SCORE.RESTR>
0

>  <SCORE.RESTR.CAVITY>
0

>  <SCORE.RESTR.norm>
0

>  <SCORE.SYSTEM>
0

>  <SCORE.SYSTEM.CONST>
0

>  <SCORE.SYSTEM.DIHEDRAL>
0

>  <SCORE.SYSTEM.SOLV>
0

>  <SCORE.SYSTEM.norm>
0

>  <SCORE.heavy>
35

>  <SCORE.norm>
-0.602076

>  <RMSD>
1.049

$$$$
2f4t_lig
 OpenBabel11021811433D
libRbt.so/2013.1/901 2013/11/27
 35 36  0  0  0  0  0  0  0  0999 V2000
    2.7492   -5.5651   25.6678 C   0  0  2  0  0  0  0  0  0  0  0  0
    2.1169   -6.4051   26.6885 O   0  0  0  0  0  0  0  0  0  0  0  0
    3.7778   -9.4341   29.2814 C   0  0  2  0  0  0  0  0  0  0  0  0
    4.2990  -10.7329   29.7332 N   0  0  0  0  0  0  0  0  0  0  0  0
    2.0946   -4.1576   25.8095 C   0  0  2  0  0  0  0  0  0  0  0  0
    2.2535   -3.6546   27.1538 N   0  0  0  0  0  0  0  0  0  0  0  0
    2.3837   -9.6481   28.5855 C   0  0  0  0  0  0  0  0  0  0  0  0
    3.5026  -11.1975   31.2394 C   0  0  0  0  0  0  0  0  0  0  0  0
    4.3525  -12.4474   31.1780 C   0  0  1  0  0  0  0  0  0  0  0  0
    4.1344  -13.2184   32.4818 C   0  0  0  0  0  0  0  0  0  0  0  0
    5.0339  -14.4490   32.6860 C   0  0  0  0  0  0  0  0  0  0  0  0
    4.6175  -15.1274   33.9170 N   0  0  0  0  0  0  0  0  0  0  0  0
    3.9184  -13.2993   30.1504 O   0  0  0  0  0  0  0  0  0  0  0  0
    6.9510   -8.1112   29.8143 C   0  0  0  0  0  0  0  0  0  0  0  0
    6.5763   -8.6095   31.2016 C   0  0  0  0  0  0  0  0  0  0  0  0
    0.5790   -4.2278   25.4220 C   0  0  1  0  0  0  0  0  0  0  0  0
    7.4414   -8.0741   32.2757 N   0  0  0  0  0  0  0  0  0  0  0  0
   -0.0334   -2.9583   25.5393 O   0  0  0  0  0  0  0  0  0  0  0  0
    1.7878   -8.3270   28.0795 C   0  0  2  0  0  0  0  0  0  0  0  0
    0.5153   -8.5563   27.4025 N   0  0  0  0  0  0  0  0  0  0  0  0
    6.2797   -5.9024   32.6830 C   0  0  0  0  0  0  0  0  0  0  0  0
    5.5422   -6.4385   33.9521 N   0  0  0  0  0  0  0  0  0  0  0  0
    7.6430   -6.6033   32.4082 C   0  0  0  0  0  0  0  0  0  0  0  0
    2.7608  -10.7509   31.8634 O   0  0  0  0  0  0  0  0  0  0  0  0
    0.4798   -4.7468   23.9838 C   0  0  2  0  0  0  0  0  0  0  0  0
   -0.8727   -4.8231   23.5634 O   0  0  0  0  0  0  0  0  0  0  0  0
    2.7397   -7.6518   27.1239 C   0  0  2  0  0  0  0  0  0  0  0  0
    1.1592   -6.1424   23.8755 C   0  0  2  0  0  0  0  0  0  0  0  0
    2.5379   -6.0834   24.2966 O   0  0  0  0  0  0  0  0  0  0  0  0
    4.1412   -7.4040   27.8305 C   0  0  2  0  0  0  0  0  0  0  0  0
    5.0321   -6.7457   26.8807 O   0  0  0  0  0  0  0  0  0  0  0  0
    1.1146   -6.6748   22.4929 C   0  0  0  0  0  0  0  0  0  0  0  0
    0.7409   -7.9729   22.5224 N   0  0  0  0  0  0  0  0  0  0  0  0
    4.7374   -8.7858   28.2714 C   0  0  1  0  0  0  0  0  0  0  0  0
    5.9811   -8.6050   28.8699 O   0  0  0  0  0  0  0  0  0  0  0  0
  1  2  1  1  0  0  0
  1  5  1  0  0  0  0
  1 29  1  0  0  0  0
  3  4  1  6  0  0  0
  3  7  1  0  0  0  0
  3 34  1  0  0  0  0
  5  6  1  1  0  0  0
  5 16  1  0  0  0  0
  7 19  1  0  0  0  0
  8  4  1  0  0  0  0
  8 24  2  0  0  0  0
  9  8  1  1  0  0  0
  9 10  1  0  0  0  0
  9 13  1  0  0  0  0
 10 11  1  0  0  0  0
 11 12  1  0  0  0  0
 14 15  1  0  0  0  0
 14 35  1  0  0  0  0
 15 17  1  0  0  0  0
 16 18  1  6  0  0  0
 16 25  1  0  0  0  0
 19 20  1  6  0  0  0
 19 27  1  0  0  0  0
 21 22  1  0  0  0  0
 21 23  1  0  0  0  0
 23 17  1  0  0  0  0
 25 26  1  1  0  0  0
 25 28  1  0  0  0  0
 27  2  1  1  0  0  0
 27 30  1  0  0  0  0
 28 29  1  0  0  0  0
 28 32  1  6  0  0  0
 30 31  1  6  0  0  0
 30 34  1  0  0  0  0
 32 33  2  0  0  0  0
 34 35  1  1  0  0  0
M  END
>  <CHROM.1>
-161.48262619,-79.07948715,173.40493412,-173.41706554,-175.25262974,-175.30625191
61.81550432,53.17445288,57.10302910,61.20192986,-175.11348812,-134.68385314
-60.76085985,3.40108406,-8.09132078,28.42152860,-2.23090918,0.87196601,2.78064916

>  <Name>
2f4t_lig

>  <RI>
0

>  <Rbt.Current_Directory>
/home/itssahil/PROJECTS/Mol_Feturizer/New_Systems/rnas/2f4t

>  <Rbt.Executable>
rbdock ($Id: //depot/dev/client3/rdock/2013.1/src/exe/rbdock.cxx#4 $)

>  <Rbt.Library>
libRbt.so (2013.1, Build901 2013/11/27)

>  <Rbt.Parameter_File>
/export/apps/rDock/src/rDock_2013.1_src/data/scripts/dock_solv.prm

>  <Rbt.Receptor>
prm/pocket_docking_2.prm

>  <SCORE>
-21.3881

>  <SCORE.INTER>
-13.0288

>  <SCORE.INTER.CONST>
1

>  <SCORE.INTER.POLAR>
-0.938083

>  <SCORE.INTER.ROT>
13

>  <SCORE.INTER.SOLV>
19.2851

>  <SCORE.INTER.VDW>
-24.254

>  <SCORE.INTER.norm>
-0.372252

>  <SCORE.INTRA>
-8.37379

>  <SCORE.INTRA.DIHEDRAL>
-19.6813

>  <SCORE.INTRA.DIHEDRAL.0>
23.8882

>  <SCORE.INTRA.POLAR>
0

>  <SCORE.INTRA.POLAR.0>
0

>  <SCORE.INTRA.REPUL>
0

>  <SCORE.INTRA.REPUL.0>
0

>  <SCORE.INTRA.SOLV>
0.630917

>  <SCORE.INTRA.SOLV.lig_0>
-97.6888

>  <SCORE.INTRA.VDW>
1.15141

>  <SCORE.INTRA.VDW.0>
-3.9206

>  <SCORE.INTRA.norm>
-0.239251

>  <SCORE.RESTR>
0.0145579

>  <SCORE.RESTR.CAVITY>
0.0145579

>  <SCORE.RESTR.norm>
0.000415939

>  <SCORE.SYSTEM>
0

>  <SCORE.SYSTEM.CONST>
0

>  <SCORE.SYSTEM.DIHEDRAL>
0

>  <SCORE.SYSTEM.SOLV>
0

>  <SCORE.SYSTEM.norm>
0

>  <SCORE.heavy>
35

>  <SCORE.norm>
-0.611088

>  <RMSD>
1.056

$$$$
2f4t_lig
 OpenBabel11021811433D
libRbt.so/2013.1/901 2013/11/27
 35 36  0  0  0  0  0  0  0  0999 V2000
    2.7840   -5.5073   25.7022 C   0  0  2  0  0  0  0  0  0  0  0  0
    2.1554   -6.3581   26.7162 O   0  0  0  0  0  0  0  0  0  0  0  0
    3.5520   -9.6215   29.1774 C   0  0  2  0  0  0  0  0  0  0  0  0
    4.0482  -10.9528   29.5567 N   0  0  0  0  0  0  0  0  0  0  0  0
    2.1414   -4.0974   25.8716 C   0  0  2  0  0  0  0  0  0  0  0  0
    2.3171   -3.6161   27.2218 N   0  0  0  0  0  0  0  0  0  0  0  0
    2.2683   -9.7815   28.2830 C   0  0  0  0  0  0  0  0  0  0  0  0
    3.4294  -11.3808   31.1545 C   0  0  0  0  0  0  0  0  0  0  0  0
    4.1865  -12.6790   30.9819 C   0  0  1  0  0  0  0  0  0  0  0  0
    4.2372  -13.3687   32.3471 C   0  0  0  0  0  0  0  0  0  0  0  0
    5.1241  -14.6226   32.4269 C   0  0  0  0  0  0  0  0  0  0  0  0
    4.9067  -15.2610   33.7285 N   0  0  0  0  0  0  0  0  0  0  0  0
    3.4921  -13.5558   30.1338 O   0  0  0  0  0  0  0  0  0  0  0  0
    6.9470   -9.1197   29.8712 C   0  0  0  0  0  0  0  0  0  0  0  0
    7.5949   -7.8817   30.4722 C   0  0  0  0  0  0  0  0  0  0  0  0
    0.6215   -4.1506   25.4981 C   0  0  1  0  0  0  0  0  0  0  0  0
    7.2423   -7.6599   31.8917 N   0  0  0  0  0  0  0  0  0  0  0  0
    0.0198   -2.8786   25.6407 O   0  0  0  0  0  0  0  0  0  0  0  0
    1.7046   -8.4233   27.8426 C   0  0  2  0  0  0  0  0  0  0  0  0
    0.5393   -8.5987   26.9815 N   0  0  0  0  0  0  0  0  0  0  0  0
    5.8773   -6.5807   33.6815 C   0  0  0  0  0  0  0  0  0  0  0  0
    6.7765   -5.3079   33.7975 N   0  0  0  0  0  0  0  0  0  0  0  0
    5.8684   -7.2135   32.2586 C   0  0  0  0  0  0  0  0  0  0  0  0
    2.8043  -10.8954   31.8705 O   0  0  0  0  0  0  0  0  0  0  0  0
    0.5044   -4.6470   24.0532 C   0  0  2  0  0  0  0  0  0  0  0  0
   -0.8527   -4.7070   23.6451 O   0  0  0  0  0  0  0  0  0  0  0  0
    2.7529   -7.6344   27.0985 C   0  0  2  0  0  0  0  0  0  0  0  0
    1.1723   -6.0457   23.9172 C   0  0  2  0  0  0  0  0  0  0  0  0
    2.5555   -6.0031   24.3255 O   0  0  0  0  0  0  0  0  0  0  0  0
    4.0416   -7.4418   28.0079 C   0  0  2  0  0  0  0  0  0  0  0  0
    5.0291   -6.6712   27.2595 O   0  0  0  0  0  0  0  0  0  0  0  0
    1.1103   -6.5566   22.5272 C   0  0  0  0  0  0  0  0  0  0  0  0
    0.1969   -7.5495   22.4530 N   0  0  0  0  0  0  0  0  0  0  0  0
    4.6159   -8.8533   28.3779 C   0  0  1  0  0  0  0  0  0  0  0  0
    5.7644   -8.7181   29.1527 O   0  0  0  0  0  0  0  0  0  0  0  0
  1  2  1  1  0  0  0
  1  5  1  0  0  0  0
  1 29  1  0  0  0  0
  3  4  1  6  0  0  0
  3  7  1  0  0  0  0
  3 34  1  0  0  0  0
  5  6  1  1  0  0  0
  5 16  1  0  0  0  0
  7 19  1  0  0  0  0
  8  4  1  0  0  0  0
  8 24  2  0  0  0  0
  9  8  1  1  0  0  0
  9 10  1  0  0  0  0
  9 13  1  0  0  0  0
 10 11  1  0  0  0  0
 11 12  1  0  0  0  0
 14 15  1  0  0  0  0
 14 35  1  0  0  0  0
 15 17  1  0  0  0  0
 16 18  1  6  0  0  0
 16 25  1  0  0  0  0
 19 20  1  6  0  0  0
 19 27  1  0  0  0  0
 21 22  1  0  0  0  0
 21 23  1  0  0  0  0
 23 17  1  0  0  0  0
 25 26  1  1  0  0  0
 25 28  1  0  0  0  0
 27  2  1  1  0  0  0
 27 30  1  0  0  0  0
 28 29  1  0  0  0  0
 28 32  1  6  0  0  0
 30 31  1  6  0  0  0
 30 34  1  0  0  0  0
 32 33  2  0  0  0  0
 34 35  1  1  0  0  0
M  END
>  <CHROM.1>
-163.28060806,-96.02835680,166.80627715,-172.36144732,-171.87096021,97.49677828
179.78451468,-71.50610999,61.89605117,-160.17196561,-164.44794607,-106.65720129
67.15470411,3.35668364,-8.11395342,28.39694476,-2.24304808,0.88790295,2.82799890

>  <Name>
2f4t_lig

>  <RI>
0

>  <Rbt.Current_Directory>
/home/itssahil/PROJECTS/Mol_Feturizer/New_Systems/rnas/2f4t

>  <Rbt.Executable>
rbdock ($Id: //depot/dev/client3/rdock/2013.1/src/exe/rbdock.cxx#4 $)

>  <Rbt.Library>
libRbt.so (2013.1, Build901 2013/11/27)

>  <Rbt.Parameter_File>
/export/apps/rDock/src/rDock_2013.1_src/data/scripts/dock_solv.prm

>  <Rbt.Receptor>
prm/pocket_docking_2.prm

>  <SCORE>
-20.5699

>  <SCORE.INTER>
-13.6127

>  <SCORE.INTER.CONST>
1

>  <SCORE.INTER.POLAR>
-0.938083

>  <SCORE.INTER.ROT>
13

>  <SCORE.INTER.SOLV>
18.5276

>  <SCORE.INTER.VDW>
-24.3907

>  <SCORE.INTER.norm>
-0.388935

>  <SCORE.INTRA>
-6.98638

>  <SCORE.INTRA.DIHEDRAL>
-13.8752

>  <SCORE.INTRA.DIHEDRAL.0>
23.8882

>  <SCORE.INTRA.POLAR>
0

>  <SCORE.INTRA.POLAR.0>
0

>  <SCORE.INTRA.REPUL>
0

>  <SCORE.INTRA.REPUL.0>
0

>  <SCORE.INTRA.SOLV>
0.372718

>  <SCORE.INTRA.SOLV.lig_0>
-97.6888

>  <SCORE.INTRA.VDW>
-0.235155

>  <SCORE.INTRA.VDW.0>
-3.9206

>  <SCORE.INTRA.norm>
-0.199611

>  <SCORE.RESTR>
0.0292258

>  <SCORE.RESTR.CAVITY>
0.0292258

>  <SCORE.RESTR.norm>
0.000835022

>  <SCORE.SYSTEM>
0

>  <SCORE.SYSTEM.CONST>
0

>  <SCORE.SYSTEM.DIHEDRAL>
0

>  <SCORE.SYSTEM.SOLV>
0

>  <SCORE.SYSTEM.norm>
0

>  <SCORE.heavy>
35

>  <SCORE.norm>
-0.58771

>  <RMSD>
1.059

$$$$
2f4t_lig
 OpenBabel11021811433D
libRbt.so/2013.1/901 2013/11/27
 35 36  0  0  0  0  0  0  0  0999 V2000
    3.0068   -5.5371   25.9829 C   0  0  2  0  0  0  0  0  0  0  0  0
    2.3560   -6.3694   26.9983 O   0  0  0  0  0  0  0  0  0  0  0  0
    3.8068   -9.3098   29.8102 C   0  0  2  0  0  0  0  0  0  0  0  0
    4.3686  -10.5649   30.3315 N   0  0  0  0  0  0  0  0  0  0  0  0
    2.4112   -4.1075   26.1588 C   0  0  2  0  0  0  0  0  0  0  0  0
    2.6094   -3.6354   27.5091 N   0  0  0  0  0  0  0  0  0  0  0  0
    2.6024   -9.6382   28.8535 C   0  0  0  0  0  0  0  0  0  0  0  0
    3.0864  -11.5191   31.0827 C   0  0  0  0  0  0  0  0  0  0  0  0
    4.1626  -12.5431   31.3679 C   0  0  1  0  0  0  0  0  0  0  0  0
    3.4766  -13.7881   31.9348 C   0  0  0  0  0  0  0  0  0  0  0  0
    4.4153  -14.8601   32.5135 C   0  0  0  0  0  0  0  0  0  0  0  0
    3.6012  -15.9915   32.9676 N   0  0  0  0  0  0  0  0  0  0  0  0
    4.7894  -12.9560   30.1818 O   0  0  0  0  0  0  0  0  0  0  0  0
    7.2121   -7.6881   30.2521 C   0  0  0  0  0  0  0  0  0  0  0  0
    7.0589   -6.1810   30.3889 C   0  0  0  0  0  0  0  0  0  0  0  0
    0.8885   -4.1103   25.7931 C   0  0  1  0  0  0  0  0  0  0  0  0
    8.1966   -5.5310   31.0756 N   0  0  0  0  0  0  0  0  0  0  0  0
    0.3293   -2.8197   25.9416 O   0  0  0  0  0  0  0  0  0  0  0  0
    1.9758   -8.3665   28.2649 C   0  0  2  0  0  0  0  0  0  0  0  0
    0.8881   -8.6984   27.3501 N   0  0  0  0  0  0  0  0  0  0  0  0
    7.4114   -3.2197   31.5976 C   0  0  0  0  0  0  0  0  0  0  0  0
    7.4976   -3.3201   33.1547 N   0  0  0  0  0  0  0  0  0  0  0  0
    8.4734   -4.0833   30.8548 C   0  0  0  0  0  0  0  0  0  0  0  0
    2.0393  -11.3791   31.2346 O   0  0  0  0  0  0  0  0  0  0  0  0
    0.7480   -4.5991   24.3478 C   0  0  2  0  0  0  0  0  0  0  0  0
   -0.6124   -4.6140   23.9466 O   0  0  0  0  0  0  0  0  0  0  0  0
    3.0145   -7.5619   27.5242 C   0  0  2  0  0  0  0  0  0  0  0  0
    1.3693   -6.0185   24.2051 C   0  0  2  0  0  0  0  0  0  0  0  0
    2.7551   -6.0220   24.6063 O   0  0  0  0  0  0  0  0  0  0  0  0
    4.2204   -7.1995   28.4934 C   0  0  2  0  0  0  0  0  0  0  0  0
    5.2002   -6.4181   27.7462 O   0  0  0  0  0  0  0  0  0  0  0  0
    1.2835   -6.5238   22.8143 C   0  0  0  0  0  0  0  0  0  0  0  0
    0.5665   -7.6689   22.7950 N   0  0  0  0  0  0  0  0  0  0  0  0
    4.8663   -8.5290   29.0171 C   0  0  1  0  0  0  0  0  0  0  0  0
    5.9461   -8.2452   29.8486 O   0  0  0  0  0  0  0  0  0  0  0  0
  1  2  1  1  0  0  0
  1  5  1  0  0  0  0
  1 29  1  0  0  0  0
  3  4  1  6  0  0  0
  3  7  1  0  0  0  0
  3 34  1  0  0  0  0
  5  6  1  1  0  0  0
  5 16  1  0  0  0  0
  7 19  1  0  0  0  0
  8  4  1  0  0  0  0
  8 24  2  0  0  0  0
  9  8  1  6  0  0  0
  9 10  1  0  0  0  0
  9 13  1  0  0  0  0
 10 11  1  0  0  0  0
 11 12  1  0  0  0  0
 14 15  1  0  0  0  0
 14 35  1  0  0  0  0
 15 17  1  0  0  0  0
 16 18  1  6  0  0  0
 16 25  1  0  0  0  0
 19 20  1  6  0  0  0
 19 27  1  0  0  0  0
 21 22  1  0  0  0  0
 21 23  1  0  0  0  0
 23 17  1  0  0  0  0
 25 26  1  1  0  0  0
 25 28  1  0  0  0  0
 27  2  1  1  0  0  0
 27 30  1  0  0  0  0
 28 29  1  0  0  0  0
 28 32  1  6  0  0  0
 30 31  1  6  0  0  0
 30 34  1  0  0  0  0
 32 33  2  0  0  0  0
 34 35  1  1  0  0  0
M  END
>  <CHROM.1>
-153.75693608,-54.19534615,-172.96330179,-170.03166900,-178.15876794,167.46606216
70.34308919,156.99091131,66.94550318,73.55475339,-166.07379946,-120.05458425
-175.79147490,3.60201335,-7.69287669,28.48066069,1.99867107,-0.76301850,-0.42527972

>  <Name>
2f4t_lig

>  <RI>
0

>  <Rbt.Current_Directory>
/home/itssahil/PROJECTS/Mol_Feturizer/New_Systems/rnas/2f4t

>  <Rbt.Executable>
rbdock ($Id: //depot/dev/client3/rdock/2013.1/src/exe/rbdock.cxx#4 $)

>  <Rbt.Library>
libRbt.so (2013.1, Build901 2013/11/27)

>  <Rbt.Parameter_File>
/export/apps/rDock/src/rDock_2013.1_src/data/scripts/dock_solv.prm

>  <Rbt.Receptor>
prm/pocket_docking_3.prm

>  <SCORE>
-18.8028

>  <SCORE.INTER>
-13.1556

>  <SCORE.INTER.CONST>
1

>  <SCORE.INTER.POLAR>
-1.80645

>  <SCORE.INTER.ROT>
13

>  <SCORE.INTER.SOLV>
12.3288

>  <SCORE.INTER.VDW>
-19.1252

>  <SCORE.INTER.norm>
-0.375876

>  <SCORE.INTRA>
-5.96391

>  <SCORE.INTRA.DIHEDRAL>
-16.1551

>  <SCORE.INTRA.DIHEDRAL.0>
23.8882

>  <SCORE.INTRA.POLAR>
0

>  <SCORE.INTRA.POLAR.0>
0

>  <SCORE.INTRA.REPUL>
0

>  <SCORE.INTRA.REPUL.0>
0

>  <SCORE.INTRA.SOLV>
0.755396

>  <SCORE.INTRA.SOLV.lig_0>
-97.6888

>  <SCORE.INTRA.VDW>
1.73596

>  <SCORE.INTRA.VDW.0>
-3.9206

>  <SCORE.INTRA.norm>
-0.170397

>  <SCORE.RESTR>
0.31674

>  <SCORE.RESTR.CAVITY>
0.31674

>  <SCORE.RESTR.norm>
0.00904971

>  <SCORE.SYSTEM>
0

>  <SCORE.SYSTEM.CONST>
0

>  <SCORE.SYSTEM.DIHEDRAL>
0

>  <SCORE.SYSTEM.SOLV>
0

>  <SCORE.SYSTEM.norm>
0

>  <SCORE.heavy>
35

>  <SCORE.norm>
-0.537223

>  <RMSD>
1.063

$$$$
2f4t_lig
 OpenBabel11021811433D
libRbt.so/2013.1/901 2013/11/27
 35 36  0  0  0  0  0  0  0  0999 V2000
    2.7864   -5.5595   25.6689 C   0  0  2  0  0  0  0  0  0  0  0  0
    2.2699   -6.2753   26.8386 O   0  0  0  0  0  0  0  0  0  0  0  0
    3.8463   -8.9783   29.8161 C   0  0  2  0  0  0  0  0  0  0  0  0
    4.5118  -10.1496   30.4060 N   0  0  0  0  0  0  0  0  0  0  0  0
    2.5111   -4.0492   25.9383 C   0  0  2  0  0  0  0  0  0  0  0  0
    3.1141   -3.6355   27.1836 N   0  0  0  0  0  0  0  0  0  0  0  0
    2.7618   -9.4622   28.7850 C   0  0  0  0  0  0  0  0  0  0  0  0
    3.4668  -10.8655   31.6365 C   0  0  0  0  0  0  0  0  0  0  0  0
    4.5673  -11.8863   31.8239 C   0  0  1  0  0  0  0  0  0  0  0  0
    4.1802  -12.7694   33.0123 C   0  0  0  0  0  0  0  0  0  0  0  0
    2.8752  -13.5671   32.8518 C   0  0  0  0  0  0  0  0  0  0  0  0
    3.0864  -14.5995   31.8326 N   0  0  0  0  0  0  0  0  0  0  0  0
    4.6485  -12.7455   30.7169 O   0  0  0  0  0  0  0  0  0  0  0  0
    6.9117   -6.8638   30.5063 C   0  0  0  0  0  0  0  0  0  0  0  0
    6.3324   -5.5568   31.0253 C   0  0  0  0  0  0  0  0  0  0  0  0
    0.9688   -3.7781   25.9550 C   0  0  1  0  0  0  0  0  0  0  0  0
    7.2716   -4.7886   31.8717 N   0  0  0  0  0  0  0  0  0  0  0  0
    0.6972   -2.4107   26.1936 O   0  0  0  0  0  0  0  0  0  0  0  0
    2.0350   -8.2832   28.1231 C   0  0  2  0  0  0  0  0  0  0  0  0
    1.0634   -8.7562   27.1420 N   0  0  0  0  0  0  0  0  0  0  0  0
    6.6726   -3.7433   34.0580 C   0  0  0  0  0  0  0  0  0  0  0  0
    7.5228   -2.4439   33.8836 N   0  0  0  0  0  0  0  0  0  0  0  0
    7.2805   -4.9893   33.3486 C   0  0  0  0  0  0  0  0  0  0  0  0
    2.5008  -10.6332   32.0265 O   0  0  0  0  0  0  0  0  0  0  0  0
    0.3946   -4.2173   24.6041 C   0  0  2  0  0  0  0  0  0  0  0  0
   -1.0037   -3.9863   24.5472 O   0  0  0  0  0  0  0  0  0  0  0  0
    3.0235   -7.3728   27.4383 C   0  0  2  0  0  0  0  0  0  0  0  0
    0.7044   -5.7225   24.3602 C   0  0  2  0  0  0  0  0  0  0  0  0
    2.1238   -5.9760   24.4115 O   0  0  0  0  0  0  0  0  0  0  0  0
    4.1047   -6.8547   28.4812 C   0  0  2  0  0  0  0  0  0  0  0  0
    5.0381   -5.9744   27.7863 O   0  0  0  0  0  0  0  0  0  0  0  0
    0.1929   -6.1883   23.0494 C   0  0  0  0  0  0  0  0  0  0  0  0
    1.2332   -6.4968   22.2442 N   0  0  0  0  0  0  0  0  0  0  0  0
    4.8620   -8.0899   29.0812 C   0  0  1  0  0  0  0  0  0  0  0  0
    5.8375   -7.6669   29.9797 O   0  0  0  0  0  0  0  0  0  0  0  0
  1  2  1  1  0  0  0
  1  5  1  0  0  0  0
  1 29  1  0  0  0  0
  3  4  1  6  0  0  0
  3  7  1  0  0  0  0
  3 34  1  0  0  0  0
  5  6  1  1  0  0  0
  5 16  1  0  0  0  0
  7 19  1  0  0  0  0
  8  4  1  0  0  0  0
  8 24  2  0  0  0  0
  9  8  1  6  0  0  0
  9 10  1  0  0  0  0
  9 13  1  0  0  0  0
 10 11  1  0  0  0  0
 11 12  1  0  0  0  0
 14 15  1  0  0  0  0
 14 35  1  0  0  0  0
 15 17  1  0  0  0  0
 16 18  1  6  0  0  0
 16 25  1  0  0  0  0
 19 20  1  6  0  0  0
 19 27  1  0  0  0  0
 21 22  1  0  0  0  0
 21 23  1  0  0  0  0
 23 17  1  0  0  0  0
 25 26  1  1  0  0  0
 25 28  1  0  0  0  0
 27  2  1  1  0  0  0
 27 30  1  0  0  0  0
 28 29  1  0  0  0  0
 28 32  1  6  0  0  0
 30 31  1  6  0  0  0
 30 34  1  0  0  0  0
 32 33  2  0  0  0  0
 34 35  1  1  0  0  0
M  END
>  <CHROM.1>
-137.45512545,-77.90743114,174.07810007,61.45013929,68.99580455,166.35157921
76.56898101,-91.44632587,-65.52513768,-108.43269397,-153.65961463,113.09573374
-161.34326629,3.44098965,-7.28334726,28.76104345,2.22521086,-0.90329133,-0.38884629

>  <Name>
2f4t_lig

>  <RI>
0

>  <Rbt.Current_Directory>
/home/itssahil/PROJECTS/Mol_Feturizer/New_Systems/rnas/2f4t

>  <Rbt.Executable>
rbdock ($Id: //depot/dev/client3/rdock/2013.1/src/exe/rbdock.cxx#4 $)

>  <Rbt.Library>
libRbt.so (2013.1, Build901 2013/11/27)

>  <Rbt.Parameter_File>
/export/apps/rDock/src/rDock_2013.1_src/data/scripts/dock_solv.prm

>  <Rbt.Receptor>
prm/pocket_docking_2.prm

>  <SCORE>
-13.781

>  <SCORE.INTER>
-14.1045

>  <SCORE.INTER.CONST>
1

>  <SCORE.INTER.POLAR>
-1.70593

>  <SCORE.INTER.ROT>
13

>  <SCORE.INTER.SOLV>
13.238

>  <SCORE.INTER.VDW>
-20.3959

>  <SCORE.INTER.norm>
-0.402987

>  <SCORE.INTRA>
0.173502

>  <SCORE.INTRA.DIHEDRAL>
-7.54313

>  <SCORE.INTRA.DIHEDRAL.0>
23.8882

>  <SCORE.INTRA.POLAR>
0

>  <SCORE.INTRA.POLAR.0>
0

>  <SCORE.INTRA.REPUL>
0

>  <SCORE.INTRA.REPUL.0>
0

>  <SCORE.INTRA.SOLV>
4.35461

>  <SCORE.INTRA.SOLV.lig_0>
-97.6888

>  <SCORE.INTRA.VDW>
1.76776

>  <SCORE.INTRA.VDW.0>
-3.9206

>  <SCORE.INTRA.norm>
0.0049572

>  <SCORE.RESTR>
0.15007

>  <SCORE.RESTR.CAVITY>
0.15007

>  <SCORE.RESTR.norm>
0.00428772

>  <SCORE.SYSTEM>
0

>  <SCORE.SYSTEM.CONST>
0

>  <SCORE.SYSTEM.DIHEDRAL>
0

>  <SCORE.SYSTEM.SOLV>
0

>  <SCORE.SYSTEM.norm>
0

>  <SCORE.heavy>
35

>  <SCORE.norm>
-0.393742

>  <RMSD>
1.073

$$$$
2f4t_lig
 OpenBabel11021811433D
libRbt.so/2013.1/901 2013/11/27
 35 36  0  0  0  0  0  0  0  0999 V2000
    2.7526   -5.6601   25.7461 C   0  0  2  0  0  0  0  0  0  0  0  0
    2.0881   -6.4584   26.7797 O   0  0  0  0  0  0  0  0  0  0  0  0
    3.6988   -9.2511   29.6543 C   0  0  2  0  0  0  0  0  0  0  0  0
    4.2354  -10.4984   30.2192 N   0  0  0  0  0  0  0  0  0  0  0  0
    2.1588   -4.2242   25.8698 C   0  0  2  0  0  0  0  0  0  0  0  0
    2.3428   -3.7101   27.2067 N   0  0  0  0  0  0  0  0  0  0  0  0
    2.3528   -9.5593   28.9014 C   0  0  0  0  0  0  0  0  0  0  0  0
    2.9423  -11.3815   31.0358 C   0  0  0  0  0  0  0  0  0  0  0  0
    3.9947  -12.4231   31.3450 C   0  0  1  0  0  0  0  0  0  0  0  0
    3.2825  -13.6310   31.9579 C   0  0  0  0  0  0  0  0  0  0  0  0
    2.8240  -13.4640   33.4164 C   0  0  0  0  0  0  0  0  0  0  0  0
    4.0125  -13.4263   34.2737 N   0  0  0  0  0  0  0  0  0  0  0  0
    4.5995  -12.8901   30.1675 O   0  0  0  0  0  0  0  0  0  0  0  0
    7.2945   -8.0687   29.4542 C   0  0  0  0  0  0  0  0  0  0  0  0
    7.5976   -7.8829   30.9331 C   0  0  0  0  0  0  0  0  0  0  0  0
    0.6404   -4.2353   25.4869 C   0  0  1  0  0  0  0  0  0  0  0  0
    7.0561   -6.6256   31.4941 N   0  0  0  0  0  0  0  0  0  0  0  0
    0.0828   -2.9394   25.5881 O   0  0  0  0  0  0  0  0  0  0  0  0
    1.7441   -8.2959   28.2771 C   0  0  2  0  0  0  0  0  0  0  0  0
    0.5189   -8.6138   27.5504 N   0  0  0  0  0  0  0  0  0  0  0  0
    6.9980   -6.5351   33.9880 C   0  0  0  0  0  0  0  0  0  0  0  0
    5.4409   -6.4056   33.9647 N   0  0  0  0  0  0  0  0  0  0  0  0
    7.6893   -6.0105   32.6949 C   0  0  0  0  0  0  0  0  0  0  0  0
    1.9029  -11.2045   31.2016 O   0  0  0  0  0  0  0  0  0  0  0  0
    0.5150   -4.7693   24.0562 C   0  0  2  0  0  0  0  0  0  0  0  0
   -0.8407   -4.7938   23.6401 O   0  0  0  0  0  0  0  0  0  0  0  0
    2.7253   -7.6513   27.3302 C   0  0  2  0  0  0  0  0  0  0  0  0
    1.1343   -6.1938   23.9657 C   0  0  2  0  0  0  0  0  0  0  0  0
    2.5155   -6.1877   24.3827 O   0  0  0  0  0  0  0  0  0  0  0  0
    4.0771   -7.3084   28.0919 C   0  0  2  0  0  0  0  0  0  0  0  0
    4.9976   -6.6823   27.1486 O   0  0  0  0  0  0  0  0  0  0  0  0
    1.0631   -6.7427   22.5907 C   0  0  0  0  0  0  0  0  0  0  0  0
    0.5709   -8.0003   22.6330 N   0  0  0  0  0  0  0  0  0  0  0  0
    4.6917   -8.6365   28.6555 C   0  0  1  0  0  0  0  0  0  0  0  0
    5.8940   -8.3731   29.3056 O   0  0  0  0  0  0  0  0  0  0  0  0
  1  2  1  1  0  0  0
  1  5  1  0  0  0  0
  1 29  1  0  0  0  0
  3  4  1  6  0  0  0
  3  7  1  0  0  0  0
  3 34  1  0  0  0  0
  5  6  1  1  0  0  0
  5 16  1  0  0  0  0
  7 19  1  0  0  0  0
  8  4  1  0  0  0  0
  8 24  2  0  0  0  0
  9  8  1  6  0  0  0
  9 10  1  0  0  0  0
  9 13  1  0  0  0  0
 10 11  1  0  0  0  0
 11 12  1  0  0  0  0
 14 15  1  0  0  0  0
 14 35  1  0  0  0  0
 15 17  1  0  0  0  0
 16 18  1  6  0  0  0
 16 25  1  0  0  0  0
 19 20  1  6  0  0  0
 19 27  1  0  0  0  0
 21 22  1  0  0  0  0
 21 23  1  0  0  0  0
 23 17  1  0  0  0  0
 25 26  1  1  0  0  0
 25 28  1  0  0  0  0
 27  2  1  1  0  0  0
 27 30  1  0  0  0  0
 28 29  1  0  0  0  0
 28 32  1  6  0  0  0
 30 31  1  6  0  0  0
 30 34  1  0  0  0  0
 32 33  2  0  0  0  0
 34 35  1  1  0  0  0
M  END
>  <CHROM.1>
-155.07161446,-46.38677402,-172.06102472,-75.23852988,-69.47199123,-72.24128254
175.56553789,-154.87052216,-51.27677641,-91.41456683,-175.50560033,-131.61910173
164.22917292,3.30472675,-7.95385578,28.53585037,-2.14610474,0.79137870,2.61365212

>  <Name>
2f4t_lig

>  <RI>
0

>  <Rbt.Current_Directory>
/home/itssahil/PROJECTS/Mol_Feturizer/New_Systems/rnas/2f4t

>  <Rbt.Executable>
rbdock ($Id: //depot/dev/client3/rdock/2013.1/src/exe/rbdock.cxx#4 $)

>  <Rbt.Library>
libRbt.so (2013.1, Build901 2013/11/27)

>  <Rbt.Parameter_File>
/export/apps/rDock/src/rDock_2013.1_src/data/scripts/dock_solv.prm

>  <Rbt.Receptor>
prm/pocket_docking_2.prm

>  <SCORE>
-20.2349

>  <SCORE.INTER>
-16.3323

>  <SCORE.INTER.CONST>
1

>  <SCORE.INTER.POLAR>
-1.77472

>  <SCORE.INTER.ROT>
13

>  <SCORE.INTER.SOLV>
16.4397

>  <SCORE.INTER.VDW>
-22.7191

>  <SCORE.INTER.norm>
-0.466638

>  <SCORE.INTRA>
-4.09706

>  <SCORE.INTRA.DIHEDRAL>
-14.8926

>  <SCORE.INTRA.DIHEDRAL.0>
23.8882

>  <SCORE.INTRA.POLAR>
0

>  <SCORE.INTRA.POLAR.0>
0

>  <SCORE.INTRA.REPUL>
0

>  <SCORE.INTRA.REPUL.0>
0

>  <SCORE.INTRA.SOLV>
2.14744

>  <SCORE.INTRA.SOLV.lig_0>
-97.6888

>  <SCORE.INTRA.VDW>
2.27554

>  <SCORE.INTRA.VDW.0>
-3.9206

>  <SCORE.INTRA.norm>
-0.117059

>  <SCORE.RESTR>
0.194532

>  <SCORE.RESTR.CAVITY>
0.194532

>  <SCORE.RESTR.norm>
0.00555806

>  <SCORE.SYSTEM>
0

>  <SCORE.SYSTEM.CONST>
0

>  <SCORE.SYSTEM.DIHEDRAL>
0

>  <SCORE.SYSTEM.SOLV>
0

>  <SCORE.SYSTEM.norm>
0

>  <SCORE.heavy>
35

>  <SCORE.norm>
-0.578139

>  <RMSD>
1.079

$$$$
2f4t_lig
 OpenBabel11021811433D
libRbt.so/2013.1/901 2013/11/27
 35 36  0  0  0  0  0  0  0  0999 V2000
    3.0624   -5.7946   25.9032 C   0  0  2  0  0  0  0  0  0  0  0  0
    2.3852   -6.4929   26.9990 O   0  0  0  0  0  0  0  0  0  0  0  0
    3.3802   -9.7889   29.6075 C   0  0  2  0  0  0  0  0  0  0  0  0
    3.7248  -11.1497   30.0458 N   0  0  0  0  0  0  0  0  0  0  0  0
    2.5906   -4.3114   25.9877 C   0  0  2  0  0  0  0  0  0  0  0  0
    2.8764   -3.7591   27.2911 N   0  0  0  0  0  0  0  0  0  0  0  0
    2.1039   -9.8467   28.6903 C   0  0  0  0  0  0  0  0  0  0  0  0
    3.9954  -11.1575   31.7909 C   0  0  0  0  0  0  0  0  0  0  0  0
    4.2621  -12.6383   31.6349 C   0  0  1  0  0  0  0  0  0  0  0  0
    4.7175  -13.1712   32.9952 C   0  0  0  0  0  0  0  0  0  0  0  0
    4.9709  -14.6864   33.0658 C   0  0  0  0  0  0  0  0  0  0  0  0
    5.9759  -15.0349   32.0570 N   0  0  0  0  0  0  0  0  0  0  0  0
    3.0810  -13.3311   31.3263 O   0  0  0  0  0  0  0  0  0  0  0  0
    7.0427   -8.8487   29.9640 C   0  0  0  0  0  0  0  0  0  0  0  0
    7.1828   -7.3577   30.2300 C   0  0  0  0  0  0  0  0  0  0  0  0
    1.0601   -4.2149   25.6708 C   0  0  1  0  0  0  0  0  0  0  0  0
    6.8696   -6.9739   31.6240 N   0  0  0  0  0  0  0  0  0  0  0  0
    0.6122   -2.8749   25.7376 O   0  0  0  0  0  0  0  0  0  0  0  0
    1.6961   -8.4544   28.1884 C   0  0  2  0  0  0  0  0  0  0  0  0
    0.5353   -8.5387   27.3078 N   0  0  0  0  0  0  0  0  0  0  0  0
    7.3905   -6.3312   33.9792 C   0  0  0  0  0  0  0  0  0  0  0  0
    6.8118   -4.8820   33.8967 N   0  0  0  0  0  0  0  0  0  0  0  0
    7.9637   -6.8543   32.6290 C   0  0  0  0  0  0  0  0  0  0  0  0
    3.9675  -10.4146   32.5568 O   0  0  0  0  0  0  0  0  0  0  0  0
    0.8269   -4.7955   24.2722 C   0  0  2  0  0  0  0  0  0  0  0  0
   -0.5443   -4.7270   23.9158 O   0  0  0  0  0  0  0  0  0  0  0  0
    2.8362   -7.8096   27.4406 C   0  0  2  0  0  0  0  0  0  0  0  0
    1.3264   -6.2682   24.2193 C   0  0  2  0  0  0  0  0  0  0  0  0
    2.7215   -6.3570   24.5762 O   0  0  0  0  0  0  0  0  0  0  0  0
    4.1207   -7.7193   28.3717 C   0  0  2  0  0  0  0  0  0  0  0  0
    5.1985   -7.0864   27.6189 O   0  0  0  0  0  0  0  0  0  0  0  0
    1.1485   -6.8657   22.8746 C   0  0  0  0  0  0  0  0  0  0  0  0
    0.0582   -7.6638   22.8774 N   0  0  0  0  0  0  0  0  0  0  0  0
    4.5346   -9.1684   28.8054 C   0  0  1  0  0  0  0  0  0  0  0  0
    5.6761   -9.1255   29.6010 O   0  0  0  0  0  0  0  0  0  0  0  0
  1  2  1  1  0  0  0
  1  5  1  0  0  0  0
  1 29  1  0  0  0  0
  3  4  1  6  0  0  0
  3  7  1  0  0  0  0
  3 34  1  0  0  0  0
  5  6  1  1  0  0  0
  5 16  1  0  0  0  0
  7 19  1  0  0  0  0
  8  4  1  0  0  0  0
  8 24  2  0  0  0  0
  9  8  1  1  0  0  0
  9 10  1  0  0  0  0
  9 13  1  0  0  0  0
 10 11  1  0  0  0  0
 11 12  1  0  0  0  0
 14 15  1  0  0  0  0
 14 35  1  0  0  0  0
 15 17  1  0  0  0  0
 16 18  1  6  0  0  0
 16 25  1  0  0  0  0
 19 20  1  6  0  0  0
 19 27  1  0  0  0  0
 21 22  1  0  0  0  0
 21 23  1  0  0  0  0
 23 17  1  0  0  0  0
 25 26  1  1  0  0  0
 25 28  1  0  0  0  0
 27  2  1  1  0  0  0
 27 30  1  0  0  0  0
 28 29  1  0  0  0  0
 28 32  1  6  0  0  0
 30 31  1  6  0  0  0
 30 34  1  0  0  0  0
 32 33  2  0  0  0  0
 34 35  1  1  0  0  0
M  END
>  <CHROM.1>
-164.33924607,-131.55333039,174.62283998,176.93812469,57.34279308,87.27796465
75.09068359,94.62697994,-64.51101552,175.49429982,-160.01350242,-101.57271198
-178.65796129,3.60536745,-8.11733652,28.68060307,-2.24538950,0.85216232,2.78144571

>  <Name>
2f4t_lig

>  <RI>
0

>  <Rbt.Current_Directory>
/home/itssahil/PROJECTS/Mol_Feturizer/New_Systems/rnas/2f4t

>  <Rbt.Executable>
rbdock ($Id: //depot/dev/client3/rdock/2013.1/src/exe/rbdock.cxx#4 $)

>  <Rbt.Library>
libRbt.so (2013.1, Build901 2013/11/27)

>  <Rbt.Parameter_File>
/export/apps/rDock/src/rDock_2013.1_src/data/scripts/dock_solv.prm

>  <Rbt.Receptor>
prm/pocket_docking_2.prm

>  <SCORE>
-18.8826

>  <SCORE.INTER>
-13.6914

>  <SCORE.INTER.CONST>
1

>  <SCORE.INTER.POLAR>
-1.09022

>  <SCORE.INTER.ROT>
13

>  <SCORE.INTER.SOLV>
19.7049

>  <SCORE.INTER.VDW>
-24.3285

>  <SCORE.INTER.norm>
-0.391182

>  <SCORE.INTRA>
-5.84863

>  <SCORE.INTRA.DIHEDRAL>
-13.6959

>  <SCORE.INTRA.DIHEDRAL.0>
23.8882

>  <SCORE.INTRA.POLAR>
0

>  <SCORE.INTRA.POLAR.0>
0

>  <SCORE.INTRA.REPUL>
0

>  <SCORE.INTRA.REPUL.0>
0

>  <SCORE.INTRA.SOLV>
2.39075

>  <SCORE.INTRA.SOLV.lig_0>
-97.6888

>  <SCORE.INTRA.VDW>
-0.196067

>  <SCORE.INTRA.VDW.0>
-3.9206

>  <SCORE.INTRA.norm>
-0.167104

>  <SCORE.RESTR>
0.65738

>  <SCORE.RESTR.CAVITY>
0.65738

>  <SCORE.RESTR.norm>
0.0187823

>  <SCORE.SYSTEM>
0

>  <SCORE.SYSTEM.CONST>
0

>  <SCORE.SYSTEM.DIHEDRAL>
0

>  <SCORE.SYSTEM.SOLV>
0

>  <SCORE.SYSTEM.norm>
0

>  <SCORE.heavy>
35

>  <SCORE.norm>
-0.539504

>  <RMSD>
1.083

$$$$
2f4t_lig
 OpenBabel11021811433D
libRbt.so/2013.1/901 2013/11/27
 35 36  0  0  0  0  0  0  0  0999 V2000
    2.7699   -5.5316   25.7086 C   0  0  2  0  0  0  0  0  0  0  0  0
    2.1094   -6.4002   26.6866 O   0  0  0  0  0  0  0  0  0  0  0  0
    3.5871   -9.6123   29.1676 C   0  0  2  0  0  0  0  0  0  0  0  0
    4.0767  -10.9420   29.5613 N   0  0  0  0  0  0  0  0  0  0  0  0
    2.1050   -4.1306   25.8660 C   0  0  2  0  0  0  0  0  0  0  0  0
    2.2192   -3.6624   27.2273 N   0  0  0  0  0  0  0  0  0  0  0  0
    2.2457   -9.7709   28.3620 C   0  0  0  0  0  0  0  0  0  0  0  0
    3.3924  -11.3834   31.1283 C   0  0  0  0  0  0  0  0  0  0  0  0
    4.1663  -12.6749   30.9822 C   0  0  1  0  0  0  0  0  0  0  0  0
    4.7488  -13.0217   32.3542 C   0  0  0  0  0  0  0  0  0  0  0  0
    3.7203  -13.3274   33.4560 C   0  0  0  0  0  0  0  0  0  0  0  0
    3.1152  -14.6327   33.1749 N   0  0  0  0  0  0  0  0  0  0  0  0
    3.3117  -13.7369   30.6477 O   0  0  0  0  0  0  0  0  0  0  0  0
    6.7085   -8.3646   30.0275 C   0  0  0  0  0  0  0  0  0  0  0  0
    6.2751   -9.0450   31.3170 C   0  0  0  0  0  0  0  0  0  0  0  0
    0.6026   -4.1961   25.4291 C   0  0  1  0  0  0  0  0  0  0  0  0
    6.9551   -8.5185   32.5207 N   0  0  0  0  0  0  0  0  0  0  0  0
   -0.0187   -2.9323   25.5599 O   0  0  0  0  0  0  0  0  0  0  0  0
    1.6854   -8.4148   27.9107 C   0  0  2  0  0  0  0  0  0  0  0  0
    0.4640   -8.5905   27.1314 N   0  0  0  0  0  0  0  0  0  0  0  0
    7.7906   -6.4773   33.6897 C   0  0  0  0  0  0  0  0  0  0  0  0
    7.4784   -5.0482   34.2395 N   0  0  0  0  0  0  0  0  0  0  0  0
    6.5492   -7.2032   33.0921 C   0  0  0  0  0  0  0  0  0  0  0  0
    2.7329  -10.9067   31.8190 O   0  0  0  0  0  0  0  0  0  0  0  0
    0.5510   -4.6778   23.9755 C   0  0  2  0  0  0  0  0  0  0  0  0
   -0.7872   -4.7479   23.5107 O   0  0  0  0  0  0  0  0  0  0  0  0
    2.7014   -7.6772   27.0748 C   0  0  2  0  0  0  0  0  0  0  0  0
    1.2396   -6.0677   23.8525 C   0  0  2  0  0  0  0  0  0  0  0  0
    2.6041   -6.0147   24.3184 O   0  0  0  0  0  0  0  0  0  0  0  0
    4.0495   -7.4857   27.8940 C   0  0  2  0  0  0  0  0  0  0  0  0
    5.0042   -6.7651   27.0583 O   0  0  0  0  0  0  0  0  0  0  0  0
    1.2410   -6.5639   22.4559 C   0  0  0  0  0  0  0  0  0  0  0  0
    0.5677   -7.7337   22.3933 N   0  0  0  0  0  0  0  0  0  0  0  0
    4.6147   -8.8977   28.2762 C   0  0  1  0  0  0  0  0  0  0  0  0
    5.8130   -8.7647   28.9720 O   0  0  0  0  0  0  0  0  0  0  0  0
  1  2  1  1  0  0  0
  1  5  1  0  0  0  0
  1 29  1  0  0  0  0
  3  4  1  6  0  0  0
  3  7  1  0  0  0  0
  3 34  1  0  0  0  0
  5  6  1  1  0  0  0
  5 16  1  0  0  0  0
  7 19  1  0  0  0  0
  8  4  1  0  0  0  0
  8 24  2  0  0  0  0
  9  8  1  1  0  0  0
  9 10  1  0  0  0  0
  9 13  1  0  0  0  0
 10 11  1  0  0  0  0
 11 12  1  0  0  0  0
 14 15  1  0  0  0  0
 14 35  1  0  0  0  0
 15 17  1  0  0  0  0
 16 18  1  6  0  0  0
 16 25  1  0  0  0  0
 19 20  1  6  0  0  0
 19 27  1  0  0  0  0
 21 22  1  0  0  0  0
 21 23  1  0  0  0  0
 23 17  1  0  0  0  0
 25 26  1  1  0  0  0
 25 28  1  0  0  0  0
 27  2  1  1  0  0  0
 27 30  1  0  0  0  0
 28 29  1  0  0  0  0
 28 32  1  6  0  0  0
 30 31  1  6  0  0  0
 30 34  1  0  0  0  0
 32 33  2  0  0  0  0
 34 35  1  1  0  0  0
M  END
>  <CHROM.1>
-163.58860054,-89.25097019,139.75991883,64.33437435,72.03183651,-169.06449912
62.93584509,75.97614666,176.60955623,-145.88848919,-171.11876883,-119.60236007
-58.04552074,3.32339564,-8.10333961,28.48033129,-2.20610766,0.86292759,2.71144115

>  <Name>
2f4t_lig

>  <RI>
0

>  <Rbt.Current_Directory>
/home/itssahil/PROJECTS/Mol_Feturizer/New_Systems/rnas/2f4t

>  <Rbt.Executable>
rbdock ($Id: //depot/dev/client3/rdock/2013.1/src/exe/rbdock.cxx#4 $)

>  <Rbt.Library>
libRbt.so (2013.1, Build901 2013/11/27)

>  <Rbt.Parameter_File>
/export/apps/rDock/src/rDock_2013.1_src/data/scripts/dock_solv.prm

>  <Rbt.Receptor>
prm/pocket_docking_3.prm

>  <SCORE>
-21.73

>  <SCORE.INTER>
-14.2705

>  <SCORE.INTER.CONST>
1

>  <SCORE.INTER.POLAR>
-0.938083

>  <SCORE.INTER.ROT>
13

>  <SCORE.INTER.SOLV>
21.6846

>  <SCORE.INTER.VDW>
-25.8816

>  <SCORE.INTER.norm>
-0.40773

>  <SCORE.INTRA>
-7.45944

>  <SCORE.INTRA.DIHEDRAL>
-16.7655

>  <SCORE.INTRA.DIHEDRAL.0>
23.8882

>  <SCORE.INTRA.POLAR>
0

>  <SCORE.INTRA.POLAR.0>
0

>  <SCORE.INTRA.REPUL>
0

>  <SCORE.INTRA.REPUL.0>
0

>  <SCORE.INTRA.SOLV>
1.55564

>  <SCORE.INTRA.SOLV.lig_0>
-97.6888

>  <SCORE.INTRA.VDW>
0.145478

>  <SCORE.INTRA.VDW.0>
-3.9206

>  <SCORE.INTRA.norm>
-0.213127

>  <SCORE.RESTR>
0

>  <SCORE.RESTR.CAVITY>
0

>  <SCORE.RESTR.norm>
0

>  <SCORE.SYSTEM>
0

>  <SCORE.SYSTEM.CONST>
0

>  <SCORE.SYSTEM.DIHEDRAL>
0

>  <SCORE.SYSTEM.SOLV>
0

>  <SCORE.SYSTEM.norm>
0

>  <SCORE.heavy>
35

>  <SCORE.norm>
-0.620856

>  <RMSD>
1.088

$$$$
2f4t_lig
 OpenBabel11021811433D
libRbt.so/2013.1/901 2013/11/27
 35 36  0  0  0  0  0  0  0  0999 V2000
    2.8260   -5.6291   25.6795 C   0  0  2  0  0  0  0  0  0  0  0  0
    2.1556   -6.3909   26.7366 O   0  0  0  0  0  0  0  0  0  0  0  0
    3.4095   -9.5073   29.4520 C   0  0  2  0  0  0  0  0  0  0  0  0
    3.8649  -10.8197   29.9346 N   0  0  0  0  0  0  0  0  0  0  0  0
    2.2994   -4.1677   25.8086 C   0  0  2  0  0  0  0  0  0  0  0  0
    2.5423   -3.6539   27.1362 N   0  0  0  0  0  0  0  0  0  0  0  0
    2.1478   -9.7014   28.5333 C   0  0  0  0  0  0  0  0  0  0  0  0
    2.7374  -11.4255   31.1513 C   0  0  0  0  0  0  0  0  0  0  0  0
    3.6378  -12.6386   31.2267 C   0  0  1  0  0  0  0  0  0  0  0  0
    4.4464  -12.5335   32.5218 C   0  0  0  0  0  0  0  0  0  0  0  0
    4.8907  -13.8700   33.1395 C   0  0  0  0  0  0  0  0  0  0  0  0
    5.8205  -14.5219   32.2125 N   0  0  0  0  0  0  0  0  0  0  0  0
    2.8837  -13.8171   31.3389 O   0  0  0  0  0  0  0  0  0  0  0  0
    6.7117   -9.0184   30.3242 C   0  0  0  0  0  0  0  0  0  0  0  0
    7.6421   -7.8254   30.4816 C   0  0  0  0  0  0  0  0  0  0  0  0
    0.7720   -4.1142   25.4670 C   0  0  1  0  0  0  0  0  0  0  0  0
    6.9387   -6.5667   30.8124 N   0  0  0  0  0  0  0  0  0  0  0  0
    0.2749   -2.7944   25.5736 O   0  0  0  0  0  0  0  0  0  0  0  0
    1.6273   -8.3650   27.9860 C   0  0  2  0  0  0  0  0  0  0  0  0
    0.4827   -8.5746   27.1049 N   0  0  0  0  0  0  0  0  0  0  0  0
    7.2132   -6.4844   33.2922 C   0  0  0  0  0  0  0  0  0  0  0  0
    7.5415   -5.6238   34.5546 N   0  0  0  0  0  0  0  0  0  0  0  0
    7.4107   -5.7240   31.9475 C   0  0  0  0  0  0  0  0  0  0  0  0
    1.8397  -11.0529   31.5924 O   0  0  0  0  0  0  0  0  0  0  0  0
    0.5843   -4.6510   24.0442 C   0  0  2  0  0  0  0  0  0  0  0  0
   -0.7821   -4.6183   23.6651 O   0  0  0  0  0  0  0  0  0  0  0  0
    2.7133   -7.6503   27.2213 C   0  0  2  0  0  0  0  0  0  0  0  0
    1.1377   -6.1021   23.9475 C   0  0  2  0  0  0  0  0  0  0  0  0
    2.5287   -6.1542   24.3269 O   0  0  0  0  0  0  0  0  0  0  0  0
    3.9803   -7.4227   28.1530 C   0  0  2  0  0  0  0  0  0  0  0  0
    5.0053   -6.7253   27.3836 O   0  0  0  0  0  0  0  0  0  0  0  0
    1.0048   -6.6558   22.5791 C   0  0  0  0  0  0  0  0  0  0  0  0
   -0.0320   -7.5214   22.5425 N   0  0  0  0  0  0  0  0  0  0  0  0
    4.5122   -8.8173   28.6340 C   0  0  1  0  0  0  0  0  0  0  0  0
    5.6415   -8.6534   29.4312 O   0  0  0  0  0  0  0  0  0  0  0  0
  1  2  1  1  0  0  0
  1  5  1  0  0  0  0
  1 29  1  0  0  0  0
  3  4  1  6  0  0  0
  3  7  1  0  0  0  0
  3 34  1  0  0  0  0
  5  6  1  1  0  0  0
  5 16  1  0  0  0  0
  7 19  1  0  0  0  0
  8  4  1  0  0  0  0
  8 24  2  0  0  0  0
  9  8  1  1  0  0  0
  9 10  1  0  0  0  0
  9 13  1  0  0  0  0
 10 11  1  0  0  0  0
 11 12  1  0  0  0  0
 14 15  1  0  0  0  0
 14 35  1  0  0  0  0
 15 17  1  0  0  0  0
 16 18  1  6  0  0  0
 16 25  1  0  0  0  0
 19 20  1  6  0  0  0
 19 27  1  0  0  0  0
 21 22  1  0  0  0  0
 21 23  1  0  0  0  0
 23 17  1  0  0  0  0
 25 26  1  1  0  0  0
 25 28  1  0  0  0  0
 27  2  1  1  0  0  0
 27 30  1  0  0  0  0
 28 29  1  0  0  0  0
 28 32  1  6  0  0  0
 30 31  1  6  0  0  0
 30 34  1  0  0  0  0
 32 33  2  0  0  0  0
 34 35  1  1  0  0  0
M  END
>  <CHROM.1>
-158.84807610,-72.84305554,104.83420338,151.92788169,64.57597899,50.03622010
173.12170215,130.55128901,-173.99146403,-65.83966681,-163.99433468,-103.33307230
52.00225049,3.38028774,-7.98585132,28.45718461,-2.19507197,0.78944460,2.69964933

>  <Name>
2f4t_lig

>  <RI>
0

>  <Rbt.Current_Directory>
/home/itssahil/PROJECTS/Mol_Feturizer/New_Systems/rnas/2f4t

>  <Rbt.Executable>
rbdock ($Id: //depot/dev/client3/rdock/2013.1/src/exe/rbdock.cxx#4 $)

>  <Rbt.Library>
libRbt.so (2013.1, Build901 2013/11/27)

>  <Rbt.Parameter_File>
/export/apps/rDock/src/rDock_2013.1_src/data/scripts/dock_solv.prm

>  <Rbt.Receptor>
prm/pocket_docking_2.prm

>  <SCORE>
-16.2526

>  <SCORE.INTER>
-11.6107

>  <SCORE.INTER.CONST>
1

>  <SCORE.INTER.POLAR>
-1.2143

>  <SCORE.INTER.ROT>
13

>  <SCORE.INTER.SOLV>
23.6734

>  <SCORE.INTER.VDW>
-23.8506

>  <SCORE.INTER.norm>
-0.331735

>  <SCORE.INTRA>
-4.89831

>  <SCORE.INTRA.DIHEDRAL>
-12.848

>  <SCORE.INTRA.DIHEDRAL.0>
23.8882

>  <SCORE.INTRA.POLAR>
0

>  <SCORE.INTRA.POLAR.0>
0

>  <SCORE.INTRA.REPUL>
0

>  <SCORE.INTRA.REPUL.0>
0

>  <SCORE.INTRA.SOLV>
1.44781

>  <SCORE.INTRA.SOLV.lig_0>
-97.6888

>  <SCORE.INTRA.VDW>
0.801798

>  <SCORE.INTRA.VDW.0>
-3.9206

>  <SCORE.INTRA.norm>
-0.139952

>  <SCORE.RESTR>
0.256444

>  <SCORE.RESTR.CAVITY>
0.256444

>  <SCORE.RESTR.norm>
0.00732697

>  <SCORE.SYSTEM>
0

>  <SCORE.SYSTEM.CONST>
0

>  <SCORE.SYSTEM.DIHEDRAL>
0

>  <SCORE.SYSTEM.SOLV>
0

>  <SCORE.SYSTEM.norm>
0

>  <SCORE.heavy>
35

>  <SCORE.norm>
-0.464359

>  <RMSD>
1.092

$$$$
2f4t_lig
 OpenBabel11021811433D
libRbt.so/2013.1/901 2013/11/27
 35 36  0  0  0  0  0  0  0  0999 V2000
    2.9269   -5.5484   25.8870 C   0  0  2  0  0  0  0  0  0  0  0  0
    2.3012   -6.3589   26.9352 O   0  0  0  0  0  0  0  0  0  0  0  0
    3.8808   -9.4821   29.4667 C   0  0  2  0  0  0  0  0  0  0  0  0
    4.3614  -10.8046   29.8940 N   0  0  0  0  0  0  0  0  0  0  0  0
    2.2950   -4.1290   26.0124 C   0  0  2  0  0  0  0  0  0  0  0  0
    2.4853   -3.6022   27.3435 N   0  0  0  0  0  0  0  0  0  0  0  0
    2.4740   -9.6378   28.7808 C   0  0  0  0  0  0  0  0  0  0  0  0
    3.4494  -11.3354   31.3102 C   0  0  0  0  0  0  0  0  0  0  0  0
    4.2974  -12.5867   31.2541 C   0  0  1  0  0  0  0  0  0  0  0  0
    4.4542  -13.1026   32.6863 C   0  0  0  0  0  0  0  0  0  0  0  0
    5.4038  -14.2994   32.8627 C   0  0  0  0  0  0  0  0  0  0  0  0
    4.7872  -15.4750   32.2407 N   0  0  0  0  0  0  0  0  0  0  0  0
    3.6408  -13.6066   30.5478 O   0  0  0  0  0  0  0  0  0  0  0  0
    7.3732   -9.1324   29.5997 C   0  0  0  0  0  0  0  0  0  0  0  0
    8.0757   -7.9085   30.1670 C   0  0  0  0  0  0  0  0  0  0  0  0
    0.7717   -4.1847   25.6534 C   0  0  1  0  0  0  0  0  0  0  0  0
    7.4751   -7.4120   31.4246 N   0  0  0  0  0  0  0  0  0  0  0  0
    0.1797   -2.9044   25.7565 O   0  0  0  0  0  0  0  0  0  0  0  0
    1.9192   -8.2896   28.3003 C   0  0  2  0  0  0  0  0  0  0  0  0
    0.6336   -8.4651   27.6320 N   0  0  0  0  0  0  0  0  0  0  0  0
    7.5422   -6.3925   33.7022 C   0  0  0  0  0  0  0  0  0  0  0  0
    6.1013   -5.7958   33.6047 N   0  0  0  0  0  0  0  0  0  0  0  0
    8.2605   -6.5225   32.3266 C   0  0  0  0  0  0  0  0  0  0  0  0
    2.6630  -10.9140   31.8960 O   0  0  0  0  0  0  0  0  0  0  0  0
    0.6392   -4.7302   24.2278 C   0  0  2  0  0  0  0  0  0  0  0  0
   -0.7216   -4.7951   23.8331 O   0  0  0  0  0  0  0  0  0  0  0  0
    2.8850   -7.6327   27.3460 C   0  0  2  0  0  0  0  0  0  0  0  0
    1.2967   -6.1374   24.1351 C   0  0  2  0  0  0  0  0  0  0  0  0
    2.6835   -6.0903   24.5303 O   0  0  0  0  0  0  0  0  0  0  0  0
    4.3004   -7.4436   28.0430 C   0  0  2  0  0  0  0  0  0  0  0  0
    5.2047   -6.8015   27.0948 O   0  0  0  0  0  0  0  0  0  0  0  0
    1.2195   -6.6960   22.7644 C   0  0  0  0  0  0  0  0  0  0  0  0
    0.5528   -7.8709   22.7940 N   0  0  0  0  0  0  0  0  0  0  0  0
    4.8529   -8.8515   28.4575 C   0  0  1  0  0  0  0  0  0  0  0  0
    6.1074   -8.7222   29.0469 O   0  0  0  0  0  0  0  0  0  0  0  0
  1  2  1  1  0  0  0
  1  5  1  0  0  0  0
  1 29  1  0  0  0  0
  3  4  1  6  0  0  0
  3  7  1  0  0  0  0
  3 34  1  0  0  0  0
  5  6  1  1  0  0  0
  5 16  1  0  0  0  0
  7 19  1  0  0  0  0
  8  4  1  0  0  0  0
  8 24  2  0  0  0  0
  9  8  1  1  0  0  0
  9 10  1  0  0  0  0
  9 13  1  0  0  0  0
 10 11  1  0  0  0  0
 11 12  1  0  0  0  0
 14 15  1  0  0  0  0
 14 35  1  0  0  0  0
 15 17  1  0  0  0  0
 16 18  1  6  0  0  0
 16 25  1  0  0  0  0
 19 20  1  6  0  0  0
 19 27  1  0  0  0  0
 21 22  1  0  0  0  0
 21 23  1  0  0  0  0
 23 17  1  0  0  0  0
 25 26  1  1  0  0  0
 25 28  1  0  0  0  0
 27  2  1  1  0  0  0
 27 30  1  0  0  0  0
 28 29  1  0  0  0  0
 28 32  1  6  0  0  0
 30 31  1  6  0  0  0
 30 34  1  0  0  0  0
 32 33  2  0  0  0  0
 34 35  1  1  0  0  0
M  END
>  <CHROM.1>
-163.99448260,-73.52045925,149.58729763,-174.22322574,-69.00963628,73.00986203
-174.66298005,160.76911340,-59.79252805,-167.79472977,-172.89356425,-121.12608649
70.20800436,3.61996928,-8.09630656,28.49827757,-2.20728775,0.78342747,2.76009077

>  <Name>
2f4t_lig

>  <RI>
0

>  <Rbt.Current_Directory>
/home/itssahil/PROJECTS/Mol_Feturizer/New_Systems/rnas/2f4t

>  <Rbt.Executable>
rbdock ($Id: //depot/dev/client3/rdock/2013.1/src/exe/rbdock.cxx#4 $)

>  <Rbt.Library>
libRbt.so (2013.1, Build901 2013/11/27)

>  <Rbt.Parameter_File>
/export/apps/rDock/src/rDock_2013.1_src/data/scripts/dock_solv.prm

>  <Rbt.Receptor>
prm/pocket_docking_4.prm

>  <SCORE>
-24.6607

>  <SCORE.INTER>
-16.6287

>  <SCORE.INTER.CONST>
1

>  <SCORE.INTER.POLAR>
-0.938083

>  <SCORE.INTER.ROT>
13

>  <SCORE.INTER.SOLV>
16.4977

>  <SCORE.INTER.VDW>
-25.7248

>  <SCORE.INTER.norm>
-0.475107

>  <SCORE.INTRA>
-8.03197

>  <SCORE.INTRA.DIHEDRAL>
-17.7833

>  <SCORE.INTRA.DIHEDRAL.0>
23.8882

>  <SCORE.INTRA.POLAR>
0

>  <SCORE.INTRA.POLAR.0>
0

>  <SCORE.INTRA.REPUL>
0

>  <SCORE.INTRA.REPUL.0>
0

>  <SCORE.INTRA.SOLV>
1.73114

>  <SCORE.INTRA.SOLV.lig_0>
-97.6888

>  <SCORE.INTRA.VDW>
-0.00589574

>  <SCORE.INTRA.VDW.0>
-3.9206

>  <SCORE.INTRA.norm>
-0.229485

>  <SCORE.RESTR>
0

>  <SCORE.RESTR.CAVITY>
0

>  <SCORE.RESTR.norm>
0

>  <SCORE.SYSTEM>
0

>  <SCORE.SYSTEM.CONST>
0

>  <SCORE.SYSTEM.DIHEDRAL>
0

>  <SCORE.SYSTEM.SOLV>
0

>  <SCORE.SYSTEM.norm>
0

>  <SCORE.heavy>
35

>  <SCORE.norm>
-0.704592

>  <RMSD>
1.101

$$$$
2f4t_lig
 OpenBabel11021811433D
libRbt.so/2013.1/901 2013/11/27
 35 36  0  0  0  0  0  0  0  0999 V2000
    3.0968   -5.8515   25.8957 C   0  0  2  0  0  0  0  0  0  0  0  0
    2.3938   -6.5514   26.9742 O   0  0  0  0  0  0  0  0  0  0  0  0
    3.4349   -9.8098   29.6116 C   0  0  2  0  0  0  0  0  0  0  0  0
    3.7690  -11.1680   30.0658 N   0  0  0  0  0  0  0  0  0  0  0  0
    2.7252   -4.3459   26.0522 C   0  0  2  0  0  0  0  0  0  0  0  0
    3.0688   -3.8706   27.3719 N   0  0  0  0  0  0  0  0  0  0  0  0
    2.1164   -9.8585   28.7556 C   0  0  0  0  0  0  0  0  0  0  0  0
    2.5307  -11.7367   31.1892 C   0  0  0  0  0  0  0  0  0  0  0  0
    3.3395  -13.0126   31.2671 C   0  0  1  0  0  0  0  0  0  0  0  0
    4.2807  -12.8898   32.4675 C   0  0  0  0  0  0  0  0  0  0  0  0
    5.1401  -14.1290   32.7692 C   0  0  0  0  0  0  0  0  0  0  0  0
    5.9134  -13.8704   33.9875 N   0  0  0  0  0  0  0  0  0  0  0  0
    2.5134  -14.1147   31.5374 O   0  0  0  0  0  0  0  0  0  0  0  0
    7.1218   -8.9179   29.7892 C   0  0  0  0  0  0  0  0  0  0  0  0
    7.2527   -7.4398   30.1234 C   0  0  0  0  0  0  0  0  0  0  0  0
    1.1991   -4.1363   25.7701 C   0  0  1  0  0  0  0  0  0  0  0  0
    6.8750   -7.1128   31.5158 N   0  0  0  0  0  0  0  0  0  0  0  0
    0.8417   -2.7743   25.9023 O   0  0  0  0  0  0  0  0  0  0  0  0
    1.7170   -8.4688   28.2402 C   0  0  2  0  0  0  0  0  0  0  0  0
    0.5150   -8.5458   27.4160 N   0  0  0  0  0  0  0  0  0  0  0  0
    6.5959   -5.6207   33.4976 C   0  0  0  0  0  0  0  0  0  0  0  0
    5.4231   -6.5153   34.0135 N   0  0  0  0  0  0  0  0  0  0  0  0
    6.8052   -5.6906   31.9559 C   0  0  0  0  0  0  0  0  0  0  0  0
    1.6355  -11.3179   31.5922 O   0  0  0  0  0  0  0  0  0  0  0  0
    0.9044   -4.6391   24.3531 C   0  0  2  0  0  0  0  0  0  0  0  0
   -0.4651   -4.4662   24.0272 O   0  0  0  0  0  0  0  0  0  0  0  0
    2.8353   -7.8679   27.4257 C   0  0  2  0  0  0  0  0  0  0  0  0
    1.3049   -6.1375   24.2280 C   0  0  2  0  0  0  0  0  0  0  0  0
    2.6970   -6.3323   24.5531 O   0  0  0  0  0  0  0  0  0  0  0  0
    4.1633   -7.7867   28.2945 C   0  0  2  0  0  0  0  0  0  0  0  0
    5.2189   -7.1964   27.4781 O   0  0  0  0  0  0  0  0  0  0  0  0
    1.0652   -6.6631   22.8630 C   0  0  0  0  0  0  0  0  0  0  0  0
   -0.1081   -7.3326   22.8382 N   0  0  0  0  0  0  0  0  0  0  0  0
    4.5644   -9.2349   28.7429 C   0  0  1  0  0  0  0  0  0  0  0  0
    5.7423   -9.2008   29.4840 O   0  0  0  0  0  0  0  0  0  0  0  0
  1  2  1  1  0  0  0
  1  5  1  0  0  0  0
  1 29  1  0  0  0  0
  3  4  1  6  0  0  0
  3  7  1  0  0  0  0
  3 34  1  0  0  0  0
  5  6  1  1  0  0  0
  5 16  1  0  0  0  0
  7 19  1  0  0  0  0
  8  4  1  0  0  0  0
  8 24  2  0  0  0  0
  9  8  1  1  0  0  0
  9 10  1  0  0  0  0
  9 13  1  0  0  0  0
 10 11  1  0  0  0  0
 11 12  1  0  0  0  0
 14 15  1  0  0  0  0
 14 35  1  0  0  0  0
 15 17  1  0  0  0  0
 16 18  1  6  0  0  0
 16 25  1  0  0  0  0
 19 20  1  6  0  0  0
 19 27  1  0  0  0  0
 21 22  1  0  0  0  0
 21 23  1  0  0  0  0
 23 17  1  0  0  0  0
 25 26  1  1  0  0  0
 25 28  1  0  0  0  0
 27  2  1  1  0  0  0
 27 30  1  0  0  0  0
 28 29  1  0  0  0  0
 28 32  1  6  0  0  0
 30 31  1  6  0  0  0
 30 34  1  0  0  0  0
 32 33  2  0  0  0  0
 34 35  1  1  0  0  0
M  END
>  <CHROM.1>
-159.20111862,-65.99008070,93.81024500,176.62373488,-176.55905492,81.43095592
76.42749481,-173.30267543,-50.19957429,-171.68955320,-164.49704826,-98.58906341
-175.10769093,3.37633216,-8.12408092,28.63179988,-2.09092448,0.80926762,2.67174229

>  <Name>
2f4t_lig

>  <RI>
0

>  <Rbt.Current_Directory>
/home/itssahil/PROJECTS/Mol_Feturizer/New_Systems/rnas/2f4t

>  <Rbt.Executable>
rbdock ($Id: //depot/dev/client3/rdock/2013.1/src/exe/rbdock.cxx#4 $)

>  <Rbt.Library>
libRbt.so (2013.1, Build901 2013/11/27)

>  <Rbt.Parameter_File>
/export/apps/rDock/src/rDock_2013.1_src/data/scripts/dock_solv.prm

>  <Rbt.Receptor>
prm/pocket_docking_2.prm

>  <SCORE>
-16.4429

>  <SCORE.INTER>
-9.52481

>  <SCORE.INTER.CONST>
1

>  <SCORE.INTER.POLAR>
-1.36522

>  <SCORE.INTER.ROT>
13

>  <SCORE.INTER.SOLV>
20.3974

>  <SCORE.INTER.VDW>
-20.8649

>  <SCORE.INTER.norm>
-0.272137

>  <SCORE.INTRA>
-7.04728

>  <SCORE.INTRA.DIHEDRAL>
-14.4976

>  <SCORE.INTRA.DIHEDRAL.0>
23.8882

>  <SCORE.INTRA.POLAR>
0

>  <SCORE.INTRA.POLAR.0>
0

>  <SCORE.INTRA.REPUL>
0

>  <SCORE.INTRA.REPUL.0>
0

>  <SCORE.INTRA.SOLV>
0.826897

>  <SCORE.INTRA.SOLV.lig_0>
-97.6888

>  <SCORE.INTRA.VDW>
-0.211913

>  <SCORE.INTRA.VDW.0>
-3.9206

>  <SCORE.INTRA.norm>
-0.201351

>  <SCORE.RESTR>
0.129154

>  <SCORE.RESTR.CAVITY>
0.129154

>  <SCORE.RESTR.norm>
0.00369012

>  <SCORE.SYSTEM>
0

>  <SCORE.SYSTEM.CONST>
0

>  <SCORE.SYSTEM.DIHEDRAL>
0

>  <SCORE.SYSTEM.SOLV>
0

>  <SCORE.SYSTEM.norm>
0

>  <SCORE.heavy>
35

>  <SCORE.norm>
-0.469798

>  <RMSD>
1.146

$$$$
2f4t_lig
 OpenBabel11021811433D
libRbt.so/2013.1/901 2013/11/27
 35 36  0  0  0  0  0  0  0  0999 V2000
    2.5789   -5.4331   25.6242 C   0  0  2  0  0  0  0  0  0  0  0  0
    1.9542   -6.3148   26.6139 O   0  0  0  0  0  0  0  0  0  0  0  0
    3.3518   -9.4438   29.2432 C   0  0  2  0  0  0  0  0  0  0  0  0
    3.9368  -10.7180   29.6871 N   0  0  0  0  0  0  0  0  0  0  0  0
    1.8565   -4.0588   25.7623 C   0  0  2  0  0  0  0  0  0  0  0  0
    1.9503   -3.5677   27.1171 N   0  0  0  0  0  0  0  0  0  0  0  0
    2.2318   -9.7306   28.1769 C   0  0  0  0  0  0  0  0  0  0  0  0
    2.8269  -11.5215   30.8011 C   0  0  0  0  0  0  0  0  0  0  0  0
    3.8632  -12.6212   30.8711 C   0  0  1  0  0  0  0  0  0  0  0  0
    3.4247  -13.5998   31.9629 C   0  0  0  0  0  0  0  0  0  0  0  0
    3.4078  -13.0368   33.3939 C   0  0  0  0  0  0  0  0  0  0  0  0
    4.7936  -12.8816   33.8464 N   0  0  0  0  0  0  0  0  0  0  0  0
    3.8901  -13.3619   29.6791 O   0  0  0  0  0  0  0  0  0  0  0  0
    6.4812   -8.5893   30.4731 C   0  0  0  0  0  0  0  0  0  0  0  0
    6.9390   -7.2849   31.1075 C   0  0  0  0  0  0  0  0  0  0  0  0
    0.3584   -4.1924   25.3261 C   0  0  1  0  0  0  0  0  0  0  0  0
    7.7468   -7.4748   32.3322 N   0  0  0  0  0  0  0  0  0  0  0  0
   -0.3147   -2.9537   25.4395 O   0  0  0  0  0  0  0  0  0  0  0  0
    1.5858   -8.4362   27.6632 C   0  0  2  0  0  0  0  0  0  0  0  0
    0.5795   -8.7256   26.6465 N   0  0  0  0  0  0  0  0  0  0  0  0
    6.2099   -6.5650   34.0763 C   0  0  0  0  0  0  0  0  0  0  0  0
    5.1922   -5.5845   33.4095 N   0  0  0  0  0  0  0  0  0  0  0  0
    7.6373   -6.5027   33.4567 C   0  0  0  0  0  0  0  0  0  0  0  0
    1.8677  -11.2839   31.2044 O   0  0  0  0  0  0  0  0  0  0  0  0
    0.3279   -4.6956   23.8792 C   0  0  2  0  0  0  0  0  0  0  0  0
   -1.0059   -4.8273   23.4152 O   0  0  0  0  0  0  0  0  0  0  0  0
    2.6322   -7.5230   27.0749 C   0  0  2  0  0  0  0  0  0  0  0  0
    1.0735   -6.0573   23.7754 C   0  0  2  0  0  0  0  0  0  0  0  0
    2.4343   -5.9416   24.2407 O   0  0  0  0  0  0  0  0  0  0  0  0
    3.7513   -7.2036   28.1568 C   0  0  2  0  0  0  0  0  0  0  0  0
    4.7406   -6.3153   27.5557 O   0  0  0  0  0  0  0  0  0  0  0  0
    1.0963   -6.5721   22.3857 C   0  0  0  0  0  0  0  0  0  0  0  0
    0.6597   -7.8508   22.3722 N   0  0  0  0  0  0  0  0  0  0  0  0
    4.4236   -8.5485   28.6023 C   0  0  1  0  0  0  0  0  0  0  0  0
    5.4300   -8.2995   29.5312 O   0  0  0  0  0  0  0  0  0  0  0  0
  1  2  1  1  0  0  0
  1  5  1  0  0  0  0
  1 29  1  0  0  0  0
  3  4  1  6  0  0  0
  3  7  1  0  0  0  0
  3 34  1  0  0  0  0
  5  6  1  1  0  0  0
  5 16  1  0  0  0  0
  7 19  1  0  0  0  0
  8  4  1  0  0  0  0
  8 24  2  0  0  0  0
  9  8  1  6  0  0  0
  9 10  1  0  0  0  0
  9 13  1  0  0  0  0
 10 11  1  0  0  0  0
 11 12  1  0  0  0  0
 14 15  1  0  0  0  0
 14 35  1  0  0  0  0
 15 17  1  0  0  0  0
 16 18  1  6  0  0  0
 16 25  1  0  0  0  0
 19 20  1  6  0  0  0
 19 27  1  0  0  0  0
 21 22  1  0  0  0  0
 21 23  1  0  0  0  0
 23 17  1  0  0  0  0
 25 26  1  1  0  0  0
 25 28  1  0  0  0  0
 27  2  1  1  0  0  0
 27 30  1  0  0  0  0
 28 29  1  0  0  0  0
 28 32  1  6  0  0  0
 30 31  1  6  0  0  0
 30 34  1  0  0  0  0
 32 33  2  0  0  0  0
 34 35  1  1  0  0  0
M  END
>  <CHROM.1>
-160.15764508,-76.13195318,172.26335075,-65.15419278,-72.65596327,164.64708148
-175.57376186,-145.23143256,-89.85815426,65.53634371,-159.93443389,-128.92737162
57.90116708,3.13906923,-7.92465600,28.42342102,-2.27957265,0.89943823,2.75425173

>  <Name>
2f4t_lig

>  <RI>
0

>  <Rbt.Current_Directory>
/home/itssahil/PROJECTS/Mol_Feturizer/New_Systems/rnas/2f4t

>  <Rbt.Executable>
rbdock ($Id: //depot/dev/client3/rdock/2013.1/src/exe/rbdock.cxx#4 $)

>  <Rbt.Library>
libRbt.so (2013.1, Build901 2013/11/27)

>  <Rbt.Parameter_File>
/export/apps/rDock/src/rDock_2013.1_src/data/scripts/dock_solv.prm

>  <Rbt.Receptor>
prm/pocket_docking_2.prm

>  <SCORE>
-16.9863

>  <SCORE.INTER>
-12.2559

>  <SCORE.INTER.CONST>
1

>  <SCORE.INTER.POLAR>
-0.965646

>  <SCORE.INTER.ROT>
13

>  <SCORE.INTER.SOLV>
20.3537

>  <SCORE.INTER.VDW>
-24.003

>  <SCORE.INTER.norm>
-0.350168

>  <SCORE.INTRA>
-5.04656

>  <SCORE.INTRA.DIHEDRAL>
-13.1942

>  <SCORE.INTRA.DIHEDRAL.0>
23.8882

>  <SCORE.INTRA.POLAR>
0

>  <SCORE.INTRA.POLAR.0>
0

>  <SCORE.INTRA.REPUL>
0

>  <SCORE.INTRA.REPUL.0>
0

>  <SCORE.INTRA.SOLV>
2.27286

>  <SCORE.INTRA.SOLV.lig_0>
-97.6888

>  <SCORE.INTRA.VDW>
0.414109

>  <SCORE.INTRA.VDW.0>
-3.9206

>  <SCORE.INTRA.norm>
-0.144187

>  <SCORE.RESTR>
0.316109

>  <SCORE.RESTR.CAVITY>
0.316109

>  <SCORE.RESTR.norm>
0.00903168

>  <SCORE.SYSTEM>
0

>  <SCORE.SYSTEM.CONST>
0

>  <SCORE.SYSTEM.DIHEDRAL>
0

>  <SCORE.SYSTEM.SOLV>
0

>  <SCORE.SYSTEM.norm>
0

>  <SCORE.heavy>
35

>  <SCORE.norm>
-0.485323

>  <RMSD>
1.149

$$$$
2f4t_lig
 OpenBabel11021811433D
libRbt.so/2013.1/901 2013/11/27
 35 36  0  0  0  0  0  0  0  0999 V2000
    2.9514   -5.6069   25.9474 C   0  0  2  0  0  0  0  0  0  0  0  0
    2.2954   -6.4128   26.9806 O   0  0  0  0  0  0  0  0  0  0  0  0
    3.8914   -9.5474   29.4874 C   0  0  2  0  0  0  0  0  0  0  0  0
    4.3380  -10.8808   29.9178 N   0  0  0  0  0  0  0  0  0  0  0  0
    2.3738   -4.1672   26.0998 C   0  0  2  0  0  0  0  0  0  0  0  0
    2.5839   -3.6732   27.4404 N   0  0  0  0  0  0  0  0  0  0  0  0
    2.4377   -9.6526   28.8963 C   0  0  0  0  0  0  0  0  0  0  0  0
    3.6551  -11.2490   31.5043 C   0  0  0  0  0  0  0  0  0  0  0  0
    4.3815  -12.5711   31.3912 C   0  0  1  0  0  0  0  0  0  0  0  0
    4.6531  -13.0714   32.8116 C   0  0  0  0  0  0  0  0  0  0  0  0
    5.4956  -14.3538   32.9160 C   0  0  0  0  0  0  0  0  0  0  0  0
    4.6995  -15.4734   32.4041 N   0  0  0  0  0  0  0  0  0  0  0  0
    3.5651  -13.5424   30.7909 O   0  0  0  0  0  0  0  0  0  0  0  0
    7.1733   -8.9090   29.8894 C   0  0  0  0  0  0  0  0  0  0  0  0
    6.8175   -7.9233   30.9918 C   0  0  0  0  0  0  0  0  0  0  0  0
    0.8495   -4.1584   25.7409 C   0  0  1  0  0  0  0  0  0  0  0  0
    7.7551   -7.9521   32.1358 N   0  0  0  0  0  0  0  0  0  0  0  0
    0.3064   -2.8587   25.8684 O   0  0  0  0  0  0  0  0  0  0  0  0
    1.9148   -8.2913   28.4170 C   0  0  2  0  0  0  0  0  0  0  0  0
    0.5822   -8.4216   27.8362 N   0  0  0  0  0  0  0  0  0  0  0  0
    7.9816   -5.5129   32.6157 C   0  0  0  0  0  0  0  0  0  0  0  0
    9.3917   -5.4190   31.9488 N   0  0  0  0  0  0  0  0  0  0  0  0
    7.6601   -6.9181   33.2050 C   0  0  0  0  0  0  0  0  0  0  0  0
    3.0201  -10.7281   32.1859 O   0  0  0  0  0  0  0  0  0  0  0  0
    0.6964   -4.6716   24.3053 C   0  0  2  0  0  0  0  0  0  0  0  0
   -0.6659   -4.6774   23.9104 O   0  0  0  0  0  0  0  0  0  0  0  0
    2.8459   -7.7027   27.3866 C   0  0  2  0  0  0  0  0  0  0  0  0
    1.3001   -6.1007   24.1858 C   0  0  2  0  0  0  0  0  0  0  0  0
    2.6876   -6.1136   24.5809 O   0  0  0  0  0  0  0  0  0  0  0  0
    4.3105   -7.5642   27.9874 C   0  0  2  0  0  0  0  0  0  0  0  0
    5.1800   -6.9875   26.9674 O   0  0  0  0  0  0  0  0  0  0  0  0
    1.2018   -6.6301   22.8049 C   0  0  0  0  0  0  0  0  0  0  0  0
    0.2585   -7.5964   22.7593 N   0  0  0  0  0  0  0  0  0  0  0  0
    4.8241   -8.9866   28.4026 C   0  0  1  0  0  0  0  0  0  0  0  0
    6.1185   -8.9028   28.9078 O   0  0  0  0  0  0  0  0  0  0  0  0
  1  2  1  1  0  0  0
  1  5  1  0  0  0  0
  1 29  1  0  0  0  0
  3  4  1  6  0  0  0
  3  7  1  0  0  0  0
  3 34  1  0  0  0  0
  5  6  1  1  0  0  0
  5 16  1  0  0  0  0
  7 19  1  0  0  0  0
  8  4  1  0  0  0  0
  8 24  2  0  0  0  0
  9  8  1  1  0  0  0
  9 10  1  0  0  0  0
  9 13  1  0  0  0  0
 10 11  1  0  0  0  0
 11 12  1  0  0  0  0
 14 15  1  0  0  0  0
 14 35  1  0  0  0  0
 15 17  1  0  0  0  0
 16 18  1  6  0  0  0
 16 25  1  0  0  0  0
 19 20  1  6  0  0  0
 19 27  1  0  0  0  0
 21 22  1  0  0  0  0
 21 23  1  0  0  0  0
 23 17  1  0  0  0  0
 25 26  1  1  0  0  0
 25 28  1  0  0  0  0
 27  2  1  1  0  0  0
 27 30  1  0  0  0  0
 28 29  1  0  0  0  0
 28 32  1  6  0  0  0
 30 31  1  6  0  0  0
 30 34  1  0  0  0  0
 32 33  2  0  0  0  0
 34 35  1  1  0  0  0
M  END
>  <CHROM.1>
-162.71299463,-80.67473367,153.98294653,-174.98387428,-68.93318757,173.53802728
-53.16596331,171.30810243,-57.75114439,-64.49452494,-177.85376490,-107.57157154
-12.20003450,3.69882674,-8.08385067,28.55725470,-2.18471030,0.72121922,2.71066943

>  <Name>
2f4t_lig

>  <RI>
0

>  <Rbt.Current_Directory>
/home/itssahil/PROJECTS/Mol_Feturizer/New_Systems/rnas/2f4t

>  <Rbt.Executable>
rbdock ($Id: //depot/dev/client3/rdock/2013.1/src/exe/rbdock.cxx#4 $)

>  <Rbt.Library>
libRbt.so (2013.1, Build901 2013/11/27)

>  <Rbt.Parameter_File>
/export/apps/rDock/src/rDock_2013.1_src/data/scripts/dock_solv.prm

>  <Rbt.Receptor>
prm/pocket_docking_3.prm

>  <SCORE>
-19.4639

>  <SCORE.INTER>
-14.6677

>  <SCORE.INTER.CONST>
1

>  <SCORE.INTER.POLAR>
-0.938083

>  <SCORE.INTER.ROT>
13

>  <SCORE.INTER.SOLV>
17.9684

>  <SCORE.INTER.VDW>
-24.9077

>  <SCORE.INTER.norm>
-0.419078

>  <SCORE.INTRA>
-4.79617

>  <SCORE.INTRA.DIHEDRAL>
-12.4873

>  <SCORE.INTRA.DIHEDRAL.0>
23.8882

>  <SCORE.INTRA.POLAR>
0

>  <SCORE.INTRA.POLAR.0>
0

>  <SCORE.INTRA.REPUL>
0

>  <SCORE.INTRA.REPUL.0>
0

>  <SCORE.INTRA.SOLV>
2.19687

>  <SCORE.INTRA.SOLV.lig_0>
-97.6888

>  <SCORE.INTRA.VDW>
0.349067

>  <SCORE.INTRA.VDW.0>
-3.9206

>  <SCORE.INTRA.norm>
-0.137033

>  <SCORE.RESTR>
0

>  <SCORE.RESTR.CAVITY>
0

>  <SCORE.RESTR.norm>
0

>  <SCORE.SYSTEM>
0

>  <SCORE.SYSTEM.CONST>
0

>  <SCORE.SYSTEM.DIHEDRAL>
0

>  <SCORE.SYSTEM.SOLV>
0

>  <SCORE.SYSTEM.norm>
0

>  <SCORE.heavy>
35

>  <SCORE.norm>
-0.556111

>  <RMSD>
1.152

$$$$
2f4t_lig
 OpenBabel11021811433D
libRbt.so/2013.1/901 2013/11/27
 35 36  0  0  0  0  0  0  0  0999 V2000
    2.8331   -5.6388   25.6974 C   0  0  2  0  0  0  0  0  0  0  0  0
    2.2230   -6.4790   26.7314 O   0  0  0  0  0  0  0  0  0  0  0  0
    4.0481   -9.0411   29.6914 C   0  0  2  0  0  0  0  0  0  0  0  0
    4.6865  -10.2210   30.2938 N   0  0  0  0  0  0  0  0  0  0  0  0
    2.5528   -4.1664   26.1253 C   0  0  2  0  0  0  0  0  0  0  0  0
    3.0641   -3.9152   27.4523 N   0  0  0  0  0  0  0  0  0  0  0  0
    2.7397   -9.4857   28.9404 C   0  0  0  0  0  0  0  0  0  0  0  0
    3.5653  -10.9880   31.4222 C   0  0  0  0  0  0  0  0  0  0  0  0
    4.6647  -11.9995   31.6599 C   0  0  1  0  0  0  0  0  0  0  0  0
    4.1775  -12.9647   32.7429 C   0  0  0  0  0  0  0  0  0  0  0  0
    5.1878  -14.0383   33.1812 C   0  0  0  0  0  0  0  0  0  0  0  0
    4.5541  -14.8820   34.1988 N   0  0  0  0  0  0  0  0  0  0  0  0
    4.8815  -12.7831   30.5157 O   0  0  0  0  0  0  0  0  0  0  0  0
    7.3547   -8.1204   30.1258 C   0  0  0  0  0  0  0  0  0  0  0  0
    6.9500   -8.3967   31.5658 C   0  0  0  0  0  0  0  0  0  0  0  0
    1.0164   -3.8706   26.0606 C   0  0  1  0  0  0  0  0  0  0  0  0
    6.3258   -7.2358   32.2376 N   0  0  0  0  0  0  0  0  0  0  0  0
    0.7407   -2.5365   26.4410 O   0  0  0  0  0  0  0  0  0  0  0  0
    2.0283   -8.2977   28.2778 C   0  0  2  0  0  0  0  0  0  0  0  0
    0.8409   -8.7408   27.5540 N   0  0  0  0  0  0  0  0  0  0  0  0
    4.4420   -5.8639   33.1324 C   0  0  0  0  0  0  0  0  0  0  0  0
    4.8126   -4.5160   32.4341 N   0  0  0  0  0  0  0  0  0  0  0  0
    4.8413   -7.1252   32.3107 C   0  0  0  0  0  0  0  0  0  0  0  0
    2.5699  -10.7806   31.7467 O   0  0  0  0  0  0  0  0  0  0  0  0
    0.5415   -4.1351   24.6281 C   0  0  2  0  0  0  0  0  0  0  0  0
   -0.8463   -3.8731   24.4963 O   0  0  0  0  0  0  0  0  0  0  0  0
    2.9571   -7.5963   27.3184 C   0  0  2  0  0  0  0  0  0  0  0  0
    0.8543   -5.6061   24.2287 C   0  0  2  0  0  0  0  0  0  0  0  0
    2.2632   -5.8902   24.3537 O   0  0  0  0  0  0  0  0  0  0  0  0
    4.2681   -7.1164   28.0772 C   0  0  2  0  0  0  0  0  0  0  0  0
    5.1380   -6.4388   27.1216 O   0  0  0  0  0  0  0  0  0  0  0  0
    0.4387   -5.9029   22.8373 C   0  0  0  0  0  0  0  0  0  0  0  0
    1.1415   -6.9596   22.3734 N   0  0  0  0  0  0  0  0  0  0  0  0
    4.9914   -8.3701   28.6809 C   0  0  1  0  0  0  0  0  0  0  0  0
    6.1613   -7.9853   29.3297 O   0  0  0  0  0  0  0  0  0  0  0  0
  1  2  1  1  0  0  0
  1  5  1  0  0  0  0
  1 29  1  0  0  0  0
  3  4  1  6  0  0  0
  3  7  1  0  0  0  0
  3 34  1  0  0  0  0
  5  6  1  1  0  0  0
  5 16  1  0  0  0  0
  7 19  1  0  0  0  0
  8  4  1  0  0  0  0
  8 24  2  0  0  0  0
  9  8  1  6  0  0  0
  9 10  1  0  0  0  0
  9 13  1  0  0  0  0
 10 11  1  0  0  0  0
 11 12  1  0  0  0  0
 14 15  1  0  0  0  0
 14 35  1  0  0  0  0
 15 17  1  0  0  0  0
 16 18  1  6  0  0  0
 16 25  1  0  0  0  0
 19 20  1  6  0  0  0
 19 27  1  0  0  0  0
 21 22  1  0  0  0  0
 21 23  1  0  0  0  0
 23 17  1  0  0  0  0
 25 26  1  1  0  0  0
 25 28  1  0  0  0  0
 27  2  1  1  0  0  0
 27 30  1  0  0  0  0
 28 29  1  0  0  0  0
 28 32  1  6  0  0  0
 30 31  1  6  0  0  0
 30 34  1  0  0  0  0
 32 33  2  0  0  0  0
 34 35  1  1  0  0  0
M  END
>  <CHROM.1>
-132.97039223,-59.14636289,176.76143486,-177.12446989,-179.07533728,-69.80268998
-68.57314670,97.08135190,67.35620962,176.82362858,-176.68359665,157.41612141
55.00137290,3.40288759,-7.75897801,28.68165068,2.25592219,-0.97025817,-0.24809640

>  <Name>
2f4t_lig

>  <RI>
0

>  <Rbt.Current_Directory>
/home/itssahil/PROJECTS/Mol_Feturizer/New_Systems/rnas/2f4t

>  <Rbt.Executable>
rbdock ($Id: //depot/dev/client3/rdock/2013.1/src/exe/rbdock.cxx#4 $)

>  <Rbt.Library>
libRbt.so (2013.1, Build901 2013/11/27)

>  <Rbt.Parameter_File>
/export/apps/rDock/src/rDock_2013.1_src/data/scripts/dock_solv.prm

>  <Rbt.Receptor>
prm/pocket_docking_3.prm

>  <SCORE>
-21.8998

>  <SCORE.INTER>
-16.6733

>  <SCORE.INTER.CONST>
1

>  <SCORE.INTER.POLAR>
-1.7648

>  <SCORE.INTER.ROT>
13

>  <SCORE.INTER.SOLV>
14.2098

>  <SCORE.INTER.VDW>
-22.2361

>  <SCORE.INTER.norm>
-0.47638

>  <SCORE.INTRA>
-5.22647

>  <SCORE.INTRA.DIHEDRAL>
-13.2377

>  <SCORE.INTRA.DIHEDRAL.0>
23.8882

>  <SCORE.INTRA.POLAR>
0

>  <SCORE.INTRA.POLAR.0>
0

>  <SCORE.INTRA.REPUL>
0

>  <SCORE.INTRA.REPUL.0>
0

>  <SCORE.INTRA.SOLV>
2.19592

>  <SCORE.INTRA.SOLV.lig_0>
-97.6888

>  <SCORE.INTRA.VDW>
0.294438

>  <SCORE.INTRA.VDW.0>
-3.9206

>  <SCORE.INTRA.norm>
-0.149328

>  <SCORE.RESTR>
0

>  <SCORE.RESTR.CAVITY>
0

>  <SCORE.RESTR.norm>
0

>  <SCORE.SYSTEM>
0

>  <SCORE.SYSTEM.CONST>
0

>  <SCORE.SYSTEM.DIHEDRAL>
0

>  <SCORE.SYSTEM.SOLV>
0

>  <SCORE.SYSTEM.norm>
0

>  <SCORE.heavy>
35

>  <SCORE.norm>
-0.625707

>  <RMSD>
1.153

$$$$
2f4t_lig
 OpenBabel11021811433D
libRbt.so/2013.1/901 2013/11/27
 35 36  0  0  0  0  0  0  0  0999 V2000
    3.0753   -5.3177   25.9735 C   0  0  2  0  0  0  0  0  0  0  0  0
    2.4938   -6.0887   27.0756 O   0  0  0  0  0  0  0  0  0  0  0  0
    4.3045   -8.8543   29.8559 C   0  0  2  0  0  0  0  0  0  0  0  0
    4.8741  -10.0982   30.3954 N   0  0  0  0  0  0  0  0  0  0  0  0
    2.4074   -3.9109   26.0392 C   0  0  2  0  0  0  0  0  0  0  0  0
    2.6104   -3.3105   27.3368 N   0  0  0  0  0  0  0  0  0  0  0  0
    2.9008   -9.1610   29.2163 C   0  0  0  0  0  0  0  0  0  0  0  0
    3.7706  -10.7829   31.5922 C   0  0  0  0  0  0  0  0  0  0  0  0
    4.7875  -11.8934   31.7368 C   0  0  1  0  0  0  0  0  0  0  0  0
    4.2215  -12.9112   32.7297 C   0  0  0  0  0  0  0  0  0  0  0  0
    5.1515  -14.0835   33.0842 C   0  0  0  0  0  0  0  0  0  0  0  0
    5.5163  -14.7760   31.8447 N   0  0  0  0  0  0  0  0  0  0  0  0
    4.9496  -12.5860   30.5267 O   0  0  0  0  0  0  0  0  0  0  0  0
    7.8303   -7.5247   29.3862 C   0  0  0  0  0  0  0  0  0  0  0  0
    8.3916   -7.8398   30.7643 C   0  0  0  0  0  0  0  0  0  0  0  0
    0.8792   -4.0254   25.7171 C   0  0  1  0  0  0  0  0  0  0  0  0
    7.5820   -7.2879   31.8727 N   0  0  0  0  0  0  0  0  0  0  0  0
    0.2544   -2.7575   25.7669 O   0  0  0  0  0  0  0  0  0  0  0  0
    2.2546   -7.9013   28.6230 C   0  0  2  0  0  0  0  0  0  0  0  0
    0.9733   -8.2184   28.0002 N   0  0  0  0  0  0  0  0  0  0  0  0
    7.1980   -6.2936   34.1300 C   0  0  0  0  0  0  0  0  0  0  0  0
    6.0455   -5.3736   33.6129 N   0  0  0  0  0  0  0  0  0  0  0  0
    8.2524   -6.6486   33.0403 C   0  0  0  0  0  0  0  0  0  0  0  0
    2.8238  -10.4931   31.9906 O   0  0  0  0  0  0  0  0  0  0  0  0
    0.7324   -4.6479   24.3248 C   0  0  2  0  0  0  0  0  0  0  0  0
   -0.6339   -4.7692   23.9640 O   0  0  0  0  0  0  0  0  0  0  0  0
    3.1630   -7.2793   27.5920 C   0  0  2  0  0  0  0  0  0  0  0  0
    1.4262   -6.0402   24.2905 C   0  0  2  0  0  0  0  0  0  0  0  0
    2.8190   -5.9359   24.6523 O   0  0  0  0  0  0  0  0  0  0  0  0
    4.5734   -6.9378   28.2394 C   0  0  2  0  0  0  0  0  0  0  0  0
    5.4215   -6.3338   27.2171 O   0  0  0  0  0  0  0  0  0  0  0  0
    1.3363   -6.6714   22.9525 C   0  0  0  0  0  0  0  0  0  0  0  0
    0.7609   -7.8886   23.0668 N   0  0  0  0  0  0  0  0  0  0  0  0
    5.2201   -8.2632   28.7727 C   0  0  1  0  0  0  0  0  0  0  0  0
    6.4721   -8.0014   29.3219 O   0  0  0  0  0  0  0  0  0  0  0  0
  1  2  1  1  0  0  0
  1  5  1  0  0  0  0
  1 29  1  0  0  0  0
  3  4  1  6  0  0  0
  3  7  1  0  0  0  0
  3 34  1  0  0  0  0
  5  6  1  1  0  0  0
  5 16  1  0  0  0  0
  7 19  1  0  0  0  0
  8  4  1  0  0  0  0
  8 24  2  0  0  0  0
  9  8  1  6  0  0  0
  9 10  1  0  0  0  0
  9 13  1  0  0  0  0
 10 11  1  0  0  0  0
 11 12  1  0  0  0  0
 14 15  1  0  0  0  0
 14 35  1  0  0  0  0
 15 17  1  0  0  0  0
 16 18  1  6  0  0  0
 16 25  1  0  0  0  0
 19 20  1  6  0  0  0
 19 27  1  0  0  0  0
 21 22  1  0  0  0  0
 21 23  1  0  0  0  0
 23 17  1  0  0  0  0
 25 26  1  1  0  0  0
 25 28  1  0  0  0  0
 27  2  1  1  0  0  0
 27 30  1  0  0  0  0
 28 29  1  0  0  0  0
 28 32  1  6  0  0  0
 30 31  1  6  0  0  0
 30 34  1  0  0  0  0
 32 33  2  0  0  0  0
 34 35  1  1  0  0  0
M  END
>  <CHROM.1>
-160.28410512,-58.25446013,-177.21152651,-176.27545497,-57.22170191,-55.91706171
-179.22160057,-137.68984734,-56.44599435,-173.83592576,-174.99847501,-124.05802970
-175.12149585,3.85261833,-7.73058243,28.69891097,-2.27432858,0.80923868,2.77933003

>  <Name>
2f4t_lig

>  <RI>
0

>  <Rbt.Current_Directory>
/home/itssahil/PROJECTS/Mol_Feturizer/New_Systems/rnas/2f4t

>  <Rbt.Executable>
rbdock ($Id: //depot/dev/client3/rdock/2013.1/src/exe/rbdock.cxx#4 $)

>  <Rbt.Library>
libRbt.so (2013.1, Build901 2013/11/27)

>  <Rbt.Parameter_File>
/export/apps/rDock/src/rDock_2013.1_src/data/scripts/dock_solv.prm

>  <Rbt.Receptor>
prm/pocket_docking_3.prm

>  <SCORE>
-27.3947

>  <SCORE.INTER>
-20.5688

>  <SCORE.INTER.CONST>
1

>  <SCORE.INTER.POLAR>
-2.07344

>  <SCORE.INTER.ROT>
13

>  <SCORE.INTER.SOLV>
18.1908

>  <SCORE.INTER.VDW>
-25.1313

>  <SCORE.INTER.norm>
-0.58768

>  <SCORE.INTRA>
-6.82591

>  <SCORE.INTRA.DIHEDRAL>
-19.0743

>  <SCORE.INTRA.DIHEDRAL.0>
23.8882

>  <SCORE.INTRA.POLAR>
0

>  <SCORE.INTRA.POLAR.0>
0

>  <SCORE.INTRA.REPUL>
0

>  <SCORE.INTRA.REPUL.0>
0

>  <SCORE.INTRA.SOLV>
2.77864

>  <SCORE.INTRA.SOLV.lig_0>
-97.6888

>  <SCORE.INTRA.VDW>
1.32193

>  <SCORE.INTRA.VDW.0>
-3.9206

>  <SCORE.INTRA.norm>
-0.195026

>  <SCORE.RESTR>
0

>  <SCORE.RESTR.CAVITY>
0

>  <SCORE.RESTR.norm>
0

>  <SCORE.SYSTEM>
0

>  <SCORE.SYSTEM.CONST>
0

>  <SCORE.SYSTEM.DIHEDRAL>
0

>  <SCORE.SYSTEM.SOLV>
0

>  <SCORE.SYSTEM.norm>
0

>  <SCORE.heavy>
35

>  <SCORE.norm>
-0.782706

>  <RMSD>
1.172

$$$$
2f4t_lig
 OpenBabel11021811433D
libRbt.so/2013.1/901 2013/11/27
 35 36  0  0  0  0  0  0  0  0999 V2000
    3.2924   -5.8606   25.9008 C   0  0  2  0  0  0  0  0  0  0  0  0
    2.6177   -6.6175   26.9586 O   0  0  0  0  0  0  0  0  0  0  0  0
    3.6756   -9.8670   29.6004 C   0  0  2  0  0  0  0  0  0  0  0  0
    4.1075  -11.1992   30.0492 N   0  0  0  0  0  0  0  0  0  0  0  0
    3.1831   -4.3616   26.3141 C   0  0  2  0  0  0  0  0  0  0  0  0
    3.7478   -4.1525   27.6267 N   0  0  0  0  0  0  0  0  0  0  0  0
    2.5038  -10.0234   28.5631 C   0  0  0  0  0  0  0  0  0  0  0  0
    2.7437  -12.0452   30.7862 C   0  0  0  0  0  0  0  0  0  0  0  0
    3.7075  -13.1918   30.9975 C   0  0  1  0  0  0  0  0  0  0  0  0
    4.5462  -12.8675   32.2358 C   0  0  0  0  0  0  0  0  0  0  0  0
    3.7539  -12.6213   33.5307 C   0  0  0  0  0  0  0  0  0  0  0  0
    4.0992  -11.2902   34.0385 N   0  0  0  0  0  0  0  0  0  0  0  0
    3.0187  -14.3770   31.2993 O   0  0  0  0  0  0  0  0  0  0  0  0
    6.6118   -8.4993   30.9716 C   0  0  0  0  0  0  0  0  0  0  0  0
    6.4673   -6.9863   31.0290 C   0  0  0  0  0  0  0  0  0  0  0  0
    1.6868   -3.9011   26.2772 C   0  0  1  0  0  0  0  0  0  0  0  0
    7.1674   -6.3687   32.1766 N   0  0  0  0  0  0  0  0  0  0  0  0
    1.5661   -2.5407   26.6449 O   0  0  0  0  0  0  0  0  0  0  0  0
    2.0124   -8.6643   28.0455 C   0  0  2  0  0  0  0  0  0  0  0  0
    0.9542   -8.8370   27.0553 N   0  0  0  0  0  0  0  0  0  0  0  0
    7.5648   -3.9256   32.5002 C   0  0  0  0  0  0  0  0  0  0  0  0
    7.0903   -2.5817   33.1411 N   0  0  0  0  0  0  0  0  0  0  0  0
    6.6250   -5.1299   32.8031 C   0  0  0  0  0  0  0  0  0  0  0  0
    1.7211  -11.8007   30.9699 O   0  0  0  0  0  0  0  0  0  0  0  0
    1.1545   -4.1287   24.8586 C   0  0  2  0  0  0  0  0  0  0  0  0
   -0.1991   -3.7187   24.7521 O   0  0  0  0  0  0  0  0  0  0  0  0
    3.1504   -7.8958   27.4215 C   0  0  2  0  0  0  0  0  0  0  0  0
    1.2969   -5.6294   24.4731 C   0  0  2  0  0  0  0  0  0  0  0  0
    2.6691   -6.0637   24.5727 O   0  0  0  0  0  0  0  0  0  0  0  0
    4.3257   -7.7066   28.4741 C   0  0  2  0  0  0  0  0  0  0  0  0
    5.4037   -6.9558   27.8389 O   0  0  0  0  0  0  0  0  0  0  0  0
    0.8209   -5.8950   23.0947 C   0  0  0  0  0  0  0  0  0  0  0  0
   -0.4196   -6.4285   23.1420 N   0  0  0  0  0  0  0  0  0  0  0  0
    4.8353   -9.1199   28.9235 C   0  0  1  0  0  0  0  0  0  0  0  0
    5.8866   -8.9883   29.8265 O   0  0  0  0  0  0  0  0  0  0  0  0
  1  2  1  1  0  0  0
  1  5  1  0  0  0  0
  1 29  1  0  0  0  0
  3  4  1  6  0  0  0
  3  7  1  0  0  0  0
  3 34  1  0  0  0  0
  5  6  1  1  0  0  0
  5 16  1  0  0  0  0
  7 19  1  0  0  0  0
  8  4  1  0  0  0  0
  8 24  2  0  0  0  0
  9  8  1  1  0  0  0
  9 10  1  0  0  0  0
  9 13  1  0  0  0  0
 10 11  1  0  0  0  0
 11 12  1  0  0  0  0
 14 15  1  0  0  0  0
 14 35  1  0  0  0  0
 15 17  1  0  0  0  0
 16 18  1  6  0  0  0
 16 25  1  0  0  0  0
 19 20  1  6  0  0  0
 19 27  1  0  0  0  0
 21 22  1  0  0  0  0
 21 23  1  0  0  0  0
 23 17  1  0  0  0  0
 25 26  1  1  0  0  0
 25 28  1  0  0  0  0
 27  2  1  1  0  0  0
 27 30  1  0  0  0  0
 28 29  1  0  0  0  0
 28 32  1  6  0  0  0
 30 31  1  6  0  0  0
 30 34  1  0  0  0  0
 32 33  2  0  0  0  0
 34 35  1  1  0  0  0
M  END
>  <CHROM.1>
-141.16802146,-59.00361653,79.96301222,57.44373322,-122.93918373,179.61467718
-45.09094879,-148.58454528,-178.93069940,-110.62685154,-157.19842180,-100.78545366
-71.54834396,3.52515725,-7.71391457,28.77334277,2.05730208,-0.86728497,-0.43666720

>  <Name>
2f4t_lig

>  <RI>
0

>  <Rbt.Current_Directory>
/home/itssahil/PROJECTS/Mol_Feturizer/New_Systems/rnas/2f4t

>  <Rbt.Executable>
rbdock ($Id: //depot/dev/client3/rdock/2013.1/src/exe/rbdock.cxx#4 $)

>  <Rbt.Library>
libRbt.so (2013.1, Build901 2013/11/27)

>  <Rbt.Parameter_File>
/export/apps/rDock/src/rDock_2013.1_src/data/scripts/dock_solv.prm

>  <Rbt.Receptor>
prm/pocket_docking_2.prm

>  <SCORE>
-12.0904

>  <SCORE.INTER>
-12.1818

>  <SCORE.INTER.CONST>
1

>  <SCORE.INTER.POLAR>
-1.67623

>  <SCORE.INTER.ROT>
13

>  <SCORE.INTER.SOLV>
14.1954

>  <SCORE.INTER.VDW>
-19.5322

>  <SCORE.INTER.norm>
-0.348052

>  <SCORE.INTRA>
-1.09724

>  <SCORE.INTRA.DIHEDRAL>
-5.22506

>  <SCORE.INTRA.DIHEDRAL.0>
23.8882

>  <SCORE.INTRA.POLAR>
0

>  <SCORE.INTRA.POLAR.0>
0

>  <SCORE.INTRA.REPUL>
0

>  <SCORE.INTRA.REPUL.0>
0

>  <SCORE.INTRA.SOLV>
1.72356

>  <SCORE.INTRA.SOLV.lig_0>
-97.6888

>  <SCORE.INTRA.VDW>
0.65351

>  <SCORE.INTRA.VDW.0>
-3.9206

>  <SCORE.INTRA.norm>
-0.0313497

>  <SCORE.RESTR>
1.18861

>  <SCORE.RESTR.CAVITY>
1.18861

>  <SCORE.RESTR.norm>
0.0339602

>  <SCORE.SYSTEM>
0

>  <SCORE.SYSTEM.CONST>
0

>  <SCORE.SYSTEM.DIHEDRAL>
0

>  <SCORE.SYSTEM.SOLV>
0

>  <SCORE.SYSTEM.norm>
0

>  <SCORE.heavy>
35

>  <SCORE.norm>
-0.345441

>  <RMSD>
1.180

$$$$
2f4t_lig
 OpenBabel11021811433D
libRbt.so/2013.1/901 2013/11/27
 35 36  0  0  0  0  0  0  0  0999 V2000
    3.3222   -5.3419   26.1910 C   0  0  2  0  0  0  0  0  0  0  0  0
    2.8035   -6.0300   27.3763 O   0  0  0  0  0  0  0  0  0  0  0  0
    4.6336   -8.9105   30.0239 C   0  0  2  0  0  0  0  0  0  0  0  0
    5.1424  -10.1934   30.5318 N   0  0  0  0  0  0  0  0  0  0  0  0
    2.8771   -3.8549   26.3332 C   0  0  2  0  0  0  0  0  0  0  0  0
    3.3495   -3.2985   27.5793 N   0  0  0  0  0  0  0  0  0  0  0  0
    3.1509   -9.0976   29.5340 C   0  0  0  0  0  0  0  0  0  0  0  0
    4.0606  -10.8024   31.7879 C   0  0  0  0  0  0  0  0  0  0  0  0
    5.0026  -11.9827   31.8768 C   0  0  1  0  0  0  0  0  0  0  0  0
    4.4098  -12.9716   32.8829 C   0  0  0  0  0  0  0  0  0  0  0  0
    5.2779  -14.2013   33.1983 C   0  0  0  0  0  0  0  0  0  0  0  0
    4.5154  -15.0928   34.0775 N   0  0  0  0  0  0  0  0  0  0  0  0
    5.0640  -12.6688   30.6538 O   0  0  0  0  0  0  0  0  0  0  0  0
    7.9226   -7.7051   29.9724 C   0  0  0  0  0  0  0  0  0  0  0  0
    7.6043   -7.7148   31.4597 C   0  0  0  0  0  0  0  0  0  0  0  0
    1.3177   -3.7486   26.2373 C   0  0  1  0  0  0  0  0  0  0  0  0
    8.5118   -6.8674   32.2641 N   0  0  0  0  0  0  0  0  0  0  0  0
    0.8929   -2.4051   26.3593 O   0  0  0  0  0  0  0  0  0  0  0  0
    2.5622   -7.7927   28.9799 C   0  0  2  0  0  0  0  0  0  0  0  0
    1.2015   -8.0010   28.4948 N   0  0  0  0  0  0  0  0  0  0  0  0
    7.2780   -5.3817   33.8458 C   0  0  0  0  0  0  0  0  0  0  0  0
    5.8979   -5.5575   33.1343 N   0  0  0  0  0  0  0  0  0  0  0  0
    8.2176   -6.6154   33.7033 C   0  0  0  0  0  0  0  0  0  0  0  0
    3.1601  -10.4477   32.2377 O   0  0  0  0  0  0  0  0  0  0  0  0
    0.8836   -4.3342   24.8896 C   0  0  2  0  0  0  0  0  0  0  0  0
   -0.5239   -4.2573   24.7320 O   0  0  0  0  0  0  0  0  0  0  0  0
    3.4134   -7.2692   27.8500 C   0  0  2  0  0  0  0  0  0  0  0  0
    1.3606   -5.8108   24.7746 C   0  0  2  0  0  0  0  0  0  0  0  0
    2.7917   -5.9082   24.9295 O   0  0  0  0  0  0  0  0  0  0  0  0
    4.9066   -7.0479   28.3462 C   0  0  2  0  0  0  0  0  0  0  0  0
    5.6972   -6.5368   27.2314 O   0  0  0  0  0  0  0  0  0  0  0  0
    0.9888   -6.4135   23.4725 C   0  0  0  0  0  0  0  0  0  0  0  0
    2.0299   -6.3141   22.6169 N   0  0  0  0  0  0  0  0  0  0  0  0
    5.4839   -8.4191   28.8421 C   0  0  1  0  0  0  0  0  0  0  0  0
    6.8033   -8.2642   29.2580 O   0  0  0  0  0  0  0  0  0  0  0  0
  1  2  1  1  0  0  0
  1  5  1  0  0  0  0
  1 29  1  0  0  0  0
  3  4  1  6  0  0  0
  3  7  1  0  0  0  0
  3 34  1  0  0  0  0
  5  6  1  1  0  0  0
  5 16  1  0  0  0  0
  7 19  1  0  0  0  0
  8  4  1  0  0  0  0
  8 24  2  0  0  0  0
  9  8  1  6  0  0  0
  9 10  1  0  0  0  0
  9 13  1  0  0  0  0
 10 11  1  0  0  0  0
 11 12  1  0  0  0  0
 14 15  1  0  0  0  0
 14 35  1  0  0  0  0
 15 17  1  0  0  0  0
 16 18  1  6  0  0  0
 16 25  1  0  0  0  0
 19 20  1  6  0  0  0
 19 27  1  0  0  0  0
 21 22  1  0  0  0  0
 21 23  1  0  0  0  0
 23 17  1  0  0  0  0
 25 26  1  1  0  0  0
 25 28  1  0  0  0  0
 27  2  1  1  0  0  0
 27 30  1  0  0  0  0
 28 29  1  0  0  0  0
 28 32  1  6  0  0  0
 30 31  1  6  0  0  0
 30 34  1  0  0  0  0
 32 33  2  0  0  0  0
 34 35  1  1  0  0  0
M  END
>  <CHROM.1>
-156.84524626,-55.22682959,-176.30926867,-175.52196173,-175.03794661,-165.43774157
54.88397896,171.30785737,60.66433737,-87.35729436,-173.92531271,95.82515683
-67.70750885,4.05867097,-7.62652602,29.01203928,-2.16344325,0.78738426,2.72355605

>  <Name>
2f4t_lig

>  <RI>
0

>  <Rbt.Current_Directory>
/home/itssahil/PROJECTS/Mol_Feturizer/New_Systems/rnas/2f4t

>  <Rbt.Executable>
rbdock ($Id: //depot/dev/client3/rdock/2013.1/src/exe/rbdock.cxx#4 $)

>  <Rbt.Library>
libRbt.so (2013.1, Build901 2013/11/27)

>  <Rbt.Parameter_File>
/export/apps/rDock/src/rDock_2013.1_src/data/scripts/dock_solv.prm

>  <Rbt.Receptor>
prm/pocket_docking_4.prm

>  <SCORE>
-27.1462

>  <SCORE.INTER>
-21.2199

>  <SCORE.INTER.CONST>
1

>  <SCORE.INTER.POLAR>
-2.09118

>  <SCORE.INTER.ROT>
13

>  <SCORE.INTER.SOLV>
14.6354

>  <SCORE.INTER.VDW>
-24.3211

>  <SCORE.INTER.norm>
-0.606283

>  <SCORE.INTRA>
-5.92632

>  <SCORE.INTRA.DIHEDRAL>
-17.3774

>  <SCORE.INTRA.DIHEDRAL.0>
23.8882

>  <SCORE.INTRA.POLAR>
0

>  <SCORE.INTRA.POLAR.0>
0

>  <SCORE.INTRA.REPUL>
0

>  <SCORE.INTRA.REPUL.0>
0

>  <SCORE.INTRA.SOLV>
1.56592

>  <SCORE.INTRA.SOLV.lig_0>
-97.6888

>  <SCORE.INTRA.VDW>
1.97942

>  <SCORE.INTRA.VDW.0>
-3.9206

>  <SCORE.INTRA.norm>
-0.169324

>  <SCORE.RESTR>
0

>  <SCORE.RESTR.CAVITY>
0

>  <SCORE.RESTR.norm>
0

>  <SCORE.SYSTEM>
0

>  <SCORE.SYSTEM.CONST>
0

>  <SCORE.SYSTEM.DIHEDRAL>
0

>  <SCORE.SYSTEM.SOLV>
0

>  <SCORE.SYSTEM.norm>
0

>  <SCORE.heavy>
35

>  <SCORE.norm>
-0.775606

>  <RMSD>
1.187

$$$$
2f4t_lig
 OpenBabel11021811433D
libRbt.so/2013.1/901 2013/11/27
 35 36  0  0  0  0  0  0  0  0999 V2000
    2.9280   -5.5537   25.9210 C   0  0  2  0  0  0  0  0  0  0  0  0
    2.2629   -6.2928   26.9974 O   0  0  0  0  0  0  0  0  0  0  0  0
    2.9911   -9.8050   29.4039 C   0  0  2  0  0  0  0  0  0  0  0  0
    3.3447  -11.1871   29.7612 N   0  0  0  0  0  0  0  0  0  0  0  0
    2.3606   -4.1034   25.9867 C   0  0  2  0  0  0  0  0  0  0  0  0
    2.5701   -3.5331   27.2968 N   0  0  0  0  0  0  0  0  0  0  0  0
    1.9132   -9.8246   28.2587 C   0  0  0  0  0  0  0  0  0  0  0  0
    3.9818  -11.2270   31.4078 C   0  0  0  0  0  0  0  0  0  0  0  0
    4.1254  -12.7187   31.2015 C   0  0  1  0  0  0  0  0  0  0  0  0
    2.7178  -13.3186   31.1749 C   0  0  0  0  0  0  0  0  0  0  0  0
    2.0107  -13.4179   32.5370 C   0  0  0  0  0  0  0  0  0  0  0  0
    1.6832  -12.0621   32.9883 N   0  0  0  0  0  0  0  0  0  0  0  0
    4.6868  -12.9998   29.9461 O   0  0  0  0  0  0  0  0  0  0  0  0
    6.4357   -8.6993   30.5583 C   0  0  0  0  0  0  0  0  0  0  0  0
    6.3883   -7.2390   30.9813 C   0  0  0  0  0  0  0  0  0  0  0  0
    0.8375   -4.1047   25.6225 C   0  0  1  0  0  0  0  0  0  0  0  0
    7.6179   -6.7814   31.6649 N   0  0  0  0  0  0  0  0  0  0  0  0
    0.3036   -2.7959   25.6716 O   0  0  0  0  0  0  0  0  0  0  0  0
    1.5073   -8.4075   27.8305 C   0  0  2  0  0  0  0  0  0  0  0  0
    0.5378   -8.4516   26.7404 N   0  0  0  0  0  0  0  0  0  0  0  0
    7.0071   -4.4549   32.3325 C   0  0  0  0  0  0  0  0  0  0  0  0
    6.8943   -3.3923   33.4727 N   0  0  0  0  0  0  0  0  0  0  0  0
    7.5251   -5.8411   32.8176 C   0  0  0  0  0  0  0  0  0  0  0  0
    4.1602  -10.4913   32.1601 O   0  0  0  0  0  0  0  0  0  0  0  0
    0.6851   -4.7002   24.2190 C   0  0  2  0  0  0  0  0  0  0  0  0
   -0.6759   -4.7193   23.8203 O   0  0  0  0  0  0  0  0  0  0  0  0
    2.7171   -7.6260   27.3826 C   0  0  2  0  0  0  0  0  0  0  0  0
    1.2786   -6.1381   24.1857 C   0  0  2  0  0  0  0  0  0  0  0  0
    2.6648   -6.1378   24.5857 O   0  0  0  0  0  0  0  0  0  0  0  0
    3.7980   -7.5753   28.5462 C   0  0  2  0  0  0  0  0  0  0  0  0
    4.9486   -6.8082   28.0804 O   0  0  0  0  0  0  0  0  0  0  0  0
    1.1808   -6.7469   22.8378 C   0  0  0  0  0  0  0  0  0  0  0  0
    0.6909   -8.0016   22.9451 N   0  0  0  0  0  0  0  0  0  0  0  0
    4.2267   -9.0409   28.9033 C   0  0  1  0  0  0  0  0  0  0  0  0
    5.1959   -9.0294   29.9025 O   0  0  0  0  0  0  0  0  0  0  0  0
  1  2  1  1  0  0  0
  1  5  1  0  0  0  0
  1 29  1  0  0  0  0
  3  4  1  6  0  0  0
  3  7  1  0  0  0  0
  3 34  1  0  0  0  0
  5  6  1  1  0  0  0
  5 16  1  0  0  0  0
  7 19  1  0  0  0  0
  8  4  1  0  0  0  0
  8 24  2  0  0  0  0
  9  8  1  6  0  0  0
  9 10  1  0  0  0  0
  9 13  1  0  0  0  0
 10 11  1  0  0  0  0
 11 12  1  0  0  0  0
 14 15  1  0  0  0  0
 14 35  1  0  0  0  0
 15 17  1  0  0  0  0
 16 18  1  6  0  0  0
 16 25  1  0  0  0  0
 19 20  1  6  0  0  0
 19 27  1  0  0  0  0
 21 22  1  0  0  0  0
 21 23  1  0  0  0  0
 23 17  1  0  0  0  0
 25 26  1  1  0  0  0
 25 28  1  0  0  0  0
 27  2  1  1  0  0  0
 27 30  1  0  0  0  0
 28 29  1  0  0  0  0
 28 32  1  6  0  0  0
 30 31  1  6  0  0  0
 30 34  1  0  0  0  0
 32 33  2  0  0  0  0
 34 35  1  1  0  0  0
M  END
>  <CHROM.1>
-169.36630416,-156.44193154,-70.47660918,-74.38649086,69.53774033,-179.75865235
71.74927041,-141.68359958,-179.23149272,-67.14311902,-147.30433700,-132.74931068
-175.22120677,3.25129657,-7.79443883,28.51964978,-2.18400404,0.85506377,2.69967904

>  <Name>
2f4t_lig

>  <RI>
0

>  <Rbt.Current_Directory>
/home/itssahil/PROJECTS/Mol_Feturizer/New_Systems/rnas/2f4t

>  <Rbt.Executable>
rbdock ($Id: //depot/dev/client3/rdock/2013.1/src/exe/rbdock.cxx#4 $)

>  <Rbt.Library>
libRbt.so (2013.1, Build901 2013/11/27)

>  <Rbt.Parameter_File>
/export/apps/rDock/src/rDock_2013.1_src/data/scripts/dock_solv.prm

>  <Rbt.Receptor>
prm/pocket_docking_2.prm

>  <SCORE>
-12.7301

>  <SCORE.INTER>
-11.0374

>  <SCORE.INTER.CONST>
1

>  <SCORE.INTER.POLAR>
-0.938083

>  <SCORE.INTER.ROT>
13

>  <SCORE.INTER.SOLV>
14.4174

>  <SCORE.INTER.VDW>
-21.3038

>  <SCORE.INTER.norm>
-0.315356

>  <SCORE.INTRA>
-1.85272

>  <SCORE.INTRA.DIHEDRAL>
-14.26

>  <SCORE.INTRA.DIHEDRAL.0>
23.8882

>  <SCORE.INTRA.POLAR>
0

>  <SCORE.INTRA.POLAR.0>
0

>  <SCORE.INTRA.REPUL>
0

>  <SCORE.INTRA.REPUL.0>
0

>  <SCORE.INTRA.SOLV>
4.49345

>  <SCORE.INTRA.SOLV.lig_0>
-97.6888

>  <SCORE.INTRA.VDW>
3.03055

>  <SCORE.INTRA.VDW.0>
-3.9206

>  <SCORE.INTRA.norm>
-0.0529349

>  <SCORE.RESTR>
0.160031

>  <SCORE.RESTR.CAVITY>
0.160031

>  <SCORE.RESTR.norm>
0.00457231

>  <SCORE.SYSTEM>
0

>  <SCORE.SYSTEM.CONST>
0

>  <SCORE.SYSTEM.DIHEDRAL>
0

>  <SCORE.SYSTEM.SOLV>
0

>  <SCORE.SYSTEM.norm>
0

>  <SCORE.heavy>
35

>  <SCORE.norm>
-0.363718

>  <RMSD>
1.200

$$$$
2f4t_lig
 OpenBabel11021811433D
libRbt.so/2013.1/901 2013/11/27
 35 36  0  0  0  0  0  0  0  0999 V2000
    2.7322   -5.3706   25.8074 C   0  0  2  0  0  0  0  0  0  0  0  0
    2.0821   -6.3211   26.7135 O   0  0  0  0  0  0  0  0  0  0  0  0
    3.7624   -9.3865   29.2506 C   0  0  2  0  0  0  0  0  0  0  0  0
    4.3410  -10.6728   29.6669 N   0  0  0  0  0  0  0  0  0  0  0  0
    1.9442   -4.0339   25.9557 C   0  0  2  0  0  0  0  0  0  0  0  0
    1.9276   -3.6024   27.3338 N   0  0  0  0  0  0  0  0  0  0  0  0
    2.4417   -9.6502   28.4383 C   0  0  0  0  0  0  0  0  0  0  0  0
    3.3466  -11.3831   30.9418 C   0  0  0  0  0  0  0  0  0  0  0  0
    4.3327  -12.5300   30.9240 C   0  0  1  0  0  0  0  0  0  0  0  0
    3.9912  -13.4506   32.0978 C   0  0  0  0  0  0  0  0  0  0  0  0
    4.1427  -12.8299   33.4967 C   0  0  0  0  0  0  0  0  0  0  0  0
    3.8808  -13.8704   34.4955 N   0  0  0  0  0  0  0  0  0  0  0  0
    4.1761  -13.3086   29.7666 O   0  0  0  0  0  0  0  0  0  0  0  0
    7.2709   -7.9331   29.2980 C   0  0  0  0  0  0  0  0  0  0  0  0
    7.6545   -8.2828   30.7277 C   0  0  0  0  0  0  0  0  0  0  0  0
    0.4851   -4.2068   25.4139 C   0  0  1  0  0  0  0  0  0  0  0  0
    6.8259   -7.6005   31.7458 N   0  0  0  0  0  0  0  0  0  0  0  0
   -0.2465   -3.0024   25.5352 O   0  0  0  0  0  0  0  0  0  0  0  0
    1.7911   -8.3433   27.9637 C   0  0  2  0  0  0  0  0  0  0  0  0
    0.5911   -8.6153   27.1787 N   0  0  0  0  0  0  0  0  0  0  0  0
    6.4768   -6.3393   33.8715 C   0  0  0  0  0  0  0  0  0  0  0  0
    4.9904   -6.7927   34.0361 N   0  0  0  0  0  0  0  0  0  0  0  0
    7.3659   -7.3706   33.1158 C   0  0  0  0  0  0  0  0  0  0  0  0
    2.4582  -11.0851   31.4526 O   0  0  0  0  0  0  0  0  0  0  0  0
    0.5713   -4.6436   23.9478 C   0  0  2  0  0  0  0  0  0  0  0  0
   -0.7223   -4.8068   23.3895 O   0  0  0  0  0  0  0  0  0  0  0  0
    2.7593   -7.5478   27.1242 C   0  0  2  0  0  0  0  0  0  0  0  0
    1.3797   -5.9683   23.8358 C   0  0  2  0  0  0  0  0  0  0  0  0
    2.7007   -5.8201   24.3965 O   0  0  0  0  0  0  0  0  0  0  0  0
    4.0842   -7.2506   27.9496 C   0  0  2  0  0  0  0  0  0  0  0  0
    4.9924   -6.4763   27.1102 O   0  0  0  0  0  0  0  0  0  0  0  0
    1.5159   -6.4173   22.4298 C   0  0  0  0  0  0  0  0  0  0  0  0
    0.7242   -7.4923   22.2219 N   0  0  0  0  0  0  0  0  0  0  0  0
    4.7441   -8.6138   28.3561 C   0  0  1  0  0  0  0  0  0  0  0  0
    5.9247   -8.3872   29.0580 O   0  0  0  0  0  0  0  0  0  0  0  0
  1  2  1  1  0  0  0
  1  5  1  0  0  0  0
  1 29  1  0  0  0  0
  3  4  1  6  0  0  0
  3  7  1  0  0  0  0
  3 34  1  0  0  0  0
  5  6  1  1  0  0  0
  5 16  1  0  0  0  0
  7 19  1  0  0  0  0
  8  4  1  0  0  0  0
  8 24  2  0  0  0  0
  9  8  1  6  0  0  0
  9 10  1  0  0  0  0
  9 13  1  0  0  0  0
 10 11  1  0  0  0  0
 11 12  1  0  0  0  0
 14 15  1  0  0  0  0
 14 35  1  0  0  0  0
 15 17  1  0  0  0  0
 16 18  1  6  0  0  0
 16 25  1  0  0  0  0
 19 20  1  6  0  0  0
 19 27  1  0  0  0  0
 21 22  1  0  0  0  0
 21 23  1  0  0  0  0
 23 17  1  0  0  0  0
 25 26  1  1  0  0  0
 25 28  1  0  0  0  0
 27  2  1  1  0  0  0
 27 30  1  0  0  0  0
 28 29  1  0  0  0  0
 28 32  1  6  0  0  0
 30 31  1  6  0  0  0
 30 34  1  0  0  0  0
 32 33  2  0  0  0  0
 34 35  1  1  0  0  0
M  END
>  <CHROM.1>
-162.61786808,-71.80348664,172.37145805,-63.53094410,-175.59809545,-63.23788629
-179.86439637,-155.11751673,60.03653820,165.65160376,-175.89946009,-107.26384666
177.62006978,3.35430062,-7.97384843,28.42461856,-2.20817832,0.87278205,2.71886286

>  <Name>
2f4t_lig

>  <RI>
0

>  <Rbt.Current_Directory>
/home/itssahil/PROJECTS/Mol_Feturizer/New_Systems/rnas/2f4t

>  <Rbt.Executable>
rbdock ($Id: //depot/dev/client3/rdock/2013.1/src/exe/rbdock.cxx#4 $)

>  <Rbt.Library>
libRbt.so (2013.1, Build901 2013/11/27)

>  <Rbt.Parameter_File>
/export/apps/rDock/src/rDock_2013.1_src/data/scripts/dock_solv.prm

>  <Rbt.Receptor>
prm/pocket_docking_3.prm

>  <SCORE>
-24.3669

>  <SCORE.INTER>
-15.0922

>  <SCORE.INTER.CONST>
1

>  <SCORE.INTER.POLAR>
-0.938083

>  <SCORE.INTER.ROT>
13

>  <SCORE.INTER.SOLV>
17.9032

>  <SCORE.INTER.VDW>
-25.1689

>  <SCORE.INTER.norm>
-0.431205

>  <SCORE.INTRA>
-9.2747

>  <SCORE.INTRA.DIHEDRAL>
-19.7686

>  <SCORE.INTRA.DIHEDRAL.0>
23.8882

>  <SCORE.INTRA.POLAR>
0

>  <SCORE.INTRA.POLAR.0>
0

>  <SCORE.INTRA.REPUL>
0

>  <SCORE.INTRA.REPUL.0>
0

>  <SCORE.INTRA.SOLV>
0.382596

>  <SCORE.INTRA.SOLV.lig_0>
-97.6888

>  <SCORE.INTRA.VDW>
0.418325

>  <SCORE.INTRA.VDW.0>
-3.9206

>  <SCORE.INTRA.norm>
-0.264991

>  <SCORE.RESTR>
0

>  <SCORE.RESTR.CAVITY>
0

>  <SCORE.RESTR.norm>
0

>  <SCORE.SYSTEM>
0

>  <SCORE.SYSTEM.CONST>
0

>  <SCORE.SYSTEM.DIHEDRAL>
0

>  <SCORE.SYSTEM.SOLV>
0

>  <SCORE.SYSTEM.norm>
0

>  <SCORE.heavy>
35

>  <SCORE.norm>
-0.696196

>  <RMSD>
1.201

$$$$
2f4t_lig
 OpenBabel11021811433D
libRbt.so/2013.1/901 2013/11/27
 35 36  0  0  0  0  0  0  0  0999 V2000
    2.7058   -5.8562   25.9148 C   0  0  2  0  0  0  0  0  0  0  0  0
    1.9870   -6.4007   27.0699 O   0  0  0  0  0  0  0  0  0  0  0  0
    3.0351   -8.8142   30.4954 C   0  0  2  0  0  0  0  0  0  0  0  0
    3.5118   -9.9586   31.2865 N   0  0  0  0  0  0  0  0  0  0  0  0
    2.2272   -4.3796   25.7731 C   0  0  2  0  0  0  0  0  0  0  0  0
    2.4590   -3.6490   26.9970 N   0  0  0  0  0  0  0  0  0  0  0  0
    1.9586   -9.3103   29.4617 C   0  0  0  0  0  0  0  0  0  0  0  0
    3.8479  -11.3199   30.2129 C   0  0  0  0  0  0  0  0  0  0  0  0
    4.2544  -12.0673   31.4636 C   0  0  1  0  0  0  0  0  0  0  0  0
    3.0109  -12.7799   32.0002 C   0  0  0  0  0  0  0  0  0  0  0  0
    3.2121  -13.5868   33.2939 C   0  0  0  0  0  0  0  0  0  0  0  0
    1.9621  -14.2883   33.6009 N   0  0  0  0  0  0  0  0  0  0  0  0
    5.1790  -13.0802   31.1647 O   0  0  0  0  0  0  0  0  0  0  0  0
    6.4106   -7.1769   31.0844 C   0  0  0  0  0  0  0  0  0  0  0  0
    6.3815   -7.1013   32.6033 C   0  0  0  0  0  0  0  0  0  0  0  0
    0.7103   -4.3406   25.3860 C   0  0  1  0  0  0  0  0  0  0  0  0
    7.5648   -6.4300   33.1845 N   0  0  0  0  0  0  0  0  0  0  0  0
    0.2567   -3.0082   25.2476 O   0  0  0  0  0  0  0  0  0  0  0  0
    1.4263   -8.1614   28.5938 C   0  0  2  0  0  0  0  0  0  0  0  0
    0.4601   -8.6529   27.6165 N   0  0  0  0  0  0  0  0  0  0  0  0
    7.0359   -4.1098   33.9385 C   0  0  0  0  0  0  0  0  0  0  0  0
    7.2318   -2.5737   33.7289 N   0  0  0  0  0  0  0  0  0  0  0  0
    7.8128   -4.9859   32.9117 C   0  0  0  0  0  0  0  0  0  0  0  0
    3.7756  -11.4794   29.1600 O   0  0  0  0  0  0  0  0  0  0  0  0
    0.5348   -5.1122   24.0739 C   0  0  2  0  0  0  0  0  0  0  0  0
   -0.8212   -5.1052   23.6579 O   0  0  0  0  0  0  0  0  0  0  0  0
    2.5598   -7.4816   27.8672 C   0  0  2  0  0  0  0  0  0  0  0  0
    1.0398   -6.5738   24.2465 C   0  0  2  0  0  0  0  0  0  0  0  0
    2.4197   -6.6007   24.6668 O   0  0  0  0  0  0  0  0  0  0  0  0
    3.6367   -6.9498   28.9077 C   0  0  2  0  0  0  0  0  0  0  0  0
    4.7124   -6.2946   28.1711 O   0  0  0  0  0  0  0  0  0  0  0  0
    0.9174   -7.3541   22.9923 C   0  0  0  0  0  0  0  0  0  0  0  0
    1.0760   -6.5308   21.9327 N   0  0  0  0  0  0  0  0  0  0  0  0
    4.1956   -8.1664   29.7242 C   0  0  1  0  0  0  0  0  0  0  0  0
    5.1641   -7.7364   30.6270 O   0  0  0  0  0  0  0  0  0  0  0  0
  1  2  1  1  0  0  0
  1  5  1  0  0  0  0
  1 29  1  0  0  0  0
  3  4  1  6  0  0  0
  3  7  1  0  0  0  0
  3 34  1  0  0  0  0
  5  6  1  1  0  0  0
  5 16  1  0  0  0  0
  7 19  1  0  0  0  0
  8  4  1  0  0  0  0
  8 24  2  0  0  0  0
  9  8  1  6  0  0  0
  9 10  1  0  0  0  0
  9 13  1  0  0  0  0
 10 11  1  0  0  0  0
 11 12  1  0  0  0  0
 14 15  1  0  0  0  0
 14 35  1  0  0  0  0
 15 17  1  0  0  0  0
 16 18  1  6  0  0  0
 16 25  1  0  0  0  0
 19 20  1  6  0  0  0
 19 27  1  0  0  0  0
 21 22  1  0  0  0  0
 21 23  1  0  0  0  0
 23 17  1  0  0  0  0
 25 26  1  1  0  0  0
 25 28  1  0  0  0  0
 27  2  1  1  0  0  0
 27 30  1  0  0  0  0
 28 29  1  0  0  0  0
 28 32  1  6  0  0  0
 30 31  1  6  0  0  0
 30 34  1  0  0  0  0
 32 33  2  0  0  0  0
 34 35  1  1  0  0  0
M  END
>  <CHROM.1>
-152.32422012,45.56341478,90.75153628,-179.10862255,-175.31793945,-174.88593360
176.30993514,64.79403155,-179.83585004,86.07683417,-158.41973638,31.48245056
175.79740847,3.26113306,-7.63295708,28.82269938,-2.28906596,0.91190395,2.69228954

>  <Name>
2f4t_lig

>  <RI>
0

>  <Rbt.Current_Directory>
/home/itssahil/PROJECTS/Mol_Feturizer/New_Systems/rnas/2f4t

>  <Rbt.Executable>
rbdock ($Id: //depot/dev/client3/rdock/2013.1/src/exe/rbdock.cxx#4 $)

>  <Rbt.Library>
libRbt.so (2013.1, Build901 2013/11/27)

>  <Rbt.Parameter_File>
/export/apps/rDock/src/rDock_2013.1_src/data/scripts/dock_solv.prm

>  <Rbt.Receptor>
prm/pocket_docking_2.prm

>  <SCORE>
-13.5076

>  <SCORE.INTER>
-9.8512

>  <SCORE.INTER.CONST>
1

>  <SCORE.INTER.POLAR>
-1.70715

>  <SCORE.INTER.ROT>
13

>  <SCORE.INTER.SOLV>
14.6142

>  <SCORE.INTER.VDW>
-18.015

>  <SCORE.INTER.norm>
-0.281463

>  <SCORE.INTRA>
-4.93416

>  <SCORE.INTRA.DIHEDRAL>
-14.6862

>  <SCORE.INTRA.DIHEDRAL.0>
23.8882

>  <SCORE.INTRA.POLAR>
0

>  <SCORE.INTRA.POLAR.0>
0

>  <SCORE.INTRA.REPUL>
0

>  <SCORE.INTRA.REPUL.0>
0

>  <SCORE.INTRA.SOLV>
0.0343407

>  <SCORE.INTRA.SOLV.lig_0>
-97.6888

>  <SCORE.INTRA.VDW>
2.39178

>  <SCORE.INTRA.VDW.0>
-3.9206

>  <SCORE.INTRA.norm>
-0.140976

>  <SCORE.RESTR>
1.27775

>  <SCORE.RESTR.CAVITY>
1.27775

>  <SCORE.RESTR.norm>
0.0365073

>  <SCORE.SYSTEM>
0

>  <SCORE.SYSTEM.CONST>
0

>  <SCORE.SYSTEM.DIHEDRAL>
0

>  <SCORE.SYSTEM.SOLV>
0

>  <SCORE.SYSTEM.norm>
0

>  <SCORE.heavy>
35

>  <SCORE.norm>
-0.385932

>  <RMSD>
1.213

$$$$
2f4t_lig
 OpenBabel11021811433D
libRbt.so/2013.1/901 2013/11/27
 35 36  0  0  0  0  0  0  0  0999 V2000
    3.4842   -5.5144   26.5909 C   0  0  2  0  0  0  0  0  0  0  0  0
    2.7782   -6.2963   27.6094 O   0  0  0  0  0  0  0  0  0  0  0  0
    3.4812   -9.8564   29.9521 C   0  0  2  0  0  0  0  0  0  0  0  0
    3.8349  -11.2443   30.2858 N   0  0  0  0  0  0  0  0  0  0  0  0
    3.3572   -4.0253   27.0336 C   0  0  2  0  0  0  0  0  0  0  0  0
    3.8787   -3.8441   28.3680 N   0  0  0  0  0  0  0  0  0  0  0  0
    2.4232   -9.8559   28.7884 C   0  0  0  0  0  0  0  0  0  0  0  0
    4.4665  -11.3133   31.9336 C   0  0  0  0  0  0  0  0  0  0  0  0
    4.6123  -12.8008   31.7010 C   0  0  1  0  0  0  0  0  0  0  0  0
    5.1660  -13.4171   32.9876 C   0  0  0  0  0  0  0  0  0  0  0  0
    5.3832  -14.9393   32.9569 C   0  0  0  0  0  0  0  0  0  0  0  0
    5.7356  -15.3838   34.3087 N   0  0  0  0  0  0  0  0  0  0  0  0
    3.3605  -13.4015   31.4947 O   0  0  0  0  0  0  0  0  0  0  0  0
    6.8922   -8.7472   31.1970 C   0  0  0  0  0  0  0  0  0  0  0  0
    6.8914   -7.2543   31.4882 C   0  0  0  0  0  0  0  0  0  0  0  0
    1.8614   -3.5676   26.9587 C   0  0  1  0  0  0  0  0  0  0  0  0
    7.9896   -6.8258   32.3819 N   0  0  0  0  0  0  0  0  0  0  0  0
    1.7248   -2.2160   27.3524 O   0  0  0  0  0  0  0  0  0  0  0  0
    2.0182   -8.4317   28.3837 C   0  0  2  0  0  0  0  0  0  0  0  0
    1.0677   -8.4564   27.2764 N   0  0  0  0  0  0  0  0  0  0  0  0
    7.2455   -4.5593   33.1174 C   0  0  0  0  0  0  0  0  0  0  0  0
    6.8606   -3.6129   34.2998 N   0  0  0  0  0  0  0  0  0  0  0  0
    7.6956   -5.9789   33.5727 C   0  0  0  0  0  0  0  0  0  0  0  0
    4.6416  -10.5910   32.6996 O   0  0  0  0  0  0  0  0  0  0  0  0
    1.3757   -3.7648   25.5190 C   0  0  2  0  0  0  0  0  0  0  0  0
    0.0249   -3.3557   25.3781 O   0  0  0  0  0  0  0  0  0  0  0  0
    3.2318   -7.6355   27.9737 C   0  0  2  0  0  0  0  0  0  0  0  0
    1.5349   -5.2562   25.1051 C   0  0  2  0  0  0  0  0  0  0  0  0
    2.9046   -5.6895   25.2393 O   0  0  0  0  0  0  0  0  0  0  0  0
    4.2924   -7.6053   29.1566 C   0  0  2  0  0  0  0  0  0  0  0  0
    5.4472   -6.8236   28.7272 O   0  0  0  0  0  0  0  0  0  0  0  0
    1.1043   -5.4923   23.7066 C   0  0  0  0  0  0  0  0  0  0  0  0
    1.9948   -6.3016   23.0921 N   0  0  0  0  0  0  0  0  0  0  0  0
    4.7216   -9.0764   29.4895 C   0  0  1  0  0  0  0  0  0  0  0  0
    5.6735   -9.0824   30.5052 O   0  0  0  0  0  0  0  0  0  0  0  0
  1  2  1  1  0  0  0
  1  5  1  0  0  0  0
  1 29  1  0  0  0  0
  3  4  1  6  0  0  0
  3  7  1  0  0  0  0
  3 34  1  0  0  0  0
  5  6  1  1  0  0  0
  5 16  1  0  0  0  0
  7 19  1  0  0  0  0
  8  4  1  0  0  0  0
  8 24  2  0  0  0  0
  9  8  1  1  0  0  0
  9 10  1  0  0  0  0
  9 13  1  0  0  0  0
 10 11  1  0  0  0  0
 11 12  1  0  0  0  0
 14 15  1  0  0  0  0
 14 35  1  0  0  0  0
 15 17  1  0  0  0  0
 16 18  1  6  0  0  0
 16 25  1  0  0  0  0
 19 20  1  6  0  0  0
 19 27  1  0  0  0  0
 21 22  1  0  0  0  0
 21 23  1  0  0  0  0
 23 17  1  0  0  0  0
 25 26  1  1  0  0  0
 25 28  1  0  0  0  0
 27  2  1  1  0  0  0
 27 30  1  0  0  0  0
 28 29  1  0  0  0  0
 28 32  1  6  0  0  0
 30 31  1  6  0  0  0
 30 34  1  0  0  0  0
 32 33  2  0  0  0  0
 34 35  1  1  0  0  0
M  END
>  <CHROM.1>
-146.75654632,-157.28212647,-178.99246412,179.77138241,-172.33941684,170.86653048
62.84573848,-130.05596323,177.75596833,-68.50948488,-149.27263629,136.85008769
-173.32277816,3.97856239,-7.76510077,29.34061145,2.13683527,-0.90073866,-0.28247204

>  <Name>
2f4t_lig

>  <RI>
0

>  <Rbt.Current_Directory>
/home/itssahil/PROJECTS/Mol_Feturizer/New_Systems/rnas/2f4t

>  <Rbt.Executable>
rbdock ($Id: //depot/dev/client3/rdock/2013.1/src/exe/rbdock.cxx#4 $)

>  <Rbt.Library>
libRbt.so (2013.1, Build901 2013/11/27)

>  <Rbt.Parameter_File>
/export/apps/rDock/src/rDock_2013.1_src/data/scripts/dock_solv.prm

>  <Rbt.Receptor>
prm/pocket_docking_3.prm

>  <SCORE>
-21.0719

>  <SCORE.INTER>
-17.0064

>  <SCORE.INTER.CONST>
1

>  <SCORE.INTER.POLAR>
-2.33003

>  <SCORE.INTER.ROT>
13

>  <SCORE.INTER.SOLV>
18.696

>  <SCORE.INTER.VDW>
-22.0695

>  <SCORE.INTER.norm>
-0.485897

>  <SCORE.INTRA>
-4.06554

>  <SCORE.INTRA.DIHEDRAL>
-11.8339

>  <SCORE.INTRA.DIHEDRAL.0>
23.8882

>  <SCORE.INTRA.POLAR>
0

>  <SCORE.INTRA.POLAR.0>
0

>  <SCORE.INTRA.REPUL>
0

>  <SCORE.INTRA.REPUL.0>
0

>  <SCORE.INTRA.SOLV>
0.947879

>  <SCORE.INTRA.SOLV.lig_0>
-97.6888

>  <SCORE.INTRA.VDW>
1.37749

>  <SCORE.INTRA.VDW.0>
-3.9206

>  <SCORE.INTRA.norm>
-0.116158

>  <SCORE.RESTR>
0

>  <SCORE.RESTR.CAVITY>
0

>  <SCORE.RESTR.norm>
0

>  <SCORE.SYSTEM>
0

>  <SCORE.SYSTEM.CONST>
0

>  <SCORE.SYSTEM.DIHEDRAL>
0

>  <SCORE.SYSTEM.SOLV>
0

>  <SCORE.SYSTEM.norm>
0

>  <SCORE.heavy>
35

>  <SCORE.norm>
-0.602055

>  <RMSD>
1.227

$$$$
2f4t_lig
 OpenBabel11021811433D
libRbt.so/2013.1/901 2013/11/27
 35 36  0  0  0  0  0  0  0  0999 V2000
    2.4880   -5.3845   25.5841 C   0  0  2  0  0  0  0  0  0  0  0  0
    1.8961   -6.3320   26.5322 O   0  0  0  0  0  0  0  0  0  0  0  0
    3.8159   -8.7714   29.5358 C   0  0  2  0  0  0  0  0  0  0  0  0
    4.5313   -9.8999   30.1501 N   0  0  0  0  0  0  0  0  0  0  0  0
    1.7151   -4.0455   25.7819 C   0  0  2  0  0  0  0  0  0  0  0  0
    1.7901   -3.6121   27.1574 N   0  0  0  0  0  0  0  0  0  0  0  0
    2.5856   -9.3178   28.7225 C   0  0  0  0  0  0  0  0  0  0  0  0
    3.4705  -10.7143   31.3036 C   0  0  0  0  0  0  0  0  0  0  0  0
    4.6319  -11.6529   31.5454 C   0  0  1  0  0  0  0  0  0  0  0  0
    4.2955  -12.4956   32.7777 C   0  0  0  0  0  0  0  0  0  0  0  0
    3.5527  -13.8134   32.5005 C   0  0  0  0  0  0  0  0  0  0  0  0
    2.3840  -13.5191   31.6659 N   0  0  0  0  0  0  0  0  0  0  0  0
    4.7718  -12.5616   30.4848 O   0  0  0  0  0  0  0  0  0  0  0  0
    6.9712   -7.5565   30.1722 C   0  0  0  0  0  0  0  0  0  0  0  0
    6.4608   -7.6170   31.6038 C   0  0  0  0  0  0  0  0  0  0  0  0
    0.2231   -4.2148   25.3372 C   0  0  1  0  0  0  0  0  0  0  0  0
    7.5114   -7.3746   32.6167 N   0  0  0  0  0  0  0  0  0  0  0  0
   -0.4956   -3.0083   25.5044 O   0  0  0  0  0  0  0  0  0  0  0  0
    1.7996   -8.1866   28.0449 C   0  0  2  0  0  0  0  0  0  0  0  0
    0.6883   -8.7212   27.2641 N   0  0  0  0  0  0  0  0  0  0  0  0
    7.0013   -5.1296   33.5818 C   0  0  0  0  0  0  0  0  0  0  0  0
    5.6058   -4.7671   32.9792 N   0  0  0  0  0  0  0  0  0  0  0  0
    7.1810   -6.6483   33.8756 C   0  0  0  0  0  0  0  0  0  0  0  0
    2.4677  -10.5622   31.6359 O   0  0  0  0  0  0  0  0  0  0  0  0
    0.2118   -4.6538   23.8692 C   0  0  2  0  0  0  0  0  0  0  0  0
   -1.1161   -4.8141   23.3972 O   0  0  0  0  0  0  0  0  0  0  0  0
    2.7017   -7.3895   27.1362 C   0  0  2  0  0  0  0  0  0  0  0  0
    1.0074   -5.9809   23.7063 C   0  0  2  0  0  0  0  0  0  0  0  0
    2.3628   -5.8358   24.1790 O   0  0  0  0  0  0  0  0  0  0  0  0
    3.9312   -6.8079   27.9579 C   0  0  2  0  0  0  0  0  0  0  0  0
    4.7767   -6.0397   27.0501 O   0  0  0  0  0  0  0  0  0  0  0  0
    1.0499   -6.4320   22.2951 C   0  0  0  0  0  0  0  0  0  0  0  0
    0.1103   -7.3829   22.0981 N   0  0  0  0  0  0  0  0  0  0  0  0
    4.7374   -8.0024   28.5763 C   0  0  1  0  0  0  0  0  0  0  0  0
    5.8397   -7.5262   29.2806 O   0  0  0  0  0  0  0  0  0  0  0  0
  1  2  1  1  0  0  0
  1  5  1  0  0  0  0
  1 29  1  0  0  0  0
  3  4  1  6  0  0  0
  3  7  1  0  0  0  0
  3 34  1  0  0  0  0
  5  6  1  1  0  0  0
  5 16  1  0  0  0  0
  7 19  1  0  0  0  0
  8  4  1  0  0  0  0
  8 24  2  0  0  0  0
  9  8  1  6  0  0  0
  9 10  1  0  0  0  0
  9 13  1  0  0  0  0
 10 11  1  0  0  0  0
 11 12  1  0  0  0  0
 14 15  1  0  0  0  0
 14 35  1  0  0  0  0
 15 17  1  0  0  0  0
 16 18  1  6  0  0  0
 16 25  1  0  0  0  0
 19 20  1  6  0  0  0
 19 27  1  0  0  0  0
 21 22  1  0  0  0  0
 21 23  1  0  0  0  0
 23 17  1  0  0  0  0
 25 26  1  1  0  0  0
 25 28  1  0  0  0  0
 27  2  1  1  0  0  0
 27 30  1  0  0  0  0
 28 29  1  0  0  0  0
 28 32  1  6  0  0  0
 30 31  1  6  0  0  0
 30 34  1  0  0  0  0
 32 33  2  0  0  0  0
 34 35  1  1  0  0  0
M  END
>  <CHROM.1>
-148.38284375,-63.08300934,168.88511998,90.10074869,-51.67973236,-168.17562099
-73.61718572,144.98400615,79.82733576,-74.14651061,-179.57233253,-98.90711591
48.77098913,3.22633602,-7.61243314,28.44939181,-2.31905461,0.87029924,2.74047805

>  <Name>
2f4t_lig

>  <RI>
0

>  <Rbt.Current_Directory>
/home/itssahil/PROJECTS/Mol_Feturizer/New_Systems/rnas/2f4t

>  <Rbt.Executable>
rbdock ($Id: //depot/dev/client3/rdock/2013.1/src/exe/rbdock.cxx#4 $)

>  <Rbt.Library>
libRbt.so (2013.1, Build901 2013/11/27)

>  <Rbt.Parameter_File>
/export/apps/rDock/src/rDock_2013.1_src/data/scripts/dock_solv.prm

>  <Rbt.Receptor>
prm/pocket_docking_2.prm

>  <SCORE>
-17.3722

>  <SCORE.INTER>
-16.6119

>  <SCORE.INTER.CONST>
1

>  <SCORE.INTER.POLAR>
-1.68658

>  <SCORE.INTER.ROT>
13

>  <SCORE.INTER.SOLV>
15.6938

>  <SCORE.INTER.VDW>
-22.9506

>  <SCORE.INTER.norm>
-0.474626

>  <SCORE.INTRA>
-1.05519

>  <SCORE.INTRA.DIHEDRAL>
-10.9035

>  <SCORE.INTRA.DIHEDRAL.0>
23.8882

>  <SCORE.INTRA.POLAR>
0

>  <SCORE.INTRA.POLAR.0>
0

>  <SCORE.INTRA.REPUL>
0

>  <SCORE.INTRA.REPUL.0>
0

>  <SCORE.INTRA.SOLV>
5.63763

>  <SCORE.INTRA.SOLV.lig_0>
-97.6888

>  <SCORE.INTRA.VDW>
1.57775

>  <SCORE.INTRA.VDW.0>
-3.9206

>  <SCORE.INTRA.norm>
-0.0301484

>  <SCORE.RESTR>
0.29492

>  <SCORE.RESTR.CAVITY>
0.29492

>  <SCORE.RESTR.norm>
0.0084263

>  <SCORE.SYSTEM>
0

>  <SCORE.SYSTEM.CONST>
0

>  <SCORE.SYSTEM.DIHEDRAL>
0

>  <SCORE.SYSTEM.SOLV>
0

>  <SCORE.SYSTEM.norm>
0

>  <SCORE.heavy>
35

>  <SCORE.norm>
-0.496348

>  <RMSD>
1.229

$$$$
2f4t_lig
 OpenBabel11021811433D
libRbt.so/2013.1/901 2013/11/27
 35 36  0  0  0  0  0  0  0  0999 V2000
    2.7691   -5.4205   25.7490 C   0  0  2  0  0  0  0  0  0  0  0  0
    2.1128   -6.3271   26.6949 O   0  0  0  0  0  0  0  0  0  0  0  0
    3.6535   -9.5259   29.1548 C   0  0  2  0  0  0  0  0  0  0  0  0
    4.1748  -10.8463   29.5387 N   0  0  0  0  0  0  0  0  0  0  0  0
    2.0493   -4.0470   25.9066 C   0  0  2  0  0  0  0  0  0  0  0  0
    2.1070   -3.5956   27.2772 N   0  0  0  0  0  0  0  0  0  0  0  0
    2.3239   -9.7111   28.3354 C   0  0  0  0  0  0  0  0  0  0  0  0
    3.1719  -11.5267   30.8233 C   0  0  0  0  0  0  0  0  0  0  0  0
    4.0982  -12.7213   30.7669 C   0  0  1  0  0  0  0  0  0  0  0  0
    3.8751  -13.5389   32.0411 C   0  0  0  0  0  0  0  0  0  0  0  0
    5.0539  -14.4243   32.4790 C   0  0  0  0  0  0  0  0  0  0  0  0
    6.1560  -13.5533   32.8982 N   0  0  0  0  0  0  0  0  0  0  0  0
    3.7588  -13.5696   29.7014 O   0  0  0  0  0  0  0  0  0  0  0  0
    7.0360   -9.0005   29.7240 C   0  0  0  0  0  0  0  0  0  0  0  0
    7.9019   -7.7674   29.9316 C   0  0  0  0  0  0  0  0  0  0  0  0
    0.5635   -4.1600   25.4249 C   0  0  1  0  0  0  0  0  0  0  0  0
    7.5397   -6.9864   31.1347 N   0  0  0  0  0  0  0  0  0  0  0  0
   -0.1071   -2.9215   25.5553 O   0  0  0  0  0  0  0  0  0  0  0  0
    1.7318   -8.3655   27.8935 C   0  0  2  0  0  0  0  0  0  0  0  0
    0.5223   -8.5649   27.1014 N   0  0  0  0  0  0  0  0  0  0  0  0
    7.2883   -6.5735   33.5838 C   0  0  0  0  0  0  0  0  0  0  0  0
    5.8985   -5.8674   33.4764 N   0  0  0  0  0  0  0  0  0  0  0  0
    7.5369   -7.6385   32.4750 C   0  0  0  0  0  0  0  0  0  0  0  0
    2.3103  -11.1929   31.3574 O   0  0  0  0  0  0  0  0  0  0  0  0
    0.5715   -4.6211   23.9637 C   0  0  2  0  0  0  0  0  0  0  0  0
   -0.7493   -4.7324   23.4589 O   0  0  0  0  0  0  0  0  0  0  0  0
    2.7351   -7.5921   27.0748 C   0  0  2  0  0  0  0  0  0  0  0  0
    1.3137   -5.9832   23.8415 C   0  0  2  0  0  0  0  0  0  0  0  0
    2.6613   -5.8881   24.3479 O   0  0  0  0  0  0  0  0  0  0  0  0
    4.0704   -7.3740   27.9082 C   0  0  2  0  0  0  0  0  0  0  0  0
    5.0129   -6.6193   27.0889 O   0  0  0  0  0  0  0  0  0  0  0  0
    1.3734   -6.4578   22.4386 C   0  0  0  0  0  0  0  0  0  0  0  0
    0.6306   -7.5792   22.3109 N   0  0  0  0  0  0  0  0  0  0  0  0
    4.6695   -8.7746   28.2804 C   0  0  1  0  0  0  0  0  0  0  0  0
    5.8578   -8.6175   28.9884 O   0  0  0  0  0  0  0  0  0  0  0  0
  1  2  1  1  0  0  0
  1  5  1  0  0  0  0
  1 29  1  0  0  0  0
  3  4  1  6  0  0  0
  3  7  1  0  0  0  0
  3 34  1  0  0  0  0
  5  6  1  1  0  0  0
  5 16  1  0  0  0  0
  7 19  1  0  0  0  0
  8  4  1  0  0  0  0
  8 24  2  0  0  0  0
  9  8  1  1  0  0  0
  9 10  1  0  0  0  0
  9 13  1  0  0  0  0
 10 11  1  0  0  0  0
 11 12  1  0  0  0  0
 14 15  1  0  0  0  0
 14 35  1  0  0  0  0
 15 17  1  0  0  0  0
 16 18  1  6  0  0  0
 16 25  1  0  0  0  0
 19 20  1  6  0  0  0
 19 27  1  0  0  0  0
 21 22  1  0  0  0  0
 21 23  1  0  0  0  0
 23 17  1  0  0  0  0
 25 26  1  1  0  0  0
 25 28  1  0  0  0  0
 27  2  1  1  0  0  0
 27 30  1  0  0  0  0
 28 29  1  0  0  0  0
 28 32  1  6  0  0  0
 30 31  1  6  0  0  0
 30 34  1  0  0  0  0
 32 33  2  0  0  0  0
 34 35  1  1  0  0  0
M  END
>  <CHROM.1>
-164.03629420,-73.21525223,164.30459649,-155.61831064,67.62472428,86.49212510
171.86653480,56.92016742,62.67047218,173.36948495,-172.13663535,-113.39445759
58.13860544,3.47445972,-8.05078885,28.24543226,-2.24732511,0.81300799,2.79265430

>  <Name>
2f4t_lig

>  <RI>
0

>  <Rbt.Current_Directory>
/home/itssahil/PROJECTS/Mol_Feturizer/New_Systems/rnas/2f4t

>  <Rbt.Executable>
rbdock ($Id: //depot/dev/client3/rdock/2013.1/src/exe/rbdock.cxx#4 $)

>  <Rbt.Library>
libRbt.so (2013.1, Build901 2013/11/27)

>  <Rbt.Parameter_File>
/export/apps/rDock/src/rDock_2013.1_src/data/scripts/dock_solv.prm

>  <Rbt.Receptor>
prm/pocket_docking_3.prm

>  <SCORE>
-23.7753

>  <SCORE.INTER>
-16.892

>  <SCORE.INTER.CONST>
1

>  <SCORE.INTER.POLAR>
-1.55979

>  <SCORE.INTER.ROT>
13

>  <SCORE.INTER.SOLV>
23.3772

>  <SCORE.INTER.VDW>
-26.1211

>  <SCORE.INTER.norm>
-0.48263

>  <SCORE.INTRA>
-6.88322

>  <SCORE.INTRA.DIHEDRAL>
-15.6918

>  <SCORE.INTRA.DIHEDRAL.0>
23.8882

>  <SCORE.INTRA.POLAR>
0

>  <SCORE.INTRA.POLAR.0>
0

>  <SCORE.INTRA.REPUL>
0

>  <SCORE.INTRA.REPUL.0>
0

>  <SCORE.INTRA.SOLV>
1.00435

>  <SCORE.INTRA.SOLV.lig_0>
-97.6888

>  <SCORE.INTRA.VDW>
0.46048

>  <SCORE.INTRA.VDW.0>
-3.9206

>  <SCORE.INTRA.norm>
-0.196664

>  <SCORE.RESTR>
0

>  <SCORE.RESTR.CAVITY>
0

>  <SCORE.RESTR.norm>
0

>  <SCORE.SYSTEM>
0

>  <SCORE.SYSTEM.CONST>
0

>  <SCORE.SYSTEM.DIHEDRAL>
0

>  <SCORE.SYSTEM.SOLV>
0

>  <SCORE.SYSTEM.norm>
0

>  <SCORE.heavy>
35

>  <SCORE.norm>
-0.679293

>  <RMSD>
1.248

$$$$
2f4t_lig
 OpenBabel11021811433D
libRbt.so/2013.1/901 2013/11/27
 35 36  0  0  0  0  0  0  0  0999 V2000
    2.9279   -6.7044   25.9039 C   0  0  2  0  0  0  0  0  0  0  0  0
    2.1586   -7.1236   27.0784 O   0  0  0  0  0  0  0  0  0  0  0  0
    3.3797   -9.4634   30.4978 C   0  0  2  0  0  0  0  0  0  0  0  0
    3.6948  -10.6335   31.3309 N   0  0  0  0  0  0  0  0  0  0  0  0
    2.9754   -5.1474   25.9597 C   0  0  2  0  0  0  0  0  0  0  0  0
    3.5388   -4.6993   27.2117 N   0  0  0  0  0  0  0  0  0  0  0  0
    1.9488   -9.6432   29.8704 C   0  0  0  0  0  0  0  0  0  0  0  0
    3.6182  -12.0976   30.3464 C   0  0  0  0  0  0  0  0  0  0  0  0
    3.9991  -12.8380   31.6093 C   0  0  1  0  0  0  0  0  0  0  0  0
    2.8531  -13.7941   31.9473 C   0  0  0  0  0  0  0  0  0  0  0  0
    2.8727  -14.3806   33.3689 C   0  0  0  0  0  0  0  0  0  0  0  0
    4.1144  -15.1413   33.5385 N   0  0  0  0  0  0  0  0  0  0  0  0
    5.1254  -13.6481   31.3957 O   0  0  0  0  0  0  0  0  0  0  0  0
    6.7464   -8.5759   30.6576 C   0  0  0  0  0  0  0  0  0  0  0  0
    6.3182   -8.4806   32.1140 C   0  0  0  0  0  0  0  0  0  0  0  0
    1.5386   -4.5578   25.7587 C   0  0  1  0  0  0  0  0  0  0  0  0
    6.2655   -7.0933   32.6252 N   0  0  0  0  0  0  0  0  0  0  0  0
    1.5603   -3.1443   25.8013 O   0  0  0  0  0  0  0  0  0  0  0  0
    1.5621   -8.4560   28.9774 C   0  0  2  0  0  0  0  0  0  0  0  0
    0.2491   -8.6647   28.3751 N   0  0  0  0  0  0  0  0  0  0  0  0
    7.2074   -5.1770   33.9183 C   0  0  0  0  0  0  0  0  0  0  0  0
    6.2484   -4.1216   33.2792 N   0  0  0  0  0  0  0  0  0  0  0  0
    7.5250   -6.3815   32.9835 C   0  0  0  0  0  0  0  0  0  0  0  0
    3.3962  -12.3012   29.3225 O   0  0  0  0  0  0  0  0  0  0  0  0
    1.0071   -5.0515   24.4091 C   0  0  2  0  0  0  0  0  0  0  0  0
   -0.2923   -4.5415   24.1575 O   0  0  0  0  0  0  0  0  0  0  0  0
    2.5819   -8.2667   27.8824 C   0  0  2  0  0  0  0  0  0  0  0  0
    0.9919   -6.6072   24.3820 C   0  0  2  0  0  0  0  0  0  0  0  0
    2.3072   -7.1443   24.6332 O   0  0  0  0  0  0  0  0  0  0  0  0
    4.0261   -8.0531   28.5099 C   0  0  2  0  0  0  0  0  0  0  0  0
    4.9832   -7.8678   27.4242 O   0  0  0  0  0  0  0  0  0  0  0  0
    0.5116   -7.1342   23.0826 C   0  0  0  0  0  0  0  0  0  0  0  0
    1.1492   -6.4979   22.0755 N   0  0  0  0  0  0  0  0  0  0  0  0
    4.4011   -9.3169   29.3592 C   0  0  1  0  0  0  0  0  0  0  0  0
    5.6754   -9.1726   29.9006 O   0  0  0  0  0  0  0  0  0  0  0  0
  1  2  1  1  0  0  0
  1  5  1  0  0  0  0
  1 29  1  0  0  0  0
  3  4  1  6  0  0  0
  3  7  1  0  0  0  0
  3 34  1  0  0  0  0
  5  6  1  1  0  0  0
  5 16  1  0  0  0  0
  7 19  1  0  0  0  0
  8  4  1  0  0  0  0
  8 24  2  0  0  0  0
  9  8  1  6  0  0  0
  9 10  1  0  0  0  0
  9 13  1  0  0  0  0
 10 11  1  0  0  0  0
 11 12  1  0  0  0  0
 14 15  1  0  0  0  0
 14 35  1  0  0  0  0
 15 17  1  0  0  0  0
 16 18  1  6  0  0  0
 16 25  1  0  0  0  0
 19 20  1  6  0  0  0
 19 27  1  0  0  0  0
 21 22  1  0  0  0  0
 21 23  1  0  0  0  0
 23 17  1  0  0  0  0
 25 26  1  1  0  0  0
 25 28  1  0  0  0  0
 27  2  1  1  0  0  0
 27 30  1  0  0  0  0
 28 29  1  0  0  0  0
 28 32  1  6  0  0  0
 30 31  1  6  0  0  0
 30 34  1  0  0  0  0
 32 33  2  0  0  0  0
 34 35  1  1  0  0  0
M  END
>  <CHROM.1>
-137.96515633,58.33095471,118.14666855,-165.21481627,-60.50524712,-118.58810221
60.27883800,-77.04540591,-59.90007573,-160.93570852,-178.27425369,47.83975641
-62.63139332,3.41693218,-8.33555278,28.83809023,2.13961271,-0.91402724,-0.43219945

>  <Name>
2f4t_lig

>  <RI>
0

>  <Rbt.Current_Directory>
/home/itssahil/PROJECTS/Mol_Feturizer/New_Systems/rnas/2f4t

>  <Rbt.Executable>
rbdock ($Id: //depot/dev/client3/rdock/2013.1/src/exe/rbdock.cxx#4 $)

>  <Rbt.Library>
libRbt.so (2013.1, Build901 2013/11/27)

>  <Rbt.Parameter_File>
/export/apps/rDock/src/rDock_2013.1_src/data/scripts/dock_solv.prm

>  <Rbt.Receptor>
prm/pocket_docking_2.prm

>  <SCORE>
-13.0929

>  <SCORE.INTER>
-12.8199

>  <SCORE.INTER.CONST>
1

>  <SCORE.INTER.POLAR>
-1.54031

>  <SCORE.INTER.ROT>
13

>  <SCORE.INTER.SOLV>
13.0746

>  <SCORE.INTER.VDW>
-20.0371

>  <SCORE.INTER.norm>
-0.366282

>  <SCORE.INTRA>
-1.4094

>  <SCORE.INTRA.DIHEDRAL>
-7.19379

>  <SCORE.INTRA.DIHEDRAL.0>
23.8882

>  <SCORE.INTRA.POLAR>
0

>  <SCORE.INTRA.POLAR.0>
0

>  <SCORE.INTRA.REPUL>
0

>  <SCORE.INTRA.REPUL.0>
0

>  <SCORE.INTRA.SOLV>
3.42788

>  <SCORE.INTRA.SOLV.lig_0>
-97.6888

>  <SCORE.INTRA.VDW>
0.473557

>  <SCORE.INTRA.VDW.0>
-3.9206

>  <SCORE.INTRA.norm>
-0.0402685

>  <SCORE.RESTR>
1.13638

>  <SCORE.RESTR.CAVITY>
1.13638

>  <SCORE.RESTR.norm>
0.032468

>  <SCORE.SYSTEM>
0

>  <SCORE.SYSTEM.CONST>
0

>  <SCORE.SYSTEM.DIHEDRAL>
0

>  <SCORE.SYSTEM.SOLV>
0

>  <SCORE.SYSTEM.norm>
0

>  <SCORE.heavy>
35

>  <SCORE.norm>
-0.374083

>  <RMSD>
1.250

$$$$
2f4t_lig
 OpenBabel11021811433D
libRbt.so/2013.1/901 2013/11/27
 35 36  0  0  0  0  0  0  0  0999 V2000
    2.8136   -5.6522   25.8148 C   0  0  2  0  0  0  0  0  0  0  0  0
    2.1823   -6.4768   26.8486 O   0  0  0  0  0  0  0  0  0  0  0  0
    3.7923   -9.5905   29.3723 C   0  0  2  0  0  0  0  0  0  0  0  0
    4.2798  -10.9110   29.7982 N   0  0  0  0  0  0  0  0  0  0  0  0
    2.1830   -4.2339   25.9576 C   0  0  2  0  0  0  0  0  0  0  0  0
    2.3680   -3.7264   27.2969 N   0  0  0  0  0  0  0  0  0  0  0  0
    2.3795   -9.7509   28.7001 C   0  0  0  0  0  0  0  0  0  0  0  0
    3.6026  -11.3088   31.3800 C   0  0  0  0  0  0  0  0  0  0  0  0
    4.3716  -12.6063   31.2637 C   0  0  1  0  0  0  0  0  0  0  0  0
    4.7174  -13.0665   32.6816 C   0  0  0  0  0  0  0  0  0  0  0  0
    3.6199  -13.8601   33.4102 C   0  0  0  0  0  0  0  0  0  0  0  0
    2.4394  -13.0012   33.5442 N   0  0  0  0  0  0  0  0  0  0  0  0
    3.5679  -13.6185   30.7162 O   0  0  0  0  0  0  0  0  0  0  0  0
    7.0263   -8.3358   29.8291 C   0  0  0  0  0  0  0  0  0  0  0  0
    6.5759   -8.5969   31.2582 C   0  0  0  0  0  0  0  0  0  0  0  0
    0.6612   -4.2824   25.5912 C   0  0  1  0  0  0  0  0  0  0  0  0
    7.5931   -8.2432   32.2725 N   0  0  0  0  0  0  0  0  0  0  0  0
    0.0703   -3.0029   25.7099 O   0  0  0  0  0  0  0  0  0  0  0  0
    1.8172   -8.4050   28.2217 C   0  0  2  0  0  0  0  0  0  0  0  0
    0.5258   -8.5849   27.5660 N   0  0  0  0  0  0  0  0  0  0  0  0
    7.0787   -6.4337   33.9134 C   0  0  0  0  0  0  0  0  0  0  0  0
    5.5251   -6.4150   33.7464 N   0  0  0  0  0  0  0  0  0  0  0  0
    7.8439   -6.8136   32.6112 C   0  0  0  0  0  0  0  0  0  0  0  0
    2.9485  -10.8119   32.0614 O   0  0  0  0  0  0  0  0  0  0  0  0
    0.5343   -4.8074   24.1573 C   0  0  2  0  0  0  0  0  0  0  0  0
   -0.8248   -4.8648   23.7558 O   0  0  0  0  0  0  0  0  0  0  0  0
    2.7726   -7.7483   27.2568 C   0  0  2  0  0  0  0  0  0  0  0  0
    1.1904   -6.2140   24.0475 C   0  0  2  0  0  0  0  0  0  0  0  0
    2.5755   -6.1743   24.4495 O   0  0  0  0  0  0  0  0  0  0  0  0
    4.1941   -7.5545   27.9400 C   0  0  2  0  0  0  0  0  0  0  0  0
    5.0880   -6.9128   26.9818 O   0  0  0  0  0  0  0  0  0  0  0  0
    1.1186   -6.7529   22.6686 C   0  0  0  0  0  0  0  0  0  0  0  0
    0.2563   -6.0107   21.9397 N   0  0  0  0  0  0  0  0  0  0  0  0
    4.7536   -8.9602   28.3526 C   0  0  1  0  0  0  0  0  0  0  0  0
    6.0133   -8.8269   28.9298 O   0  0  0  0  0  0  0  0  0  0  0  0
  1  2  1  1  0  0  0
  1  5  1  0  0  0  0
  1 29  1  0  0  0  0
  3  4  1  6  0  0  0
  3  7  1  0  0  0  0
  3 34  1  0  0  0  0
  5  6  1  1  0  0  0
  5 16  1  0  0  0  0
  7 19  1  0  0  0  0
  8  4  1  0  0  0  0
  8 24  2  0  0  0  0
  9  8  1  1  0  0  0
  9 10  1  0  0  0  0
  9 13  1  0  0  0  0
 10 11  1  0  0  0  0
 11 12  1  0  0  0  0
 14 15  1  0  0  0  0
 14 35  1  0  0  0  0
 15 17  1  0  0  0  0
 16 18  1  6  0  0  0
 16 25  1  0  0  0  0
 19 20  1  6  0  0  0
 19 27  1  0  0  0  0
 21 22  1  0  0  0  0
 21 23  1  0  0  0  0
 23 17  1  0  0  0  0
 25 26  1  1  0  0  0
 25 28  1  0  0  0  0
 27  2  1  1  0  0  0
 27 30  1  0  0  0  0
 28 29  1  0  0  0  0
 28 32  1  6  0  0  0
 30 31  1  6  0  0  0
 30 34  1  0  0  0  0
 32 33  2  0  0  0  0
 34 35  1  1  0  0  0
M  END
>  <CHROM.1>
-163.14018579,-83.86902448,151.05565050,84.17708809,-61.34655428,174.83691949
57.24965342,75.32034661,-68.36106185,98.68260803,-174.35107222,-12.99780698
-66.43914992,3.36024402,-8.06475370,28.56988662,-2.15057681,0.78932182,2.63622928

>  <Name>
2f4t_lig

>  <RI>
0

>  <Rbt.Current_Directory>
/home/itssahil/PROJECTS/Mol_Feturizer/New_Systems/rnas/2f4t

>  <Rbt.Executable>
rbdock ($Id: //depot/dev/client3/rdock/2013.1/src/exe/rbdock.cxx#4 $)

>  <Rbt.Library>
libRbt.so (2013.1, Build901 2013/11/27)

>  <Rbt.Parameter_File>
/export/apps/rDock/src/rDock_2013.1_src/data/scripts/dock_solv.prm

>  <Rbt.Receptor>
prm/pocket_docking_2.prm

>  <SCORE>
-15.7839

>  <SCORE.INTER>
-13.98

>  <SCORE.INTER.CONST>
1

>  <SCORE.INTER.POLAR>
-0.938083

>  <SCORE.INTER.ROT>
13

>  <SCORE.INTER.SOLV>
17.7508

>  <SCORE.INTER.VDW>
-24.3767

>  <SCORE.INTER.norm>
-0.399429

>  <SCORE.INTRA>
-1.80549

>  <SCORE.INTRA.DIHEDRAL>
-16.0273

>  <SCORE.INTRA.DIHEDRAL.0>
23.8882

>  <SCORE.INTRA.POLAR>
0

>  <SCORE.INTRA.POLAR.0>
0

>  <SCORE.INTRA.REPUL>
0

>  <SCORE.INTRA.REPUL.0>
0

>  <SCORE.INTRA.SOLV>
4.99347

>  <SCORE.INTRA.SOLV.lig_0>
-97.6888

>  <SCORE.INTRA.VDW>
3.71145

>  <SCORE.INTRA.VDW.0>
-3.9206

>  <SCORE.INTRA.norm>
-0.0515853

>  <SCORE.RESTR>
0.00157843

>  <SCORE.RESTR.CAVITY>
0.00157843

>  <SCORE.RESTR.norm>
4.50981e-05

>  <SCORE.SYSTEM>
0

>  <SCORE.SYSTEM.CONST>
0

>  <SCORE.SYSTEM.DIHEDRAL>
0

>  <SCORE.SYSTEM.SOLV>
0

>  <SCORE.SYSTEM.norm>
0

>  <SCORE.heavy>
35

>  <SCORE.norm>
-0.450969

>  <RMSD>
1.253

$$$$
2f4t_lig
 OpenBabel11021811433D
libRbt.so/2013.1/901 2013/11/27
 35 36  0  0  0  0  0  0  0  0999 V2000
    3.0648   -5.8900   26.1056 C   0  0  2  0  0  0  0  0  0  0  0  0
    2.2600   -6.4458   27.1968 O   0  0  0  0  0  0  0  0  0  0  0  0
    3.0950   -9.0298   30.5559 C   0  0  2  0  0  0  0  0  0  0  0  0
    3.4629  -10.2337   31.3160 N   0  0  0  0  0  0  0  0  0  0  0  0
    2.7059   -4.3746   26.0412 C   0  0  2  0  0  0  0  0  0  0  0  0
    2.9423   -3.7402   27.3169 N   0  0  0  0  0  0  0  0  0  0  0  0
    1.9647   -9.3925   29.5242 C   0  0  0  0  0  0  0  0  0  0  0  0
    3.7749  -11.5654   30.1987 C   0  0  0  0  0  0  0  0  0  0  0  0
    4.0719  -12.3891   31.4322 C   0  0  1  0  0  0  0  0  0  0  0  0
    2.8106  -13.1876   31.7687 C   0  0  0  0  0  0  0  0  0  0  0  0
    2.8751  -14.0215   33.0593 C   0  0  0  0  0  0  0  0  0  0  0  0
    1.7597  -14.9728   33.0518 N   0  0  0  0  0  0  0  0  0  0  0  0
    5.0710  -13.3400   31.1720 O   0  0  0  0  0  0  0  0  0  0  0  0
    6.6056   -7.7050   31.1444 C   0  0  0  0  0  0  0  0  0  0  0  0
    6.6445   -6.1896   31.0201 C   0  0  0  0  0  0  0  0  0  0  0  0
    1.2135   -4.1933   25.6029 C   0  0  1  0  0  0  0  0  0  0  0  0
    7.8723   -5.5819   31.5786 N   0  0  0  0  0  0  0  0  0  0  0  0
    0.8685   -2.8235   25.5336 O   0  0  0  0  0  0  0  0  0  0  0  0
    1.5412   -8.1768   28.6881 C   0  0  2  0  0  0  0  0  0  0  0  0
    0.5217   -8.5472   27.7116 N   0  0  0  0  0  0  0  0  0  0  0  0
    7.1895   -3.9022   33.2944 C   0  0  0  0  0  0  0  0  0  0  0  0
    7.1245   -2.4008   33.7228 N   0  0  0  0  0  0  0  0  0  0  0  0
    7.8964   -4.1327   31.9260 C   0  0  0  0  0  0  0  0  0  0  0  0
    3.7483  -11.6747   29.1373 O   0  0  0  0  0  0  0  0  0  0  0  0
    1.0338   -4.8674   24.2387 C   0  0  2  0  0  0  0  0  0  0  0  0
   -0.2996   -4.7288   23.7753 O   0  0  0  0  0  0  0  0  0  0  0  0
    2.7298   -7.5963   27.9634 C   0  0  2  0  0  0  0  0  0  0  0  0
    1.4188   -6.3719   24.3357 C   0  0  2  0  0  0  0  0  0  0  0  0
    2.7743   -6.5324   24.8031 O   0  0  0  0  0  0  0  0  0  0  0  0
    3.8641   -7.1982   29.0026 C   0  0  2  0  0  0  0  0  0  0  0  0
    4.9927   -6.6362   28.2681 O   0  0  0  0  0  0  0  0  0  0  0  0
    1.2890   -7.0625   23.0307 C   0  0  0  0  0  0  0  0  0  0  0  0
    0.4153   -8.0864   23.1483 N   0  0  0  0  0  0  0  0  0  0  0  0
    4.3069   -8.4828   29.7856 C   0  0  1  0  0  0  0  0  0  0  0  0
    5.3218   -8.1720   30.6863 O   0  0  0  0  0  0  0  0  0  0  0  0
  1  2  1  1  0  0  0
  1  5  1  0  0  0  0
  1 29  1  0  0  0  0
  3  4  1  6  0  0  0
  3  7  1  0  0  0  0
  3 34  1  0  0  0  0
  5  6  1  1  0  0  0
  5 16  1  0  0  0  0
  7 19  1  0  0  0  0
  8  4  1  0  0  0  0
  8 24  2  0  0  0  0
  9  8  1  6  0  0  0
  9 10  1  0  0  0  0
  9 13  1  0  0  0  0
 10 11  1  0  0  0  0
 11 12  1  0  0  0  0
 14 15  1  0  0  0  0
 14 35  1  0  0  0  0
 15 17  1  0  0  0  0
 16 18  1  6  0  0  0
 16 25  1  0  0  0  0
 19 20  1  6  0  0  0
 19 27  1  0  0  0  0
 21 22  1  0  0  0  0
 21 23  1  0  0  0  0
 23 17  1  0  0  0  0
 25 26  1  1  0  0  0
 25 28  1  0  0  0  0
 27  2  1  1  0  0  0
 27 30  1  0  0  0  0
 28 29  1  0  0  0  0
 28 32  1  6  0  0  0
 30 31  1  6  0  0  0
 30 34  1  0  0  0  0
 32 33  2  0  0  0  0
 34 35  1  1  0  0  0
M  END
>  <CHROM.1>
-150.93227227,49.95676089,97.85977138,-175.86336533,-165.45816746,174.69195588
72.15123489,-160.95160537,-178.15287118,79.00785305,-162.79102386,-121.24391919
-179.10418144,3.40805615,-7.69720137,28.76858007,-2.05319720,0.87168344,2.66628054

>  <Name>
2f4t_lig

>  <RI>
0

>  <Rbt.Current_Directory>
/home/itssahil/PROJECTS/Mol_Feturizer/New_Systems/rnas/2f4t

>  <Rbt.Executable>
rbdock ($Id: //depot/dev/client3/rdock/2013.1/src/exe/rbdock.cxx#4 $)

>  <Rbt.Library>
libRbt.so (2013.1, Build901 2013/11/27)

>  <Rbt.Parameter_File>
/export/apps/rDock/src/rDock_2013.1_src/data/scripts/dock_solv.prm

>  <Rbt.Receptor>
prm/pocket_docking_2.prm

>  <SCORE>
-13.6563

>  <SCORE.INTER>
-8.57444

>  <SCORE.INTER.CONST>
1

>  <SCORE.INTER.POLAR>
-1.82692

>  <SCORE.INTER.ROT>
13

>  <SCORE.INTER.SOLV>
11.8019

>  <SCORE.INTER.VDW>
-15.8272

>  <SCORE.INTER.norm>
-0.244984

>  <SCORE.INTRA>
-6.57878

>  <SCORE.INTRA.DIHEDRAL>
-14.0594

>  <SCORE.INTRA.DIHEDRAL.0>
23.8882

>  <SCORE.INTRA.POLAR>
0

>  <SCORE.INTRA.POLAR.0>
0

>  <SCORE.INTRA.REPUL>
0

>  <SCORE.INTRA.REPUL.0>
0

>  <SCORE.INTRA.SOLV>
-0.146836

>  <SCORE.INTRA.SOLV.lig_0>
-97.6888

>  <SCORE.INTRA.VDW>
0.524325

>  <SCORE.INTRA.VDW.0>
-3.9206

>  <SCORE.INTRA.norm>
-0.187965

>  <SCORE.RESTR>
1.49693

>  <SCORE.RESTR.CAVITY>
1.49693

>  <SCORE.RESTR.norm>
0.0427695

>  <SCORE.SYSTEM>
0

>  <SCORE.SYSTEM.CONST>
0

>  <SCORE.SYSTEM.DIHEDRAL>
0

>  <SCORE.SYSTEM.SOLV>
0

>  <SCORE.SYSTEM.norm>
0

>  <SCORE.heavy>
35

>  <SCORE.norm>
-0.39018

>  <RMSD>
1.260

$$$$
2f4t_lig
 OpenBabel11021811433D
libRbt.so/2013.1/901 2013/11/27
 35 36  0  0  0  0  0  0  0  0999 V2000
    2.9203   -6.4929   25.9077 C   0  0  2  0  0  0  0  0  0  0  0  0
    2.1494   -6.9371   27.0721 O   0  0  0  0  0  0  0  0  0  0  0  0
    3.2111   -9.2954   30.5316 C   0  0  2  0  0  0  0  0  0  0  0  0
    3.5530  -10.4643   31.3560 N   0  0  0  0  0  0  0  0  0  0  0  0
    2.8124   -4.9380   25.8938 C   0  0  2  0  0  0  0  0  0  0  0  0
    3.2784   -4.3836   27.1432 N   0  0  0  0  0  0  0  0  0  0  0  0
    1.8919   -9.5943   29.7292 C   0  0  0  0  0  0  0  0  0  0  0  0
    3.7325  -11.8845   30.3218 C   0  0  0  0  0  0  0  0  0  0  0  0
    4.0495  -12.6383   31.5943 C   0  0  1  0  0  0  0  0  0  0  0  0
    3.7440  -14.1167   31.3434 C   0  0  0  0  0  0  0  0  0  0  0  0
    3.5178  -14.9726   32.6009 C   0  0  0  0  0  0  0  0  0  0  0  0
    4.8083  -15.1618   33.2701 N   0  0  0  0  0  0  0  0  0  0  0  0
    5.4206  -12.5735   31.8876 O   0  0  0  0  0  0  0  0  0  0  0  0
    6.5690   -8.9416   31.1893 C   0  0  0  0  0  0  0  0  0  0  0  0
    7.7609   -8.0835   30.7936 C   0  0  0  0  0  0  0  0  0  0  0  0
    1.3339   -4.5039   25.6148 C   0  0  1  0  0  0  0  0  0  0  0  0
    7.7380   -6.7294   31.3890 N   0  0  0  0  0  0  0  0  0  0  0  0
    1.2150   -3.0947   25.5933 O   0  0  0  0  0  0  0  0  0  0  0  0
    1.4845   -8.4132   28.8373 C   0  0  2  0  0  0  0  0  0  0  0  0
    0.2819   -8.7295   28.0732 N   0  0  0  0  0  0  0  0  0  0  0  0
    6.3001   -5.0378   32.5302 C   0  0  0  0  0  0  0  0  0  0  0  0
    5.4060   -4.6749   33.7594 N   0  0  0  0  0  0  0  0  0  0  0  0
    6.9220   -6.4635   32.6075 C   0  0  0  0  0  0  0  0  0  0  0  0
    3.6436  -12.0640   29.2734 O   0  0  0  0  0  0  0  0  0  0  0  0
    0.9079   -5.1045   24.2711 C   0  0  2  0  0  0  0  0  0  0  0  0
   -0.4242   -4.7378   23.9502 O   0  0  0  0  0  0  0  0  0  0  0  0
    2.5986   -8.0663   27.8815 C   0  0  2  0  0  0  0  0  0  0  0  0
    1.0466   -6.6537   24.3149 C   0  0  2  0  0  0  0  0  0  0  0  0
    2.3972   -7.0457   24.6372 O   0  0  0  0  0  0  0  0  0  0  0  0
    3.9271   -7.7325   28.6868 C   0  0  2  0  0  0  0  0  0  0  0  0
    4.9786   -7.3967   27.7325 O   0  0  0  0  0  0  0  0  0  0  0  0
    0.6728   -7.2802   23.0247 C   0  0  0  0  0  0  0  0  0  0  0  0
    1.0759   -6.4887   22.0065 N   0  0  0  0  0  0  0  0  0  0  0  0
    4.3365   -8.9889   29.5313 C   0  0  1  0  0  0  0  0  0  0  0  0
    5.5151   -8.7377   30.2282 O   0  0  0  0  0  0  0  0  0  0  0  0
  1  2  1  1  0  0  0
  1  5  1  0  0  0  0
  1 29  1  0  0  0  0
  3  4  1  6  0  0  0
  3  7  1  0  0  0  0
  3 34  1  0  0  0  0
  5  6  1  1  0  0  0
  5 16  1  0  0  0  0
  7 19  1  0  0  0  0
  8  4  1  0  0  0  0
  8 24  2  0  0  0  0
  9  8  1  6  0  0  0
  9 10  1  0  0  0  0
  9 13  1  0  0  0  0
 10 11  1  0  0  0  0
 11 12  1  0  0  0  0
 14 15  1  0  0  0  0
 14 35  1  0  0  0  0
 15 17  1  0  0  0  0
 16 18  1  6  0  0  0
 16 25  1  0  0  0  0
 19 20  1  6  0  0  0
 19 27  1  0  0  0  0
 21 22  1  0  0  0  0
 21 23  1  0  0  0  0
 23 17  1  0  0  0  0
 25 26  1  1  0  0  0
 25 28  1  0  0  0  0
 27  2  1  1  0  0  0
 27 30  1  0  0  0  0
 28 29  1  0  0  0  0
 28 32  1  6  0  0  0
 30 31  1  6  0  0  0
 30 34  1  0  0  0  0
 32 33  2  0  0  0  0
 34 35  1  1  0  0  0
M  END
>  <CHROM.1>
-142.78739811,57.59508107,156.76965496,-159.28073670,-72.12223472,89.98692083
163.01565527,20.91935114,179.13168690,-143.40229328,-170.42273658,36.56518142
48.60670963,3.46343603,-8.23034117,28.69584443,2.18228696,-0.88629255,-0.37775775

>  <Name>
2f4t_lig

>  <RI>
0

>  <Rbt.Current_Directory>
/home/itssahil/PROJECTS/Mol_Feturizer/New_Systems/rnas/2f4t

>  <Rbt.Executable>
rbdock ($Id: //depot/dev/client3/rdock/2013.1/src/exe/rbdock.cxx#4 $)

>  <Rbt.Library>
libRbt.so (2013.1, Build901 2013/11/27)

>  <Rbt.Parameter_File>
/export/apps/rDock/src/rDock_2013.1_src/data/scripts/dock_solv.prm

>  <Rbt.Receptor>
prm/pocket_docking_2.prm

>  <SCORE>
-5.83732

>  <SCORE.INTER>
-6.66403

>  <SCORE.INTER.CONST>
1

>  <SCORE.INTER.POLAR>
-0.799069

>  <SCORE.INTER.ROT>
13

>  <SCORE.INTER.SOLV>
14.5998

>  <SCORE.INTER.VDW>
-18.9124

>  <SCORE.INTER.norm>
-0.190401

>  <SCORE.INTRA>
-0.335233

>  <SCORE.INTRA.DIHEDRAL>
-7.42025

>  <SCORE.INTRA.DIHEDRAL.0>
23.8882

>  <SCORE.INTRA.POLAR>
0

>  <SCORE.INTRA.POLAR.0>
0

>  <SCORE.INTRA.REPUL>
0

>  <SCORE.INTRA.REPUL.0>
0

>  <SCORE.INTRA.SOLV>
2.152

>  <SCORE.INTRA.SOLV.lig_0>
-97.6888

>  <SCORE.INTRA.VDW>
2.29889

>  <SCORE.INTRA.VDW.0>
-3.9206

>  <SCORE.INTRA.norm>
-0.00957807

>  <SCORE.RESTR>
1.16194

>  <SCORE.RESTR.CAVITY>
1.16194

>  <SCORE.RESTR.norm>
0.0331984

>  <SCORE.SYSTEM>
0

>  <SCORE.SYSTEM.CONST>
0

>  <SCORE.SYSTEM.DIHEDRAL>
0

>  <SCORE.SYSTEM.SOLV>
0

>  <SCORE.SYSTEM.norm>
0

>  <SCORE.heavy>
35

>  <SCORE.norm>
-0.166781

>  <RMSD>
1.286

$$$$
2f4t_lig
 OpenBabel11021811433D
libRbt.so/2013.1/901 2013/11/27
 35 36  0  0  0  0  0  0  0  0999 V2000
    2.9581   -5.6010   25.7720 C   0  0  2  0  0  0  0  0  0  0  0  0
    2.3785   -6.3270   26.9052 O   0  0  0  0  0  0  0  0  0  0  0  0
    4.3691   -8.9505   29.7002 C   0  0  2  0  0  0  0  0  0  0  0  0
    4.9270  -10.1782   30.2870 N   0  0  0  0  0  0  0  0  0  0  0  0
    2.3419   -4.1701   25.8232 C   0  0  2  0  0  0  0  0  0  0  0  0
    2.5993   -3.5498   27.1016 N   0  0  0  0  0  0  0  0  0  0  0  0
    2.8759   -9.2087   29.2791 C   0  0  0  0  0  0  0  0  0  0  0  0
    3.9188  -10.6970   31.6409 C   0  0  0  0  0  0  0  0  0  0  0  0
    4.8872  -11.8505   31.7808 C   0  0  1  0  0  0  0  0  0  0  0  0
    4.3120  -12.8123   32.8229 C   0  0  0  0  0  0  0  0  0  0  0  0
    5.2297  -13.9765   33.2325 C   0  0  0  0  0  0  0  0  0  0  0  0
    4.4429  -14.9313   34.0189 N   0  0  0  0  0  0  0  0  0  0  0  0
    4.9710  -12.5830   30.5864 O   0  0  0  0  0  0  0  0  0  0  0  0
    7.6139   -7.7385   29.5094 C   0  0  0  0  0  0  0  0  0  0  0  0
    7.6008   -6.2337   29.2878 C   0  0  0  0  0  0  0  0  0  0  0  0
    0.8028   -4.2369   25.5420 C   0  0  1  0  0  0  0  0  0  0  0  0
    6.4593   -5.5507   29.9352 N   0  0  0  0  0  0  0  0  0  0  0  0
    0.2245   -2.9467   25.5792 O   0  0  0  0  0  0  0  0  0  0  0  0
    2.2361   -7.9645   28.6474 C   0  0  2  0  0  0  0  0  0  0  0  0
    0.8655   -8.2408   28.2285 N   0  0  0  0  0  0  0  0  0  0  0  0
    6.1354   -5.8613   32.3908 C   0  0  0  0  0  0  0  0  0  0  0  0
    7.0600   -7.1007   32.6168 N   0  0  0  0  0  0  0  0  0  0  0  0
    6.6337   -4.9051   31.2671 C   0  0  0  0  0  0  0  0  0  0  0  0
    3.0338  -10.3202   32.1035 O   0  0  0  0  0  0  0  0  0  0  0  0
    0.5984   -4.8834   24.1680 C   0  0  2  0  0  0  0  0  0  0  0  0
   -0.7802   -4.9634   23.8442 O   0  0  0  0  0  0  0  0  0  0  0  0
    3.0351   -7.5114   27.4511 C   0  0  2  0  0  0  0  0  0  0  0  0
    1.2418   -6.2999   24.1474 C   0  0  2  0  0  0  0  0  0  0  0  0
    2.6462   -6.2377   24.4717 O   0  0  0  0  0  0  0  0  0  0  0  0
    4.5382   -7.2185   27.8754 C   0  0  2  0  0  0  0  0  0  0  0  0
    5.2776   -6.7779   26.6971 O   0  0  0  0  0  0  0  0  0  0  0  0
    1.0953   -6.9560   22.8263 C   0  0  0  0  0  0  0  0  0  0  0  0
    0.0579   -7.8209   22.8660 N   0  0  0  0  0  0  0  0  0  0  0  0
    5.1663   -8.5335   28.4545 C   0  0  1  0  0  0  0  0  0  0  0  0
    6.4946   -8.3168   28.8102 O   0  0  0  0  0  0  0  0  0  0  0  0
  1  2  1  1  0  0  0
  1  5  1  0  0  0  0
  1 29  1  0  0  0  0
  3  4  1  6  0  0  0
  3  7  1  0  0  0  0
  3 34  1  0  0  0  0
  5  6  1  1  0  0  0
  5 16  1  0  0  0  0
  7 19  1  0  0  0  0
  8  4  1  0  0  0  0
  8 24  2  0  0  0  0
  9  8  1  6  0  0  0
  9 10  1  0  0  0  0
  9 13  1  0  0  0  0
 10 11  1  0  0  0  0
 11 12  1  0  0  0  0
 14 15  1  0  0  0  0
 14 35  1  0  0  0  0
 15 17  1  0  0  0  0
 16 18  1  6  0  0  0
 16 25  1  0  0  0  0
 19 20  1  6  0  0  0
 19 27  1  0  0  0  0
 21 22  1  0  0  0  0
 21 23  1  0  0  0  0
 23 17  1  0  0  0  0
 25 26  1  1  0  0  0
 25 28  1  0  0  0  0
 27  2  1  1  0  0  0
 27 30  1  0  0  0  0
 28 29  1  0  0  0  0
 28 32  1  6  0  0  0
 30 31  1  6  0  0  0
 30 34  1  0  0  0  0
 32 33  2  0  0  0  0
 34 35  1  1  0  0  0
M  END
>  <CHROM.1>
-158.83899306,-56.15969229,-172.34379395,-173.15983776,-169.02812109,67.70699291
-57.88928071,97.03930687,70.84849899,-97.63900898,176.63109183,-99.23904802
-57.82211645,3.66476587,-7.74755558,28.43928598,-2.11994745,0.71688514,2.63718403

>  <Name>
2f4t_lig

>  <RI>
0

>  <Rbt.Current_Directory>
/home/itssahil/PROJECTS/Mol_Feturizer/New_Systems/rnas/2f4t

>  <Rbt.Executable>
rbdock ($Id: //depot/dev/client3/rdock/2013.1/src/exe/rbdock.cxx#4 $)

>  <Rbt.Library>
libRbt.so (2013.1, Build901 2013/11/27)

>  <Rbt.Parameter_File>
/export/apps/rDock/src/rDock_2013.1_src/data/scripts/dock_solv.prm

>  <Rbt.Receptor>
prm/pocket_docking_4.prm

>  <SCORE>
-20.3782

>  <SCORE.INTER>
-14.6099

>  <SCORE.INTER.CONST>
1

>  <SCORE.INTER.POLAR>
-1.62774

>  <SCORE.INTER.ROT>
13

>  <SCORE.INTER.SOLV>
14.1874

>  <SCORE.INTER.VDW>
-21.3099

>  <SCORE.INTER.norm>
-0.417427

>  <SCORE.INTRA>
-5.76824

>  <SCORE.INTRA.DIHEDRAL>
-16.9713

>  <SCORE.INTRA.DIHEDRAL.0>
23.8882

>  <SCORE.INTRA.POLAR>
0

>  <SCORE.INTRA.POLAR.0>
0

>  <SCORE.INTRA.REPUL>
0

>  <SCORE.INTRA.REPUL.0>
0

>  <SCORE.INTRA.SOLV>
3.74193

>  <SCORE.INTRA.SOLV.lig_0>
-97.6888

>  <SCORE.INTRA.VDW>
0.846431

>  <SCORE.INTRA.VDW.0>
-3.9206

>  <SCORE.INTRA.norm>
-0.164807

>  <SCORE.RESTR>
0

>  <SCORE.RESTR.CAVITY>
0

>  <SCORE.RESTR.norm>
0

>  <SCORE.SYSTEM>
0

>  <SCORE.SYSTEM.CONST>
0

>  <SCORE.SYSTEM.DIHEDRAL>
0

>  <SCORE.SYSTEM.SOLV>
0

>  <SCORE.SYSTEM.norm>
0

>  <SCORE.heavy>
35

>  <SCORE.norm>
-0.582234

>  <RMSD>
1.371

$$$$
2f4t_lig
 OpenBabel11021811433D
libRbt.so/2013.1/901 2013/11/27
 35 36  0  0  0  0  0  0  0  0999 V2000
    3.2401   -5.8441   25.8715 C   0  0  2  0  0  0  0  0  0  0  0  0
    2.5845   -6.6984   26.8653 O   0  0  0  0  0  0  0  0  0  0  0  0
    4.4169   -9.2919   29.7934 C   0  0  2  0  0  0  0  0  0  0  0  0
    5.0141  -10.4940   30.3943 N   0  0  0  0  0  0  0  0  0  0  0  0
    3.3621   -4.4380   26.5330 C   0  0  2  0  0  0  0  0  0  0  0  0
    4.0767   -4.5240   27.7849 N   0  0  0  0  0  0  0  0  0  0  0  0
    3.0404   -9.6707   29.1335 C   0  0  0  0  0  0  0  0  0  0  0  0
    3.9910  -11.0642   31.7161 C   0  0  0  0  0  0  0  0  0  0  0  0
    5.0081  -12.1714   31.8829 C   0  0  1  0  0  0  0  0  0  0  0  0
    4.5809  -13.0130   33.0875 C   0  0  0  0  0  0  0  0  0  0  0  0
    3.3708  -13.9346   32.8602 C   0  0  0  0  0  0  0  0  0  0  0  0
    2.1579  -13.1113   32.8484 N   0  0  0  0  0  0  0  0  0  0  0  0
    4.9892  -13.0403   30.7807 O   0  0  0  0  0  0  0  0  0  0  0  0
    7.9161   -7.8841   29.3481 C   0  0  0  0  0  0  0  0  0  0  0  0
    8.3434   -7.8421   30.8073 C   0  0  0  0  0  0  0  0  0  0  0  0
    1.9394   -3.8208   26.7508 C   0  0  1  0  0  0  0  0  0  0  0  0
    7.6748   -6.7786   31.5887 N   0  0  0  0  0  0  0  0  0  0  0  0
    2.0280   -2.5411   27.3465 O   0  0  0  0  0  0  0  0  0  0  0  0
    2.3676   -8.4575   28.4764 C   0  0  2  0  0  0  0  0  0  0  0  0
    1.1133   -8.8419   27.8367 N   0  0  0  0  0  0  0  0  0  0  0  0
    7.0327   -5.5270   33.6509 C   0  0  0  0  0  0  0  0  0  0  0  0
    7.3773   -4.1363   33.0270 N   0  0  0  0  0  0  0  0  0  0  0  0
    7.8706   -6.7013   33.0642 C   0  0  0  0  0  0  0  0  0  0  0  0
    3.0758  -10.7310   32.1524 O   0  0  0  0  0  0  0  0  0  0  0  0
    1.2438   -3.7377   25.3882 C   0  0  2  0  0  0  0  0  0  0  0  0
   -0.0514   -3.1730   25.5126 O   0  0  0  0  0  0  0  0  0  0  0  0
    3.2800   -7.8447   27.4435 C   0  0  2  0  0  0  0  0  0  0  0  0
    1.1571   -5.1540   24.7497 C   0  0  2  0  0  0  0  0  0  0  0  0
    2.4668   -5.7433   24.6124 O   0  0  0  0  0  0  0  0  0  0  0  0
    4.6618   -7.4307   28.1098 C   0  0  2  0  0  0  0  0  0  0  0  0
    5.5143   -6.8376   27.0848 O   0  0  0  0  0  0  0  0  0  0  0  0
    0.5163   -5.1213   23.4136 C   0  0  0  0  0  0  0  0  0  0  0  0
   -0.3658   -6.1398   23.3124 N   0  0  0  0  0  0  0  0  0  0  0  0
    5.3388   -8.7118   28.7096 C   0  0  1  0  0  0  0  0  0  0  0  0
    6.5675   -8.3864   29.2772 O   0  0  0  0  0  0  0  0  0  0  0  0
  1  2  1  1  0  0  0
  1  5  1  0  0  0  0
  1 29  1  0  0  0  0
  3  4  1  6  0  0  0
  3  7  1  0  0  0  0
  3 34  1  0  0  0  0
  5  6  1  1  0  0  0
  5 16  1  0  0  0  0
  7 19  1  0  0  0  0
  8  4  1  0  0  0  0
  8 24  2  0  0  0  0
  9  8  1  6  0  0  0
  9 10  1  0  0  0  0
  9 13  1  0  0  0  0
 10 11  1  0  0  0  0
 11 12  1  0  0  0  0
 14 15  1  0  0  0  0
 14 35  1  0  0  0  0
 15 17  1  0  0  0  0
 16 18  1  6  0  0  0
 16 25  1  0  0  0  0
 19 20  1  6  0  0  0
 19 27  1  0  0  0  0
 21 22  1  0  0  0  0
 21 23  1  0  0  0  0
 23 17  1  0  0  0  0
 25 26  1  1  0  0  0
 25 28  1  0  0  0  0
 27  2  1  1  0  0  0
 27 30  1  0  0  0  0
 28 29  1  0  0  0  0
 28 32  1  6  0  0  0
 30 31  1  6  0  0  0
 30 34  1  0  0  0  0
 32 33  2  0  0  0  0
 34 35  1  1  0  0  0
M  END
>  <CHROM.1>
-116.06717240,-64.63104998,177.00023637,73.97528426,-75.03902712,-71.60059008
170.56369419,173.23789451,-57.90048502,-178.38922398,176.84666330,-135.96654608
-177.80993971,3.91595043,-7.67076762,28.89011479,2.08419803,-0.70164064,-0.48014981

>  <Name>
2f4t_lig

>  <RI>
0

>  <Rbt.Current_Directory>
/home/itssahil/PROJECTS/Mol_Feturizer/New_Systems/rnas/2f4t

>  <Rbt.Executable>
rbdock ($Id: //depot/dev/client3/rdock/2013.1/src/exe/rbdock.cxx#4 $)

>  <Rbt.Library>
libRbt.so (2013.1, Build901 2013/11/27)

>  <Rbt.Parameter_File>
/export/apps/rDock/src/rDock_2013.1_src/data/scripts/dock_solv.prm

>  <Rbt.Receptor>
prm/pocket_docking_3.prm

>  <SCORE>
-17.9916

>  <SCORE.INTER>
-16.2356

>  <SCORE.INTER.CONST>
1

>  <SCORE.INTER.POLAR>
-1.55927

>  <SCORE.INTER.ROT>
13

>  <SCORE.INTER.SOLV>
12.8752

>  <SCORE.INTER.VDW>
-22.1846

>  <SCORE.INTER.norm>
-0.463874

>  <SCORE.INTRA>
-1.75597

>  <SCORE.INTRA.DIHEDRAL>
-12.3958

>  <SCORE.INTRA.DIHEDRAL.0>
23.8882

>  <SCORE.INTRA.POLAR>
0

>  <SCORE.INTRA.POLAR.0>
0

>  <SCORE.INTRA.REPUL>
0

>  <SCORE.INTRA.REPUL.0>
0

>  <SCORE.INTRA.SOLV>
5.99334

>  <SCORE.INTRA.SOLV.lig_0>
-97.6888

>  <SCORE.INTRA.VDW>
1.44528

>  <SCORE.INTRA.VDW.0>
-3.9206

>  <SCORE.INTRA.norm>
-0.0501705

>  <SCORE.RESTR>
0

>  <SCORE.RESTR.CAVITY>
0

>  <SCORE.RESTR.norm>
0

>  <SCORE.SYSTEM>
0

>  <SCORE.SYSTEM.CONST>
0

>  <SCORE.SYSTEM.DIHEDRAL>
0

>  <SCORE.SYSTEM.SOLV>
0

>  <SCORE.SYSTEM.norm>
0

>  <SCORE.heavy>
35

>  <SCORE.norm>
-0.514045

>  <RMSD>
1.401

$$$$
2f4t_lig
 OpenBabel11021811433D
libRbt.so/2013.1/901 2013/11/27
 35 36  0  0  0  0  0  0  0  0999 V2000
    2.8099   -5.3125   26.0012 C   0  0  2  0  0  0  0  0  0  0  0  0
    2.2095   -6.2160   26.9863 O   0  0  0  0  0  0  0  0  0  0  0  0
    3.2039   -9.9240   28.9661 C   0  0  2  0  0  0  0  0  0  0  0  0
    3.6569  -11.3096   29.1596 N   0  0  0  0  0  0  0  0  0  0  0  0
    2.2066   -3.9049   26.2915 C   0  0  2  0  0  0  0  0  0  0  0  0
    2.4540   -3.5168   27.6603 N   0  0  0  0  0  0  0  0  0  0  0  0
    2.1201   -9.8865   27.8270 C   0  0  0  0  0  0  0  0  0  0  0  0
    2.3273  -12.2824   29.7959 C   0  0  0  0  0  0  0  0  0  0  0  0
    3.3013  -13.4395   29.7654 C   0  0  1  0  0  0  0  0  0  0  0  0
    3.3658  -14.0257   31.1775 C   0  0  0  0  0  0  0  0  0  0  0  0
    4.3732  -15.1704   31.3777 C   0  0  0  0  0  0  0  0  0  0  0  0
    4.1912  -15.7165   32.7259 N   0  0  0  0  0  0  0  0  0  0  0  0
    2.8276  -14.4725   28.9416 O   0  0  0  0  0  0  0  0  0  0  0  0
    6.5748   -8.7229   30.2374 C   0  0  0  0  0  0  0  0  0  0  0  0
    6.4824   -7.2840   30.7217 C   0  0  0  0  0  0  0  0  0  0  0  0
    0.6705   -3.9047   25.9867 C   0  0  1  0  0  0  0  0  0  0  0  0
    7.5150   -6.9286   31.7197 N   0  0  0  0  0  0  0  0  0  0  0  0
    0.1039   -2.6337   26.2394 O   0  0  0  0  0  0  0  0  0  0  0  0
    1.6118   -8.4615   27.5672 C   0  0  2  0  0  0  0  0  0  0  0  0
    0.6383   -8.4471   26.4799 N   0  0  0  0  0  0  0  0  0  0  0  0
    7.8731   -6.3330   34.1173 C   0  0  0  0  0  0  0  0  0  0  0  0
    7.0783   -4.9933   33.9934 N   0  0  0  0  0  0  0  0  0  0  0  0
    7.4063   -7.4326   33.1181 C   0  0  0  0  0  0  0  0  0  0  0  0
    1.3132  -12.0826   30.0617 O   0  0  0  0  0  0  0  0  0  0  0  0
    0.4771   -4.3028   24.5198 C   0  0  2  0  0  0  0  0  0  0  0  0
   -0.8981   -4.3102   24.1725 O   0  0  0  0  0  0  0  0  0  0  0  0
    2.7597   -7.5494   27.2131 C   0  0  2  0  0  0  0  0  0  0  0  0
    1.1074   -5.7019   24.2624 C   0  0  2  0  0  0  0  0  0  0  0  0
    2.5082   -5.7124   24.6075 O   0  0  0  0  0  0  0  0  0  0  0  0
    3.8445   -7.5580   28.3742 C   0  0  2  0  0  0  0  0  0  0  0  0
    4.9341   -6.6624   28.0005 O   0  0  0  0  0  0  0  0  0  0  0  0
    0.9711   -6.1191   22.8466 C   0  0  0  0  0  0  0  0  0  0  0  0
    2.1955   -6.1977   22.2807 N   0  0  0  0  0  0  0  0  0  0  0  0
    4.3783   -9.0211   28.5577 C   0  0  1  0  0  0  0  0  0  0  0  0
    5.3529   -9.0573   29.5509 O   0  0  0  0  0  0  0  0  0  0  0  0
  1  2  1  1  0  0  0
  1  5  1  0  0  0  0
  1 29  1  0  0  0  0
  3  4  1  6  0  0  0
  3  7  1  0  0  0  0
  3 34  1  0  0  0  0
  5  6  1  1  0  0  0
  5 16  1  0  0  0  0
  7 19  1  0  0  0  0
  8  4  1  0  0  0  0
  8 24  2  0  0  0  0
  9  8  1  1  0  0  0
  9 10  1  0  0  0  0
  9 13  1  0  0  0  0
 10 11  1  0  0  0  0
 11 12  1  0  0  0  0
 14 15  1  0  0  0  0
 14 35  1  0  0  0  0
 15 17  1  0  0  0  0
 16 18  1  6  0  0  0
 16 25  1  0  0  0  0
 19 20  1  6  0  0  0
 19 27  1  0  0  0  0
 21 22  1  0  0  0  0
 21 23  1  0  0  0  0
 23 17  1  0  0  0  0
 25 26  1  1  0  0  0
 25 28  1  0  0  0  0
 27  2  1  1  0  0  0
 27 30  1  0  0  0  0
 28 29  1  0  0  0  0
 28 32  1  6  0  0  0
 30 31  1  6  0  0  0
 30 34  1  0  0  0  0
 32 33  2  0  0  0  0
 34 35  1  1  0  0  0
M  END
>  <CHROM.1>
-166.08086469,-66.47437986,124.08715291,-176.50141791,-173.26952049,165.61150289
67.28759332,-74.13628215,57.33928298,-141.95235224,-147.17461982,114.60658881
-175.83309238,3.25235984,-8.12394159,28.32453335,-2.12686451,0.85396394,2.85478025

>  <Name>
2f4t_lig

>  <RI>
0

>  <Rbt.Current_Directory>
/home/itssahil/PROJECTS/Mol_Feturizer/New_Systems/rnas/2f4t

>  <Rbt.Executable>
rbdock ($Id: //depot/dev/client3/rdock/2013.1/src/exe/rbdock.cxx#4 $)

>  <Rbt.Library>
libRbt.so (2013.1, Build901 2013/11/27)

>  <Rbt.Parameter_File>
/export/apps/rDock/src/rDock_2013.1_src/data/scripts/dock_solv.prm

>  <Rbt.Receptor>
prm/pocket_docking_3.prm

>  <SCORE>
-24.2789

>  <SCORE.INTER>
-19.2737

>  <SCORE.INTER.CONST>
1

>  <SCORE.INTER.POLAR>
-1.275

>  <SCORE.INTER.ROT>
13

>  <SCORE.INTER.SOLV>
18.4072

>  <SCORE.INTER.VDW>
-27.0015

>  <SCORE.INTER.norm>
-0.550676

>  <SCORE.INTRA>
-5.00526

>  <SCORE.INTRA.DIHEDRAL>
-13.2086

>  <SCORE.INTRA.DIHEDRAL.0>
23.8882

>  <SCORE.INTRA.POLAR>
0

>  <SCORE.INTRA.POLAR.0>
0

>  <SCORE.INTRA.REPUL>
0

>  <SCORE.INTRA.REPUL.0>
0

>  <SCORE.INTRA.SOLV>
1.17819

>  <SCORE.INTRA.SOLV.lig_0>
-97.6888

>  <SCORE.INTRA.VDW>
1.00997

>  <SCORE.INTRA.VDW.0>
-3.9206

>  <SCORE.INTRA.norm>
-0.143007

>  <SCORE.RESTR>
0

>  <SCORE.RESTR.CAVITY>
0

>  <SCORE.RESTR.norm>
0

>  <SCORE.SYSTEM>
0

>  <SCORE.SYSTEM.CONST>
0

>  <SCORE.SYSTEM.DIHEDRAL>
0

>  <SCORE.SYSTEM.SOLV>
0

>  <SCORE.SYSTEM.norm>
0

>  <SCORE.heavy>
35

>  <SCORE.norm>
-0.693683

>  <RMSD>
1.404

$$$$
2f4t_lig
 OpenBabel11021811433D
libRbt.so/2013.1/901 2013/11/27
 35 36  0  0  0  0  0  0  0  0999 V2000
    2.6806   -5.9541   25.5980 C   0  0  2  0  0  0  0  0  0  0  0  0
    2.1339   -6.5926   26.7983 O   0  0  0  0  0  0  0  0  0  0  0  0
    3.6415   -9.6178   29.4877 C   0  0  2  0  0  0  0  0  0  0  0  0
    4.0673  -10.9325   29.9904 N   0  0  0  0  0  0  0  0  0  0  0  0
    2.3939   -4.4304   25.7582 C   0  0  2  0  0  0  0  0  0  0  0  0
    2.9611   -3.9318   26.9892 N   0  0  0  0  0  0  0  0  0  0  0  0
    2.2033   -9.7418   28.8635 C   0  0  0  0  0  0  0  0  0  0  0  0
    3.7805  -11.0208   31.7307 C   0  0  0  0  0  0  0  0  0  0  0  0
    4.3390  -12.4239   31.6432 C   0  0  1  0  0  0  0  0  0  0  0  0
    4.5617  -12.9221   33.0729 C   0  0  0  0  0  0  0  0  0  0  0  0
    5.4226  -14.1891   33.2099 C   0  0  0  0  0  0  0  0  0  0  0  0
    4.7543  -15.2819   32.4971 N   0  0  0  0  0  0  0  0  0  0  0  0
    3.4043  -13.3013   31.0716 O   0  0  0  0  0  0  0  0  0  0  0  0
    7.1156   -9.4457   29.5559 C   0  0  0  0  0  0  0  0  0  0  0  0
    7.9979   -8.2287   29.7886 C   0  0  0  0  0  0  0  0  0  0  0  0
    0.8510   -4.1658   25.7145 C   0  0  1  0  0  0  0  0  0  0  0  0
    7.5057   -7.3384   30.8626 N   0  0  0  0  0  0  0  0  0  0  0  0
    0.5692   -2.7868   25.8536 O   0  0  0  0  0  0  0  0  0  0  0  0
    1.7026   -8.4010   28.3085 C   0  0  2  0  0  0  0  0  0  0  0  0
    0.3849   -8.5502   27.6990 N   0  0  0  0  0  0  0  0  0  0  0  0
    5.7183   -7.5611   32.5910 C   0  0  0  0  0  0  0  0  0  0  0  0
    5.4354   -6.0297   32.7195 N   0  0  0  0  0  0  0  0  0  0  0  0
    7.1904   -7.8959   32.2084 C   0  0  0  0  0  0  0  0  0  0  0  0
    3.3861  -10.3488   32.4601 O   0  0  0  0  0  0  0  0  0  0  0  0
    0.3156   -4.6968   24.3807 C   0  0  2  0  0  0  0  0  0  0  0  0
   -1.0812   -4.4765   24.2702 O   0  0  0  0  0  0  0  0  0  0  0  0
    2.6646   -7.8656   27.2775 C   0  0  2  0  0  0  0  0  0  0  0  0
    0.6360   -6.2135   24.2466 C   0  0  2  0  0  0  0  0  0  0  0  0
    2.0541   -6.4566   24.3535 O   0  0  0  0  0  0  0  0  0  0  0  0
    4.1137   -7.7081   27.9102 C   0  0  2  0  0  0  0  0  0  0  0  0
    5.0138   -7.1837   26.8884 O   0  0  0  0  0  0  0  0  0  0  0  0
    0.1623   -6.7681   22.9562 C   0  0  0  0  0  0  0  0  0  0  0  0
    1.0517   -6.4687   21.9841 N   0  0  0  0  0  0  0  0  0  0  0  0
    4.6063   -9.1127   28.4036 C   0  0  1  0  0  0  0  0  0  0  0  0
    5.8876   -9.0133   28.9388 O   0  0  0  0  0  0  0  0  0  0  0  0
  1  2  1  1  0  0  0
  1  5  1  0  0  0  0
  1 29  1  0  0  0  0
  3  4  1  6  0  0  0
  3  7  1  0  0  0  0
  3 34  1  0  0  0  0
  5  6  1  1  0  0  0
  5 16  1  0  0  0  0
  7 19  1  0  0  0  0
  8  4  1  0  0  0  0
  8 24  2  0  0  0  0
  9  8  1  1  0  0  0
  9 10  1  0  0  0  0
  9 13  1  0  0  0  0
 10 11  1  0  0  0  0
 11 12  1  0  0  0  0
 14 15  1  0  0  0  0
 14 35  1  0  0  0  0
 15 17  1  0  0  0  0
 16 18  1  6  0  0  0
 16 25  1  0  0  0  0
 19 20  1  6  0  0  0
 19 27  1  0  0  0  0
 21 22  1  0  0  0  0
 21 23  1  0  0  0  0
 23 17  1  0  0  0  0
 25 26  1  1  0  0  0
 25 28  1  0  0  0  0
 27  2  1  1  0  0  0
 27 30  1  0  0  0  0
 28 29  1  0  0  0  0
 28 32  1  6  0  0  0
 30 31  1  6  0  0  0
 30 34  1  0  0  0  0
 32 33  2  0  0  0  0
 34 35  1  1  0  0  0
M  END
>  <CHROM.1>
-154.50500508,-98.28951188,169.33290119,-166.32555371,-61.00574429,71.12292935
-176.73680584,52.40899110,-62.96094880,-123.68594309,-167.08656798,80.59469795
60.79920982,3.41878536,-8.19080089,28.45832556,-2.13578997,0.71879637,2.68216746

>  <Name>
2f4t_lig

>  <RI>
0

>  <Rbt.Current_Directory>
/home/itssahil/PROJECTS/Mol_Feturizer/New_Systems/rnas/2f4t

>  <Rbt.Executable>
rbdock ($Id: //depot/dev/client3/rdock/2013.1/src/exe/rbdock.cxx#4 $)

>  <Rbt.Library>
libRbt.so (2013.1, Build901 2013/11/27)

>  <Rbt.Parameter_File>
/export/apps/rDock/src/rDock_2013.1_src/data/scripts/dock_solv.prm

>  <Rbt.Receptor>
prm/pocket_docking_2.prm

>  <SCORE>
-17.9781

>  <SCORE.INTER>
-13.0376

>  <SCORE.INTER.CONST>
1

>  <SCORE.INTER.POLAR>
-0.938083

>  <SCORE.INTER.ROT>
13

>  <SCORE.INTER.SOLV>
16.0692

>  <SCORE.INTER.VDW>
-23.1879

>  <SCORE.INTER.norm>
-0.372503

>  <SCORE.INTRA>
-5.72753

>  <SCORE.INTRA.DIHEDRAL>
-14.506

>  <SCORE.INTRA.DIHEDRAL.0>
23.8882

>  <SCORE.INTRA.POLAR>
0

>  <SCORE.INTRA.POLAR.0>
0

>  <SCORE.INTRA.REPUL>
0

>  <SCORE.INTRA.REPUL.0>
0

>  <SCORE.INTRA.SOLV>
2.96984

>  <SCORE.INTRA.SOLV.lig_0>
-97.6888

>  <SCORE.INTRA.VDW>
0.0405392

>  <SCORE.INTRA.VDW.0>
-3.9206

>  <SCORE.INTRA.norm>
-0.163644

>  <SCORE.RESTR>
0.787049

>  <SCORE.RESTR.CAVITY>
0.787049

>  <SCORE.RESTR.norm>
0.0224871

>  <SCORE.SYSTEM>
0

>  <SCORE.SYSTEM.CONST>
0

>  <SCORE.SYSTEM.DIHEDRAL>
0

>  <SCORE.SYSTEM.SOLV>
0

>  <SCORE.SYSTEM.norm>
0

>  <SCORE.heavy>
35

>  <SCORE.norm>
-0.51366

>  <RMSD>
1.407

$$$$
2f4t_lig
 OpenBabel11021811433D
libRbt.so/2013.1/901 2013/11/27
 35 36  0  0  0  0  0  0  0  0999 V2000
    3.5703   -5.1993   26.3369 C   0  0  2  0  0  0  0  0  0  0  0  0
    3.0865   -5.7685   27.5975 O   0  0  0  0  0  0  0  0  0  0  0  0
    3.9968   -9.3427   29.8456 C   0  0  2  0  0  0  0  0  0  0  0  0
    4.0987  -10.7675   30.1954 N   0  0  0  0  0  0  0  0  0  0  0  0
    3.0892   -3.7167   26.3269 C   0  0  2  0  0  0  0  0  0  0  0  0
    3.5648   -3.0187   27.4982 N   0  0  0  0  0  0  0  0  0  0  0  0
    2.5192   -9.0183   29.4153 C   0  0  0  0  0  0  0  0  0  0  0  0
    4.5781  -10.9276   31.8875 C   0  0  0  0  0  0  0  0  0  0  0  0
    4.5047  -12.4206   31.6555 C   0  0  1  0  0  0  0  0  0  0  0  0
    5.0754  -13.1093   32.8973 C   0  0  0  0  0  0  0  0  0  0  0  0
    5.0366  -14.6466   32.8830 C   0  0  0  0  0  0  0  0  0  0  0  0
    5.5688  -15.1110   31.5983 N   0  0  0  0  0  0  0  0  0  0  0  0
    3.1713  -12.8481   31.5574 O   0  0  0  0  0  0  0  0  0  0  0  0
    7.6072   -9.0605   29.4473 C   0  0  0  0  0  0  0  0  0  0  0  0
    7.5954   -8.4038   30.8192 C   0  0  0  0  0  0  0  0  0  0  0  0
    1.5263   -3.6589   26.2466 C   0  0  1  0  0  0  0  0  0  0  0  0
    6.8403   -7.1323   30.8596 N   0  0  0  0  0  0  0  0  0  0  0  0
    1.0689   -2.3206   26.2315 O   0  0  0  0  0  0  0  0  0  0  0  0
    2.3472   -7.5434   29.0259 C   0  0  2  0  0  0  0  0  0  0  0  0
    0.9795   -7.2765   28.5921 N   0  0  0  0  0  0  0  0  0  0  0  0
    6.1399   -4.9712   31.8942 C   0  0  0  0  0  0  0  0  0  0  0  0
    5.9419   -4.1313   33.1970 N   0  0  0  0  0  0  0  0  0  0  0  0
    6.6443   -6.4214   32.1548 C   0  0  0  0  0  0  0  0  0  0  0  0
    4.8038  -10.2385   32.6707 O   0  0  0  0  0  0  0  0  0  0  0  0
    1.0882   -4.3960   24.9767 C   0  0  2  0  0  0  0  0  0  0  0  0
   -0.3229   -4.3703   24.8357 O   0  0  0  0  0  0  0  0  0  0  0  0
    3.2973   -7.1786   27.9127 C   0  0  2  0  0  0  0  0  0  0  0  0
    1.6014   -5.8645   25.0121 C   0  0  2  0  0  0  0  0  0  0  0  0
    3.0366   -5.9102   25.1523 O   0  0  0  0  0  0  0  0  0  0  0  0
    4.7954   -7.4745   28.3520 C   0  0  2  0  0  0  0  0  0  0  0  0
    5.6843   -7.1048   27.2556 O   0  0  0  0  0  0  0  0  0  0  0  0
    1.2267   -6.6121   23.7884 C   0  0  0  0  0  0  0  0  0  0  0  0
    0.3777   -7.6115   24.1139 N   0  0  0  0  0  0  0  0  0  0  0  0
    4.9353   -9.0022   28.6775 C   0  0  1  0  0  0  0  0  0  0  0  0
    6.2462   -9.2996   29.0393 O   0  0  0  0  0  0  0  0  0  0  0  0
  1  2  1  1  0  0  0
  1  5  1  0  0  0  0
  1 29  1  0  0  0  0
  3  4  1  6  0  0  0
  3  7  1  0  0  0  0
  3 34  1  0  0  0  0
  5  6  1  1  0  0  0
  5 16  1  0  0  0  0
  7 19  1  0  0  0  0
  8  4  1  0  0  0  0
  8 24  2  0  0  0  0
  9  8  1  1  0  0  0
  9 10  1  0  0  0  0
  9 13  1  0  0  0  0
 10 11  1  0  0  0  0
 11 12  1  0  0  0  0
 14 15  1  0  0  0  0
 14 35  1  0  0  0  0
 15 17  1  0  0  0  0
 16 18  1  6  0  0  0
 16 25  1  0  0  0  0
 19 20  1  6  0  0  0
 19 27  1  0  0  0  0
 21 22  1  0  0  0  0
 21 23  1  0  0  0  0
 23 17  1  0  0  0  0
 25 26  1  1  0  0  0
 25 28  1  0  0  0  0
 27  2  1  1  0  0  0
 27 30  1  0  0  0  0
 28 29  1  0  0  0  0
 28 32  1  6  0  0  0
 30 31  1  6  0  0  0
 30 34  1  0  0  0  0
 32 33  2  0  0  0  0
 34 35  1  1  0  0  0
M  END
>  <CHROM.1>
176.73649660,-118.57334570,171.59153512,177.59389790,48.23355362,-58.05131833
62.80721123,175.18545401,-178.42031527,166.21026049,-162.86758924,-115.15931964
-105.15304782,3.86807109,-7.75993002,28.85414392,-2.12563216,0.83075723,2.85780814

>  <Name>
2f4t_lig

>  <RI>
0

>  <Rbt.Current_Directory>
/home/itssahil/PROJECTS/Mol_Feturizer/New_Systems/rnas/2f4t

>  <Rbt.Executable>
rbdock ($Id: //depot/dev/client3/rdock/2013.1/src/exe/rbdock.cxx#4 $)

>  <Rbt.Library>
libRbt.so (2013.1, Build901 2013/11/27)

>  <Rbt.Parameter_File>
/export/apps/rDock/src/rDock_2013.1_src/data/scripts/dock_solv.prm

>  <Rbt.Receptor>
prm/pocket_docking_3.prm

>  <SCORE>
-19.7225

>  <SCORE.INTER>
-13.5053

>  <SCORE.INTER.CONST>
1

>  <SCORE.INTER.POLAR>
-2.07974

>  <SCORE.INTER.ROT>
13

>  <SCORE.INTER.SOLV>
15.1799

>  <SCORE.INTER.VDW>
-19.3977

>  <SCORE.INTER.norm>
-0.385867

>  <SCORE.INTRA>
-6.21714

>  <SCORE.INTRA.DIHEDRAL>
-12.6777

>  <SCORE.INTRA.DIHEDRAL.0>
23.8882

>  <SCORE.INTRA.POLAR>
0

>  <SCORE.INTRA.POLAR.0>
0

>  <SCORE.INTRA.REPUL>
0

>  <SCORE.INTRA.REPUL.0>
0

>  <SCORE.INTRA.SOLV>
2.52263

>  <SCORE.INTRA.SOLV.lig_0>
-97.6888

>  <SCORE.INTRA.VDW>
-1.1396

>  <SCORE.INTRA.VDW.0>
-3.9206

>  <SCORE.INTRA.norm>
-0.177633

>  <SCORE.RESTR>
0

>  <SCORE.RESTR.CAVITY>
0

>  <SCORE.RESTR.norm>
0

>  <SCORE.SYSTEM>
0

>  <SCORE.SYSTEM.CONST>
0

>  <SCORE.SYSTEM.DIHEDRAL>
0

>  <SCORE.SYSTEM.SOLV>
0

>  <SCORE.SYSTEM.norm>
0

>  <SCORE.heavy>
35

>  <SCORE.norm>
-0.563499

>  <RMSD>
1.411

$$$$
2f4t_lig
 OpenBabel11021811433D
libRbt.so/2013.1/901 2013/11/27
 35 36  0  0  0  0  0  0  0  0999 V2000
    2.9675   -5.4019   25.8702 C   0  0  2  0  0  0  0  0  0  0  0  0
    2.3389   -6.2590   26.8789 O   0  0  0  0  0  0  0  0  0  0  0  0
    3.3839   -9.8673   29.0108 C   0  0  2  0  0  0  0  0  0  0  0  0
    3.7891  -11.2594   29.2570 N   0  0  0  0  0  0  0  0  0  0  0  0
    2.4443   -3.9606   26.1504 C   0  0  2  0  0  0  0  0  0  0  0  0
    2.7368   -3.5673   27.5088 N   0  0  0  0  0  0  0  0  0  0  0  0
    2.1736   -9.8490   28.0067 C   0  0  0  0  0  0  0  0  0  0  0  0
    2.6196  -12.0343   30.3297 C   0  0  0  0  0  0  0  0  0  0  0  0
    3.4807  -13.2711   30.1993 C   0  0  1  0  0  0  0  0  0  0  0  0
    3.3592  -14.0579   31.5062 C   0  0  0  0  0  0  0  0  0  0  0  0
    4.2926  -15.2727   31.6411 C   0  0  0  0  0  0  0  0  0  0  0  0
    4.0408  -15.9080   32.9381 N   0  0  0  0  0  0  0  0  0  0  0  0
    2.9920  -14.1190   29.1931 O   0  0  0  0  0  0  0  0  0  0  0  0
    6.3981   -8.7940   30.4533 C   0  0  0  0  0  0  0  0  0  0  0  0
    5.5608   -9.1349   31.6765 C   0  0  0  0  0  0  0  0  0  0  0  0
    0.9050   -3.8838   25.8729 C   0  0  1  0  0  0  0  0  0  0  0  0
    6.0898   -8.5615   32.9335 N   0  0  0  0  0  0  0  0  0  0  0  0
    0.4105   -2.5814   26.1169 O   0  0  0  0  0  0  0  0  0  0  0  0
    1.7074   -8.4193   27.6983 C   0  0  2  0  0  0  0  0  0  0  0  0
    0.6116   -8.4265   26.7343 N   0  0  0  0  0  0  0  0  0  0  0  0
    7.2250   -6.5698   33.9214 C   0  0  0  0  0  0  0  0  0  0  0  0
    6.0522   -5.5880   33.6014 N   0  0  0  0  0  0  0  0  0  0  0  0
    7.3422   -7.7538   32.9165 C   0  0  0  0  0  0  0  0  0  0  0  0
    1.7252  -11.7164   30.8177 O   0  0  0  0  0  0  0  0  0  0  0  0
    0.6639   -4.2912   24.4157 C   0  0  2  0  0  0  0  0  0  0  0  0
   -0.7159   -4.2310   24.0929 O   0  0  0  0  0  0  0  0  0  0  0  0
    2.8470   -7.6022   27.1427 C   0  0  2  0  0  0  0  0  0  0  0  0
    1.2152   -5.7250   24.1677 C   0  0  2  0  0  0  0  0  0  0  0  0
    2.6197   -5.8045   24.4880 O   0  0  0  0  0  0  0  0  0  0  0  0
    4.0624   -7.5903   28.1663 C   0  0  2  0  0  0  0  0  0  0  0  0
    5.1411   -6.7877   27.5995 O   0  0  0  0  0  0  0  0  0  0  0  0
    1.0311   -6.1538   22.7609 C   0  0  0  0  0  0  0  0  0  0  0  0
    2.2306   -6.1862   22.1396 N   0  0  0  0  0  0  0  0  0  0  0  0
    4.5428   -9.0649   28.3991 C   0  0  1  0  0  0  0  0  0  0  0  0
    5.6274   -9.0861   29.2715 O   0  0  0  0  0  0  0  0  0  0  0  0
  1  2  1  1  0  0  0
  1  5  1  0  0  0  0
  1 29  1  0  0  0  0
  3  4  1  6  0  0  0
  3  7  1  0  0  0  0
  3 34  1  0  0  0  0
  5  6  1  1  0  0  0
  5 16  1  0  0  0  0
  7 19  1  0  0  0  0
  8  4  1  0  0  0  0
  8 24  2  0  0  0  0
  9  8  1  1  0  0  0
  9 10  1  0  0  0  0
  9 13  1  0  0  0  0
 10 11  1  0  0  0  0
 11 12  1  0  0  0  0
 14 15  1  0  0  0  0
 14 35  1  0  0  0  0
 15 17  1  0  0  0  0
 16 18  1  6  0  0  0
 16 25  1  0  0  0  0
 19 20  1  6  0  0  0
 19 27  1  0  0  0  0
 21 22  1  0  0  0  0
 21 23  1  0  0  0  0
 23 17  1  0  0  0  0
 25 26  1  1  0  0  0
 25 28  1  0  0  0  0
 27  2  1  1  0  0  0
 27 30  1  0  0  0  0
 28 29  1  0  0  0  0
 28 32  1  6  0  0  0
 30 31  1  6  0  0  0
 30 34  1  0  0  0  0
 32 33  2  0  0  0  0
 34 35  1  1  0  0  0
M  END
>  <CHROM.1>
-164.28862265,-75.20857527,149.35117729,-173.08782355,-179.72323511,-165.00234587
51.93221667,-0.80689300,-60.39929258,142.45417427,-154.67176429,109.03885969
-69.47818652,3.25355114,-8.24176180,28.39618987,-2.10610253,0.92598760,2.83532790

>  <Name>
2f4t_lig

>  <RI>
0

>  <Rbt.Current_Directory>
/home/itssahil/PROJECTS/Mol_Feturizer/New_Systems/rnas/2f4t

>  <Rbt.Executable>
rbdock ($Id: //depot/dev/client3/rdock/2013.1/src/exe/rbdock.cxx#4 $)

>  <Rbt.Library>
libRbt.so (2013.1, Build901 2013/11/27)

>  <Rbt.Parameter_File>
/export/apps/rDock/src/rDock_2013.1_src/data/scripts/dock_solv.prm

>  <Rbt.Receptor>
prm/pocket_docking_3.prm

>  <SCORE>
-21.3155

>  <SCORE.INTER>
-17.8325

>  <SCORE.INTER.CONST>
1

>  <SCORE.INTER.POLAR>
-1.13841

>  <SCORE.INTER.ROT>
13

>  <SCORE.INTER.SOLV>
18.485

>  <SCORE.INTER.VDW>
-26.5219

>  <SCORE.INTER.norm>
-0.509499

>  <SCORE.INTRA>
-3.4874

>  <SCORE.INTRA.DIHEDRAL>
-13.5029

>  <SCORE.INTRA.DIHEDRAL.0>
23.8882

>  <SCORE.INTRA.POLAR>
0

>  <SCORE.INTRA.POLAR.0>
0

>  <SCORE.INTRA.REPUL>
0

>  <SCORE.INTRA.REPUL.0>
0

>  <SCORE.INTRA.SOLV>
0.873255

>  <SCORE.INTRA.SOLV.lig_0>
-97.6888

>  <SCORE.INTRA.VDW>
2.82742

>  <SCORE.INTRA.VDW.0>
-3.9206

>  <SCORE.INTRA.norm>
-0.0996399

>  <SCORE.RESTR>
0.00431091

>  <SCORE.RESTR.CAVITY>
0.00431091

>  <SCORE.RESTR.norm>
0.000123169

>  <SCORE.SYSTEM>
0

>  <SCORE.SYSTEM.CONST>
0

>  <SCORE.SYSTEM.DIHEDRAL>
0

>  <SCORE.SYSTEM.SOLV>
0

>  <SCORE.SYSTEM.norm>
0

>  <SCORE.heavy>
35

>  <SCORE.norm>
-0.609015

>  <RMSD>
1.428

$$$$
2f4t_lig
 OpenBabel11021811433D
libRbt.so/2013.1/901 2013/11/27
 35 36  0  0  0  0  0  0  0  0999 V2000
    2.8447   -5.4378   25.8463 C   0  0  2  0  0  0  0  0  0  0  0  0
    2.1630   -6.3451   26.7733 O   0  0  0  0  0  0  0  0  0  0  0  0
    3.2893   -9.9136   28.9307 C   0  0  2  0  0  0  0  0  0  0  0  0
    3.7193  -11.2964   29.1868 N   0  0  0  0  0  0  0  0  0  0  0  0
    2.1838   -4.0415   26.0541 C   0  0  2  0  0  0  0  0  0  0  0  0
    2.2764   -3.6345   27.4366 N   0  0  0  0  0  0  0  0  0  0  0  0
    2.0674   -9.9250   27.9405 C   0  0  0  0  0  0  0  0  0  0  0  0
    2.3579  -12.2325   29.8105 C   0  0  0  0  0  0  0  0  0  0  0  0
    3.3187  -13.4001   29.8528 C   0  0  1  0  0  0  0  0  0  0  0  0
    3.9740  -13.4088   31.2357 C   0  0  0  0  0  0  0  0  0  0  0  0
    3.0387  -13.7298   32.4135 C   0  0  0  0  0  0  0  0  0  0  0  0
    2.1792  -12.5665   32.6523 N   0  0  0  0  0  0  0  0  0  0  0  0
    2.6317  -14.6194   29.7452 O   0  0  0  0  0  0  0  0  0  0  0  0
    6.2731   -8.8593   30.3645 C   0  0  0  0  0  0  0  0  0  0  0  0
    6.3732   -7.3585   30.5904 C   0  0  0  0  0  0  0  0  0  0  0  0
    0.6891   -4.0792   25.5887 C   0  0  1  0  0  0  0  0  0  0  0  0
    7.3301   -6.9833   31.6544 N   0  0  0  0  0  0  0  0  0  0  0  0
    0.0716   -2.8190   25.7646 O   0  0  0  0  0  0  0  0  0  0  0  0
    1.5752   -8.5062   27.6225 C   0  0  2  0  0  0  0  0  0  0  0  0
    0.4687   -8.5409   26.6715 N   0  0  0  0  0  0  0  0  0  0  0  0
    7.7392   -6.3754   34.0408 C   0  0  0  0  0  0  0  0  0  0  0  0
    7.1718   -4.9246   33.9179 N   0  0  0  0  0  0  0  0  0  0  0  0
    7.0758   -7.3919   33.0650 C   0  0  0  0  0  0  0  0  0  0  0  0
    1.3378  -12.0130   30.0347 O   0  0  0  0  0  0  0  0  0  0  0  0
    0.6608   -4.4958   24.1145 C   0  0  2  0  0  0  0  0  0  0  0  0
   -0.6694   -4.5379   23.6239 O   0  0  0  0  0  0  0  0  0  0  0  0
    2.6953   -7.6773   27.0452 C   0  0  2  0  0  0  0  0  0  0  0  0
    1.3448   -5.8827   23.9421 C   0  0  2  0  0  0  0  0  0  0  0  0
    2.7011   -5.8580   24.4334 O   0  0  0  0  0  0  0  0  0  0  0  0
    3.9220   -7.6353   28.0544 C   0  0  2  0  0  0  0  0  0  0  0  0
    4.9813   -6.8220   27.4667 O   0  0  0  0  0  0  0  0  0  0  0  0
    1.3683   -6.3167   22.5250 C   0  0  0  0  0  0  0  0  0  0  0  0
    0.6552   -7.4566   22.3916 N   0  0  0  0  0  0  0  0  0  0  0  0
    4.4283   -9.0996   28.2972 C   0  0  1  0  0  0  0  0  0  0  0  0
    5.5230   -9.0945   29.1570 O   0  0  0  0  0  0  0  0  0  0  0  0
  1  2  1  1  0  0  0
  1  5  1  0  0  0  0
  1 29  1  0  0  0  0
  3  4  1  6  0  0  0
  3  7  1  0  0  0  0
  3 34  1  0  0  0  0
  5  6  1  1  0  0  0
  5 16  1  0  0  0  0
  7 19  1  0  0  0  0
  8  4  1  0  0  0  0
  8 24  2  0  0  0  0
  9  8  1  1  0  0  0
  9 10  1  0  0  0  0
  9 13  1  0  0  0  0
 10 11  1  0  0  0  0
 11 12  1  0  0  0  0
 14 15  1  0  0  0  0
 14 35  1  0  0  0  0
 15 17  1  0  0  0  0
 16 18  1  6  0  0  0
 16 25  1  0  0  0  0
 19 20  1  6  0  0  0
 19 27  1  0  0  0  0
 21 22  1  0  0  0  0
 21 23  1  0  0  0  0
 23 17  1  0  0  0  0
 25 26  1  1  0  0  0
 25 28  1  0  0  0  0
 27  2  1  1  0  0  0
 27 30  1  0  0  0  0
 28 29  1  0  0  0  0
 28 32  1  6  0  0  0
 30 31  1  6  0  0  0
 30 34  1  0  0  0  0
 32 33  2  0  0  0  0
 34 35  1  1  0  0  0
M  END
>  <CHROM.1>
-167.75758060,-56.51616888,90.80433907,67.10974314,-73.35528812,-169.17775667
-64.99688228,-64.52411399,61.98787194,-152.36171290,-160.84736954,-117.68890419
-59.38888610,3.13274497,-8.08798319,28.23614257,-2.15054673,0.85435220,2.73237877

>  <Name>
2f4t_lig

>  <RI>
0

>  <Rbt.Current_Directory>
/home/itssahil/PROJECTS/Mol_Feturizer/New_Systems/rnas/2f4t

>  <Rbt.Executable>
rbdock ($Id: //depot/dev/client3/rdock/2013.1/src/exe/rbdock.cxx#4 $)

>  <Rbt.Library>
libRbt.so (2013.1, Build901 2013/11/27)

>  <Rbt.Parameter_File>
/export/apps/rDock/src/rDock_2013.1_src/data/scripts/dock_solv.prm

>  <Rbt.Receptor>
prm/pocket_docking_3.prm

>  <SCORE>
-22.2375

>  <SCORE.INTER>
-16.5493

>  <SCORE.INTER.CONST>
1

>  <SCORE.INTER.POLAR>
-0.938083

>  <SCORE.INTER.ROT>
13

>  <SCORE.INTER.SOLV>
17.8249

>  <SCORE.INTER.VDW>
-26.1142

>  <SCORE.INTER.norm>
-0.472838

>  <SCORE.INTRA>
-5.68822

>  <SCORE.INTRA.DIHEDRAL>
-17.108

>  <SCORE.INTRA.DIHEDRAL.0>
23.8882

>  <SCORE.INTRA.POLAR>
0

>  <SCORE.INTRA.POLAR.0>
0

>  <SCORE.INTRA.REPUL>
0

>  <SCORE.INTRA.REPUL.0>
0

>  <SCORE.INTRA.SOLV>
4.19241

>  <SCORE.INTRA.SOLV.lig_0>
-97.6888

>  <SCORE.INTRA.VDW>
0.769562

>  <SCORE.INTRA.VDW.0>
-3.9206

>  <SCORE.INTRA.norm>
-0.16252

>  <SCORE.RESTR>
0

>  <SCORE.RESTR.CAVITY>
0

>  <SCORE.RESTR.norm>
0

>  <SCORE.SYSTEM>
0

>  <SCORE.SYSTEM.CONST>
0

>  <SCORE.SYSTEM.DIHEDRAL>
0

>  <SCORE.SYSTEM.SOLV>
0

>  <SCORE.SYSTEM.norm>
0

>  <SCORE.heavy>
35

>  <SCORE.norm>
-0.635358

>  <RMSD>
1.438

$$$$
2f4t_lig
 OpenBabel11021811433D
libRbt.so/2013.1/901 2013/11/27
 35 36  0  0  0  0  0  0  0  0999 V2000
    3.1624   -6.3848   26.0962 C   0  0  2  0  0  0  0  0  0  0  0  0
    2.3864   -6.8559   27.2464 O   0  0  0  0  0  0  0  0  0  0  0  0
    3.5281   -9.4292   30.5223 C   0  0  2  0  0  0  0  0  0  0  0  0
    3.8184  -10.6551   31.2810 N   0  0  0  0  0  0  0  0  0  0  0  0
    3.0538   -4.8300   26.1174 C   0  0  2  0  0  0  0  0  0  0  0  0
    3.5137   -4.3042   27.3814 N   0  0  0  0  0  0  0  0  0  0  0  0
    2.1063   -9.5524   29.8613 C   0  0  0  0  0  0  0  0  0  0  0  0
    3.6916  -12.0553   30.2122 C   0  0  0  0  0  0  0  0  0  0  0  0
    4.0637  -12.8797   31.4247 C   0  0  1  0  0  0  0  0  0  0  0  0
    3.9649  -14.3545   31.0281 C   0  0  0  0  0  0  0  0  0  0  0  0
    2.5385  -14.9079   30.8726 C   0  0  0  0  0  0  0  0  0  0  0  0
    1.8923  -14.8981   32.1884 N   0  0  0  0  0  0  0  0  0  0  0  0
    5.4039  -12.6672   31.7839 O   0  0  0  0  0  0  0  0  0  0  0  0
    6.8878   -8.6128   30.8254 C   0  0  0  0  0  0  0  0  0  0  0  0
    7.1506   -7.1624   30.4503 C   0  0  0  0  0  0  0  0  0  0  0  0
    1.5764   -4.3902   25.8415 C   0  0  1  0  0  0  0  0  0  0  0  0
    8.1510   -6.4999   31.3158 N   0  0  0  0  0  0  0  0  0  0  0  0
    1.4568   -2.9809   25.8518 O   0  0  0  0  0  0  0  0  0  0  0  0
    1.7457   -8.3048   29.0428 C   0  0  2  0  0  0  0  0  0  0  0  0
    0.4411   -8.4596   28.4069 N   0  0  0  0  0  0  0  0  0  0  0  0
    7.5882   -4.2296   32.1876 C   0  0  0  0  0  0  0  0  0  0  0  0
    7.0338   -3.3677   33.3673 N   0  0  0  0  0  0  0  0  0  0  0  0
    7.7106   -5.7454   32.5233 C   0  0  0  0  0  0  0  0  0  0  0  0
    3.4543  -12.1913   29.1806 O   0  0  0  0  0  0  0  0  0  0  0  0
    1.1570   -4.9600   24.4824 C   0  0  2  0  0  0  0  0  0  0  0  0
   -0.1738   -4.5866   24.1638 O   0  0  0  0  0  0  0  0  0  0  0  0
    2.7856   -8.0539   27.9795 C   0  0  2  0  0  0  0  0  0  0  0  0
    1.2963   -6.5097   24.4913 C   0  0  2  0  0  0  0  0  0  0  0  0
    2.6455   -6.9085   24.8109 O   0  0  0  0  0  0  0  0  0  0  0  0
    4.2208   -7.8972   28.6431 C   0  0  2  0  0  0  0  0  0  0  0  0
    5.1978   -7.6503   27.5877 O   0  0  0  0  0  0  0  0  0  0  0  0
    0.9289   -7.1066   23.1853 C   0  0  0  0  0  0  0  0  0  0  0  0
   -0.3919   -7.3913   23.1762 N   0  0  0  0  0  0  0  0  0  0  0  0
    4.5699   -9.2182   29.4127 C   0  0  1  0  0  0  0  0  0  0  0  0
    5.8361   -9.1232   29.9831 O   0  0  0  0  0  0  0  0  0  0  0  0
  1  2  1  1  0  0  0
  1  5  1  0  0  0  0
  1 29  1  0  0  0  0
  3  4  1  6  0  0  0
  3  7  1  0  0  0  0
  3 34  1  0  0  0  0
  5  6  1  1  0  0  0
  5 16  1  0  0  0  0
  7 19  1  0  0  0  0
  8  4  1  0  0  0  0
  8 24  2  0  0  0  0
  9  8  1  6  0  0  0
  9 10  1  0  0  0  0
  9 13  1  0  0  0  0
 10 11  1  0  0  0  0
 11 12  1  0  0  0  0
 14 15  1  0  0  0  0
 14 35  1  0  0  0  0
 15 17  1  0  0  0  0
 16 18  1  6  0  0  0
 16 25  1  0  0  0  0
 19 20  1  6  0  0  0
 19 27  1  0  0  0  0
 21 22  1  0  0  0  0
 21 23  1  0  0  0  0
 23 17  1  0  0  0  0
 25 26  1  1  0  0  0
 25 28  1  0  0  0  0
 27  2  1  1  0  0  0
 27 30  1  0  0  0  0
 28 29  1  0  0  0  0
 28 32  1  6  0  0  0
 30 31  1  6  0  0  0
 30 34  1  0  0  0  0
 32 33  2  0  0  0  0
 34 35  1  1  0  0  0
M  END
>  <CHROM.1>
-146.74791420,56.44289005,174.59025360,-73.53085538,-66.04948759,175.96198475
-60.27627633,-92.29686582,175.92596833,-96.04662341,-176.89302213,-89.84924932
-58.34608938,3.56622475,-8.13758033,28.64779215,2.06677023,-0.79373838,-0.41916014

>  <Name>
2f4t_lig

>  <RI>
0

>  <Rbt.Current_Directory>
/home/itssahil/PROJECTS/Mol_Feturizer/New_Systems/rnas/2f4t

>  <Rbt.Executable>
rbdock ($Id: //depot/dev/client3/rdock/2013.1/src/exe/rbdock.cxx#4 $)

>  <Rbt.Library>
libRbt.so (2013.1, Build901 2013/11/27)

>  <Rbt.Parameter_File>
/export/apps/rDock/src/rDock_2013.1_src/data/scripts/dock_solv.prm

>  <Rbt.Receptor>
prm/pocket_docking_3.prm

>  <SCORE>
-13.7255

>  <SCORE.INTER>
-7.28633

>  <SCORE.INTER.CONST>
1

>  <SCORE.INTER.POLAR>
-0.791046

>  <SCORE.INTER.ROT>
13

>  <SCORE.INTER.SOLV>
11.8049

>  <SCORE.INTER.VDW>
-18.4224

>  <SCORE.INTER.norm>
-0.208181

>  <SCORE.INTRA>
-6.43915

>  <SCORE.INTRA.DIHEDRAL>
-15.1462

>  <SCORE.INTRA.DIHEDRAL.0>
23.8882

>  <SCORE.INTRA.POLAR>
0

>  <SCORE.INTRA.POLAR.0>
0

>  <SCORE.INTRA.REPUL>
0

>  <SCORE.INTRA.REPUL.0>
0

>  <SCORE.INTRA.SOLV>
1.14314

>  <SCORE.INTRA.SOLV.lig_0>
-97.6888

>  <SCORE.INTRA.VDW>
0.562397

>  <SCORE.INTRA.VDW.0>
-3.9206

>  <SCORE.INTRA.norm>
-0.183976

>  <SCORE.RESTR>
0

>  <SCORE.RESTR.CAVITY>
0

>  <SCORE.RESTR.norm>
0

>  <SCORE.SYSTEM>
0

>  <SCORE.SYSTEM.CONST>
0

>  <SCORE.SYSTEM.DIHEDRAL>
0

>  <SCORE.SYSTEM.SOLV>
0

>  <SCORE.SYSTEM.norm>
0

>  <SCORE.heavy>
35

>  <SCORE.norm>
-0.392157

>  <RMSD>
1.478

$$$$
2f4t_lig
 OpenBabel11021811433D
libRbt.so/2013.1/901 2013/11/27
 35 36  0  0  0  0  0  0  0  0999 V2000
    3.0985   -6.0401   26.3027 C   0  0  2  0  0  0  0  0  0  0  0  0
    2.3889   -6.5169   27.4927 O   0  0  0  0  0  0  0  0  0  0  0  0
    3.5484   -9.5054   30.3879 C   0  0  2  0  0  0  0  0  0  0  0  0
    3.7486  -10.8224   31.0108 N   0  0  0  0  0  0  0  0  0  0  0  0
    2.9027   -4.4938   26.2813 C   0  0  2  0  0  0  0  0  0  0  0  0
    3.3735   -3.9035   27.5123 N   0  0  0  0  0  0  0  0  0  0  0  0
    2.0508   -9.3718   29.9264 C   0  0  0  0  0  0  0  0  0  0  0  0
    3.1639  -12.0852   29.9234 C   0  0  0  0  0  0  0  0  0  0  0  0
    3.6039  -13.0604   30.9928 C   0  0  1  0  0  0  0  0  0  0  0  0
    2.8232  -14.3596   30.7822 C   0  0  0  0  0  0  0  0  0  0  0  0
    2.9921  -15.4233   31.8801 C   0  0  0  0  0  0  0  0  0  0  0  0
    4.3311  -16.0072   31.7565 N   0  0  0  0  0  0  0  0  0  0  0  0
    4.9580  -13.3964   30.8391 O   0  0  0  0  0  0  0  0  0  0  0  0
    7.0433   -9.1150   30.1599 C   0  0  0  0  0  0  0  0  0  0  0  0
    6.7789   -8.6459   31.5824 C   0  0  0  0  0  0  0  0  0  0  0  0
    1.3944   -4.1459   26.0439 C   0  0  1  0  0  0  0  0  0  0  0  0
    5.9626   -7.4144   31.6567 N   0  0  0  0  0  0  0  0  0  0  0  0
    1.1955   -2.7459   26.0163 O   0  0  0  0  0  0  0  0  0  0  0  0
    1.7771   -8.0183   29.2558 C   0  0  2  0  0  0  0  0  0  0  0  0
    0.3930   -7.9343   28.8005 N   0  0  0  0  0  0  0  0  0  0  0  0
    5.2374   -5.2341   32.6323 C   0  0  0  0  0  0  0  0  0  0  0  0
    5.2409   -4.2681   33.8607 N   0  0  0  0  0  0  0  0  0  0  0  0
    5.9911   -6.5730   32.8866 C   0  0  0  0  0  0  0  0  0  0  0  0
    2.7121  -12.0912   28.9565 O   0  0  0  0  0  0  0  0  0  0  0  0
    0.9633   -4.7811   24.7179 C   0  0  2  0  0  0  0  0  0  0  0  0
   -0.3963   -4.4926   24.4347 O   0  0  0  0  0  0  0  0  0  0  0  0
    2.6967   -7.8192   28.0770 C   0  0  2  0  0  0  0  0  0  0  0  0
    1.1905   -6.3196   24.7681 C   0  0  2  0  0  0  0  0  0  0  0  0
    2.5700   -6.6322   25.0523 O   0  0  0  0  0  0  0  0  0  0  0  0
    4.2128   -7.9218   28.5414 C   0  0  2  0  0  0  0  0  0  0  0  0
    5.0711   -7.7187   27.3790 O   0  0  0  0  0  0  0  0  0  0  0  0
    0.8146   -6.9771   23.4940 C   0  0  0  0  0  0  0  0  0  0  0  0
   -0.1562   -7.8877   23.7268 N   0  0  0  0  0  0  0  0  0  0  0  0
    4.4579   -9.3418   29.1602 C   0  0  1  0  0  0  0  0  0  0  0  0
    5.7871   -9.4736   29.5521 O   0  0  0  0  0  0  0  0  0  0  0  0
  1  2  1  1  0  0  0
  1  5  1  0  0  0  0
  1 29  1  0  0  0  0
  3  4  1  6  0  0  0
  3  7  1  0  0  0  0
  3 34  1  0  0  0  0
  5  6  1  1  0  0  0
  5 16  1  0  0  0  0
  7 19  1  0  0  0  0
  8  4  1  0  0  0  0
  8 24  2  0  0  0  0
  9  8  1  6  0  0  0
  9 10  1  0  0  0  0
  9 13  1  0  0  0  0
 10 11  1  0  0  0  0
 11 12  1  0  0  0  0
 14 15  1  0  0  0  0
 14 35  1  0  0  0  0
 15 17  1  0  0  0  0
 16 18  1  6  0  0  0
 16 25  1  0  0  0  0
 19 20  1  6  0  0  0
 19 27  1  0  0  0  0
 21 22  1  0  0  0  0
 21 23  1  0  0  0  0
 23 17  1  0  0  0  0
 25 26  1  1  0  0  0
 25 28  1  0  0  0  0
 27  2  1  1  0  0  0
 27 30  1  0  0  0  0
 28 29  1  0  0  0  0
 28 32  1  6  0  0  0
 30 31  1  6  0  0  0
 30 34  1  0  0  0  0
 32 33  2  0  0  0  0
 34 35  1  1  0  0  0
M  END
>  <CHROM.1>
-160.13810977,52.17569303,158.03372698,-172.40453583,-72.80700089,-64.01891962
49.75574556,-159.33246400,-178.73534276,171.01894298,-178.65950968,-120.39148125
-73.37132674,3.26543536,-8.29508806,28.72689165,2.09806704,-0.93812247,-0.22421115

>  <Name>
2f4t_lig

>  <RI>
0

>  <Rbt.Current_Directory>
/home/itssahil/PROJECTS/Mol_Feturizer/New_Systems/rnas/2f4t

>  <Rbt.Executable>
rbdock ($Id: //depot/dev/client3/rdock/2013.1/src/exe/rbdock.cxx#4 $)

>  <Rbt.Library>
libRbt.so (2013.1, Build901 2013/11/27)

>  <Rbt.Parameter_File>
/export/apps/rDock/src/rDock_2013.1_src/data/scripts/dock_solv.prm

>  <Rbt.Receptor>
prm/pocket_docking_3.prm

>  <SCORE>
-18.0718

>  <SCORE.INTER>
-10.3437

>  <SCORE.INTER.CONST>
1

>  <SCORE.INTER.POLAR>
-1.81439

>  <SCORE.INTER.ROT>
13

>  <SCORE.INTER.SOLV>
12.0796

>  <SCORE.INTER.VDW>
-17.1411

>  <SCORE.INTER.norm>
-0.295536

>  <SCORE.INTRA>
-7.72802

>  <SCORE.INTRA.DIHEDRAL>
-17.3615

>  <SCORE.INTRA.DIHEDRAL.0>
23.8882

>  <SCORE.INTRA.POLAR>
0

>  <SCORE.INTRA.POLAR.0>
0

>  <SCORE.INTRA.REPUL>
0

>  <SCORE.INTRA.REPUL.0>
0

>  <SCORE.INTRA.SOLV>
2.27617

>  <SCORE.INTRA.SOLV.lig_0>
-97.6888

>  <SCORE.INTRA.VDW>
-0.185353

>  <SCORE.INTRA.VDW.0>
-3.9206

>  <SCORE.INTRA.norm>
-0.2208

>  <SCORE.RESTR>
0

>  <SCORE.RESTR.CAVITY>
0

>  <SCORE.RESTR.norm>
0

>  <SCORE.SYSTEM>
0

>  <SCORE.SYSTEM.CONST>
0

>  <SCORE.SYSTEM.DIHEDRAL>
0

>  <SCORE.SYSTEM.SOLV>
0

>  <SCORE.SYSTEM.norm>
0

>  <SCORE.heavy>
35

>  <SCORE.norm>
-0.516336

>  <RMSD>
1.492

$$$$
2f4t_lig
 OpenBabel11021811433D
libRbt.so/2013.1/901 2013/11/27
 35 36  0  0  0  0  0  0  0  0999 V2000
    2.7997   -5.4496   25.7915 C   0  0  2  0  0  0  0  0  0  0  0  0
    2.1233   -6.3670   26.7124 O   0  0  0  0  0  0  0  0  0  0  0  0
    3.3423   -9.9190   28.8466 C   0  0  2  0  0  0  0  0  0  0  0  0
    3.7752  -11.3023   29.0950 N   0  0  0  0  0  0  0  0  0  0  0  0
    2.1356   -4.0570   26.0136 C   0  0  2  0  0  0  0  0  0  0  0  0
    2.2312   -3.6621   27.3994 N   0  0  0  0  0  0  0  0  0  0  0  0
    2.0660   -9.9317   27.9276 C   0  0  0  0  0  0  0  0  0  0  0  0
    2.9385  -11.9372   30.5148 C   0  0  0  0  0  0  0  0  0  0  0  0
    3.7066  -13.2158   30.2627 C   0  0  1  0  0  0  0  0  0  0  0  0
    3.5951  -14.0773   31.5227 C   0  0  0  0  0  0  0  0  0  0  0  0
    4.3031  -13.5253   32.7713 C   0  0  0  0  0  0  0  0  0  0  0  0
    4.1727  -14.5093   33.8502 N   0  0  0  0  0  0  0  0  0  0  0  0
    3.1136  -13.9626   29.2327 O   0  0  0  0  0  0  0  0  0  0  0  0
    6.9717   -8.9054   29.2917 C   0  0  0  0  0  0  0  0  0  0  0  0
    7.3436   -7.4670   28.9658 C   0  0  0  0  0  0  0  0  0  0  0  0
    0.6395   -4.0949   25.5525 C   0  0  1  0  0  0  0  0  0  0  0  0
    8.6683   -7.0660   29.4882 N   0  0  0  0  0  0  0  0  0  0  0  0
    0.0191   -2.8380   25.7414 O   0  0  0  0  0  0  0  0  0  0  0  0
    1.5677   -8.5126   27.6205 C   0  0  2  0  0  0  0  0  0  0  0  0
    0.4086   -8.5492   26.7343 N   0  0  0  0  0  0  0  0  0  0  0  0
    7.9244   -6.0538   31.6454 C   0  0  0  0  0  0  0  0  0  0  0  0
    8.1032   -5.9624   33.1951 N   0  0  0  0  0  0  0  0  0  0  0  0
    8.9145   -7.0400   30.9579 C   0  0  0  0  0  0  0  0  0  0  0  0
    2.2221  -11.5432   31.2008 O   0  0  0  0  0  0  0  0  0  0  0  0
    0.6079   -4.4985   24.0747 C   0  0  2  0  0  0  0  0  0  0  0  0
   -0.7236   -4.5400   23.5878 O   0  0  0  0  0  0  0  0  0  0  0  0
    2.6597   -7.7003   26.9703 C   0  0  2  0  0  0  0  0  0  0  0  0
    1.2953   -5.8819   23.8880 C   0  0  2  0  0  0  0  0  0  0  0  0
    2.6530   -5.8577   24.3754 O   0  0  0  0  0  0  0  0  0  0  0  0
    3.9421   -7.6569   27.9076 C   0  0  2  0  0  0  0  0  0  0  0  0
    4.9727   -6.8598   27.2507 O   0  0  0  0  0  0  0  0  0  0  0  0
    1.3157   -6.3032   22.4671 C   0  0  0  0  0  0  0  0  0  0  0  0
    0.7283   -7.5143   22.3483 N   0  0  0  0  0  0  0  0  0  0  0  0
    4.4498   -9.1225   28.1394 C   0  0  1  0  0  0  0  0  0  0  0  0
    5.5916   -9.1165   28.9356 O   0  0  0  0  0  0  0  0  0  0  0  0
  1  2  1  1  0  0  0
  1  5  1  0  0  0  0
  1 29  1  0  0  0  0
  3  4  1  6  0  0  0
  3  7  1  0  0  0  0
  3 34  1  0  0  0  0
  5  6  1  1  0  0  0
  5 16  1  0  0  0  0
  7 19  1  0  0  0  0
  8  4  1  0  0  0  0
  8 24  2  0  0  0  0
  9  8  1  1  0  0  0
  9 10  1  0  0  0  0
  9 13  1  0  0  0  0
 10 11  1  0  0  0  0
 11 12  1  0  0  0  0
 14 15  1  0  0  0  0
 14 35  1  0  0  0  0
 15 17  1  0  0  0  0
 16 18  1  6  0  0  0
 16 25  1  0  0  0  0
 19 20  1  6  0  0  0
 19 27  1  0  0  0  0
 21 22  1  0  0  0  0
 21 23  1  0  0  0  0
 23 17  1  0  0  0  0
 25 26  1  1  0  0  0
 25 28  1  0  0  0  0
 27  2  1  1  0  0  0
 27 30  1  0  0  0  0
 28 29  1  0  0  0  0
 28 32  1  6  0  0  0
 30 31  1  6  0  0  0
 30 34  1  0  0  0  0
 32 33  2  0  0  0  0
 34 35  1  1  0  0  0
M  END
>  <CHROM.1>
-167.79970694,-88.19892721,165.33712224,-67.02635642,-176.26746286,170.60427921
52.66536685,-63.46366211,179.78525727,-59.51189424,-164.19663801,-124.14161941
169.22735278,3.44296280,-8.13414113,28.00729880,-2.07093373,0.62832684,2.65360723

>  <Name>
2f4t_lig

>  <RI>
0

>  <Rbt.Current_Directory>
/home/itssahil/PROJECTS/Mol_Feturizer/New_Systems/rnas/2f4t

>  <Rbt.Executable>
rbdock ($Id: //depot/dev/client3/rdock/2013.1/src/exe/rbdock.cxx#4 $)

>  <Rbt.Library>
libRbt.so (2013.1, Build901 2013/11/27)

>  <Rbt.Parameter_File>
/export/apps/rDock/src/rDock_2013.1_src/data/scripts/dock_solv.prm

>  <Rbt.Receptor>
prm/pocket_docking_3.prm

>  <SCORE>
-23.4967

>  <SCORE.INTER>
-14.9571

>  <SCORE.INTER.CONST>
1

>  <SCORE.INTER.POLAR>
-0.938083

>  <SCORE.INTER.ROT>
13

>  <SCORE.INTER.SOLV>
19.1828

>  <SCORE.INTER.VDW>
-25.5054

>  <SCORE.INTER.norm>
-0.427345

>  <SCORE.INTRA>
-8.5396

>  <SCORE.INTRA.DIHEDRAL>
-18.2277

>  <SCORE.INTRA.DIHEDRAL.0>
23.8882

>  <SCORE.INTRA.POLAR>
0

>  <SCORE.INTRA.POLAR.0>
0

>  <SCORE.INTRA.REPUL>
0

>  <SCORE.INTRA.REPUL.0>
0

>  <SCORE.INTRA.SOLV>
-0.947734

>  <SCORE.INTRA.SOLV.lig_0>
-97.6888

>  <SCORE.INTRA.VDW>
1.04809

>  <SCORE.INTRA.VDW.0>
-3.9206

>  <SCORE.INTRA.norm>
-0.243989

>  <SCORE.RESTR>
0

>  <SCORE.RESTR.CAVITY>
0

>  <SCORE.RESTR.norm>
0

>  <SCORE.SYSTEM>
0

>  <SCORE.SYSTEM.CONST>
0

>  <SCORE.SYSTEM.DIHEDRAL>
0

>  <SCORE.SYSTEM.SOLV>
0

>  <SCORE.SYSTEM.norm>
0

>  <SCORE.heavy>
35

>  <SCORE.norm>
-0.671334

>  <RMSD>
1.500

$$$$
2f4t_lig
 OpenBabel11021811433D
libRbt.so/2013.1/901 2013/11/27
 35 36  0  0  0  0  0  0  0  0999 V2000
    2.8819   -5.3744   25.8045 C   0  0  2  0  0  0  0  0  0  0  0  0
    2.2114   -6.2728   26.7482 O   0  0  0  0  0  0  0  0  0  0  0  0
    3.4508   -9.7593   28.9765 C   0  0  2  0  0  0  0  0  0  0  0  0
    3.8947  -11.1320   29.2616 N   0  0  0  0  0  0  0  0  0  0  0  0
    2.2152   -3.9788   25.9985 C   0  0  2  0  0  0  0  0  0  0  0  0
    2.3153   -3.5531   27.3748 N   0  0  0  0  0  0  0  0  0  0  0  0
    2.1795   -9.8064   28.0518 C   0  0  0  0  0  0  0  0  0  0  0  0
    2.6646  -11.9643   30.2170 C   0  0  0  0  0  0  0  0  0  0  0  0
    3.5909  -13.1593   30.1711 C   0  0  1  0  0  0  0  0  0  0  0  0
    3.5023  -13.8643   31.5265 C   0  0  0  0  0  0  0  0  0  0  0  0
    2.1222  -14.4372   31.8900 C   0  0  0  0  0  0  0  0  0  0  0  0
    2.2213  -15.0864   33.2007 N   0  0  0  0  0  0  0  0  0  0  0  0
    3.1546  -14.0962   29.2213 O   0  0  0  0  0  0  0  0  0  0  0  0
    6.8193   -9.4360   29.8014 C   0  0  0  0  0  0  0  0  0  0  0  0
    7.6724   -8.2576   30.2452 C   0  0  0  0  0  0  0  0  0  0  0  0
    0.7174   -4.0304   25.5443 C   0  0  1  0  0  0  0  0  0  0  0  0
    7.0710   -7.4739   31.3465 N   0  0  0  0  0  0  0  0  0  0  0  0
    0.0946   -2.7712   25.7079 O   0  0  0  0  0  0  0  0  0  0  0  0
    1.6702   -8.4000   27.7068 C   0  0  2  0  0  0  0  0  0  0  0  0
    0.5162   -8.4692   26.8160 N   0  0  0  0  0  0  0  0  0  0  0  0
    6.9178   -6.7506   33.7308 C   0  0  0  0  0  0  0  0  0  0  0  0
    5.4687   -6.1839   33.5857 N   0  0  0  0  0  0  0  0  0  0  0  0
    7.2308   -7.9256   32.7578 C   0  0  0  0  0  0  0  0  0  0  0  0
    1.7135  -11.6901   30.6163 O   0  0  0  0  0  0  0  0  0  0  0  0
    0.6809   -4.4667   24.0760 C   0  0  2  0  0  0  0  0  0  0  0  0
   -0.6524   -4.5221   23.5954 O   0  0  0  0  0  0  0  0  0  0  0  0
    2.7583   -7.5944   27.0420 C   0  0  2  0  0  0  0  0  0  0  0  0
    1.3710   -5.8522   23.9171 C   0  0  2  0  0  0  0  0  0  0  0  0
    2.7305   -5.8140   24.3984 O   0  0  0  0  0  0  0  0  0  0  0  0
    4.0353   -7.5160   27.9843 C   0  0  2  0  0  0  0  0  0  0  0  0
    5.0622   -6.7262   27.3128 O   0  0  0  0  0  0  0  0  0  0  0  0
    1.3868   -6.3048   22.5057 C   0  0  0  0  0  0  0  0  0  0  0  0
    0.3427   -7.1342   22.2874 N   0  0  0  0  0  0  0  0  0  0  0  0
    4.5548   -8.9706   28.2552 C   0  0  1  0  0  0  0  0  0  0  0  0
    5.6924   -8.9345   29.0567 O   0  0  0  0  0  0  0  0  0  0  0  0
  1  2  1  1  0  0  0
  1  5  1  0  0  0  0
  1 29  1  0  0  0  0
  3  4  1  6  0  0  0
  3  7  1  0  0  0  0
  3 34  1  0  0  0  0
  5  6  1  1  0  0  0
  5 16  1  0  0  0  0
  7 19  1  0  0  0  0
  8  4  1  0  0  0  0
  8 24  2  0  0  0  0
  9  8  1  1  0  0  0
  9 10  1  0  0  0  0
  9 13  1  0  0  0  0
 10 11  1  0  0  0  0
 11 12  1  0  0  0  0
 14 15  1  0  0  0  0
 14 35  1  0  0  0  0
 15 17  1  0  0  0  0
 16 18  1  6  0  0  0
 16 25  1  0  0  0  0
 19 20  1  6  0  0  0
 19 27  1  0  0  0  0
 21 22  1  0  0  0  0
 21 23  1  0  0  0  0
 23 17  1  0  0  0  0
 25 26  1  1  0  0  0
 25 28  1  0  0  0  0
 27  2  1  1  0  0  0
 27 30  1  0  0  0  0
 28 29  1  0  0  0  0
 28 32  1  6  0  0  0
 30 31  1  6  0  0  0
 30 34  1  0  0  0  0
 32 33  2  0  0  0  0
 34 35  1  1  0  0  0
M  END
>  <CHROM.1>
-167.27142387,-65.45999035,142.83342240,62.79313014,179.29345959,73.59368836
171.44354463,82.87080219,59.67903475,162.40094120,-163.98395061,-96.29426370
61.95767259,3.14882614,-8.21217932,28.18982093,-2.03600178,0.79855354,2.69347785

>  <Name>
2f4t_lig

>  <RI>
0

>  <Rbt.Current_Directory>
/home/itssahil/PROJECTS/Mol_Feturizer/New_Systems/rnas/2f4t

>  <Rbt.Executable>
rbdock ($Id: //depot/dev/client3/rdock/2013.1/src/exe/rbdock.cxx#4 $)

>  <Rbt.Library>
libRbt.so (2013.1, Build901 2013/11/27)

>  <Rbt.Parameter_File>
/export/apps/rDock/src/rDock_2013.1_src/data/scripts/dock_solv.prm

>  <Rbt.Receptor>
prm/pocket_docking_3.prm

>  <SCORE>
-24.0303

>  <SCORE.INTER>
-16.199

>  <SCORE.INTER.CONST>
1

>  <SCORE.INTER.POLAR>
-0.938083

>  <SCORE.INTER.ROT>
13

>  <SCORE.INTER.SOLV>
16.8364

>  <SCORE.INTER.VDW>
-25.5512

>  <SCORE.INTER.norm>
-0.462828

>  <SCORE.INTRA>
-7.83134

>  <SCORE.INTRA.DIHEDRAL>
-17.1714

>  <SCORE.INTRA.DIHEDRAL.0>
23.8882

>  <SCORE.INTRA.POLAR>
0

>  <SCORE.INTRA.POLAR.0>
0

>  <SCORE.INTRA.REPUL>
0

>  <SCORE.INTRA.REPUL.0>
0

>  <SCORE.INTRA.SOLV>
0.637276

>  <SCORE.INTRA.SOLV.lig_0>
-97.6888

>  <SCORE.INTRA.VDW>
0.435738

>  <SCORE.INTRA.VDW.0>
-3.9206

>  <SCORE.INTRA.norm>
-0.223753

>  <SCORE.RESTR>
0

>  <SCORE.RESTR.CAVITY>
0

>  <SCORE.RESTR.norm>
0

>  <SCORE.SYSTEM>
0

>  <SCORE.SYSTEM.CONST>
0

>  <SCORE.SYSTEM.DIHEDRAL>
0

>  <SCORE.SYSTEM.SOLV>
0

>  <SCORE.SYSTEM.norm>
0

>  <SCORE.heavy>
35

>  <SCORE.norm>
-0.686581

>  <RMSD>
1.503

$$$$
2f4t_lig
 OpenBabel11021811433D
libRbt.so/2013.1/901 2013/11/27
 35 36  0  0  0  0  0  0  0  0999 V2000
    2.3733   -6.1328   25.3948 C   0  0  2  0  0  0  0  0  0  0  0  0
    1.6384   -6.9450   26.3682 O   0  0  0  0  0  0  0  0  0  0  0  0
    3.5183   -8.4540   29.9524 C   0  0  2  0  0  0  0  0  0  0  0  0
    4.1249   -9.3982   30.9028 N   0  0  0  0  0  0  0  0  0  0  0  0
    1.9966   -4.6524   25.7050 C   0  0  2  0  0  0  0  0  0  0  0  0
    2.3003   -4.3264   27.0787 N   0  0  0  0  0  0  0  0  0  0  0  0
    2.1308   -9.0189   29.4737 C   0  0  0  0  0  0  0  0  0  0  0  0
    3.8379  -11.0528   30.3563 C   0  0  0  0  0  0  0  0  0  0  0  0
    4.6115  -11.4787   31.5844 C   0  0  1  0  0  0  0  0  0  0  0  0
    4.2216  -12.9251   31.8970 C   0  0  0  0  0  0  0  0  0  0  0  0
    2.7503  -13.1490   32.2848 C   0  0  0  0  0  0  0  0  0  0  0  0
    2.5673  -14.5676   32.6063 N   0  0  0  0  0  0  0  0  0  0  0  0
    5.9910  -11.4996   31.3262 O   0  0  0  0  0  0  0  0  0  0  0  0
    6.8698   -7.6898   29.9140 C   0  0  0  0  0  0  0  0  0  0  0  0
    6.5774   -6.8957   31.1779 C   0  0  0  0  0  0  0  0  0  0  0  0
    0.4797   -4.4085   25.4023 C   0  0  1  0  0  0  0  0  0  0  0  0
    7.7906   -6.3605   31.8337 N   0  0  0  0  0  0  0  0  0  0  0  0
    0.1180   -3.0683   25.6730 O   0  0  0  0  0  0  0  0  0  0  0  0
    1.4477   -8.0820   28.4677 C   0  0  2  0  0  0  0  0  0  0  0  0
    0.1827   -8.6464   28.0080 N   0  0  0  0  0  0  0  0  0  0  0  0
    7.1732   -5.9354   34.2148 C   0  0  0  0  0  0  0  0  0  0  0  0
    5.7334   -6.5366   34.1283 N   0  0  0  0  0  0  0  0  0  0  0  0
    7.6700   -5.3057   32.8798 C   0  0  0  0  0  0  0  0  0  0  0  0
    3.3352  -11.4899   29.5223 O   0  0  0  0  0  0  0  0  0  0  0  0
    0.2278   -4.7514   23.9303 C   0  0  2  0  0  0  0  0  0  0  0  0
   -1.1314   -4.5395   23.5847 O   0  0  0  0  0  0  0  0  0  0  0  0
    2.3429   -7.8446   27.2773 C   0  0  2  0  0  0  0  0  0  0  0  0
    0.6324   -6.2280   23.6530 C   0  0  2  0  0  0  0  0  0  0  0  0
    2.0141   -6.4616   23.9961 O   0  0  0  0  0  0  0  0  0  0  0  0
    3.7359   -7.2442   27.7507 C   0  0  2  0  0  0  0  0  0  0  0  0
    4.5714   -7.0226   26.5751 O   0  0  0  0  0  0  0  0  0  0  0  0
    0.4339   -6.5995   22.2319 C   0  0  0  0  0  0  0  0  0  0  0  0
   -0.6107   -7.4505   22.1308 N   0  0  0  0  0  0  0  0  0  0  0  0
    4.4223   -8.2641   28.7244 C   0  0  1  0  0  0  0  0  0  0  0  0
    5.6605   -7.7789   29.1357 O   0  0  0  0  0  0  0  0  0  0  0  0
  1  2  1  1  0  0  0
  1  5  1  0  0  0  0
  1 29  1  0  0  0  0
  3  4  1  1  0  0  0
  3  7  1  0  0  0  0
  3 34  1  0  0  0  0
  5  6  1  1  0  0  0
  5 16  1  0  0  0  0
  7 19  1  0  0  0  0
  8  4  1  0  0  0  0
  8 24  2  0  0  0  0
  9  8  1  6  0  0  0
  9 10  1  0  0  0  0
  9 13  1  0  0  0  0
 10 11  1  0  0  0  0
 11 12  1  0  0  0  0
 14 15  1  0  0  0  0
 14 35  1  0  0  0  0
 15 17  1  0  0  0  0
 16 18  1  6  0  0  0
 16 25  1  0  0  0  0
 19 20  1  6  0  0  0
 19 27  1  0  0  0  0
 21 22  1  0  0  0  0
 21 23  1  0  0  0  0
 23 17  1  0  0  0  0
 25 26  1  1  0  0  0
 25 28  1  0  0  0  0
 27  2  1  6  0  0  0
 27 30  1  0  0  0  0
 28 29  1  0  0  0  0
 28 32  1  6  0  0  0
 30 31  1  6  0  0  0
 30 34  1  0  0  0  0
 32 33  2  0  0  0  0
 34 35  1  1  0  0  0
M  END
>  <CHROM.1>
-122.01123337,39.69605179,158.53045700,-64.19831334,-177.50863917,-161.22512927
-83.49410801,165.49190084,-64.26216310,75.85346514,157.18654849,-109.05549925
47.82394601,3.20126324,-7.76887091,28.42248935,-2.33819487,0.82439005,2.68950709

>  <Name>
2f4t_lig

>  <RI>
0

>  <Rbt.Current_Directory>
/home/itssahil/PROJECTS/Mol_Feturizer/New_Systems/rnas/2f4t

>  <Rbt.Executable>
rbdock ($Id: //depot/dev/client3/rdock/2013.1/src/exe/rbdock.cxx#4 $)

>  <Rbt.Library>
libRbt.so (2013.1, Build901 2013/11/27)

>  <Rbt.Parameter_File>
/export/apps/rDock/src/rDock_2013.1_src/data/scripts/dock_solv.prm

>  <Rbt.Receptor>
prm/pocket_docking_2.prm

>  <SCORE>
-6.52115

>  <SCORE.INTER>
-8.00457

>  <SCORE.INTER.CONST>
1

>  <SCORE.INTER.POLAR>
-0.938083

>  <SCORE.INTER.ROT>
13

>  <SCORE.INTER.SOLV>
16.2871

>  <SCORE.INTER.VDW>
-19.9051

>  <SCORE.INTER.norm>
-0.228702

>  <SCORE.INTRA>
0.76237

>  <SCORE.INTRA.DIHEDRAL>
-7.15046

>  <SCORE.INTRA.DIHEDRAL.0>
23.8882

>  <SCORE.INTRA.POLAR>
0

>  <SCORE.INTRA.POLAR.0>
0

>  <SCORE.INTRA.REPUL>
0

>  <SCORE.INTRA.REPUL.0>
0

>  <SCORE.INTRA.SOLV>
3.11806

>  <SCORE.INTRA.SOLV.lig_0>
-97.6888

>  <SCORE.INTRA.VDW>
2.77857

>  <SCORE.INTRA.VDW.0>
-3.9206

>  <SCORE.INTRA.norm>
0.021782

>  <SCORE.RESTR>
0.72105

>  <SCORE.RESTR.CAVITY>
0.72105

>  <SCORE.RESTR.norm>
0.0206014

>  <SCORE.SYSTEM>
0

>  <SCORE.SYSTEM.CONST>
0

>  <SCORE.SYSTEM.DIHEDRAL>
0

>  <SCORE.SYSTEM.SOLV>
0

>  <SCORE.SYSTEM.norm>
0

>  <SCORE.heavy>
35

>  <SCORE.norm>
-0.186319

>  <RMSD>
1.505

$$$$
2f4t_lig
 OpenBabel11021811433D
libRbt.so/2013.1/901 2013/11/27
 35 36  0  0  0  0  0  0  0  0999 V2000
    2.5034   -5.3439   25.7510 C   0  0  2  0  0  0  0  0  0  0  0  0
    1.8515   -6.3211   26.6270 O   0  0  0  0  0  0  0  0  0  0  0  0
    3.2200   -9.7394   28.8852 C   0  0  2  0  0  0  0  0  0  0  0  0
    3.7687  -11.0715   29.1806 N   0  0  0  0  0  0  0  0  0  0  0  0
    1.6469   -4.0454   25.8500 C   0  0  2  0  0  0  0  0  0  0  0  0
    1.5373   -3.6107   27.2228 N   0  0  0  0  0  0  0  0  0  0  0  0
    2.0483   -9.8797   27.8455 C   0  0  0  0  0  0  0  0  0  0  0  0
    2.5702  -12.0216   30.0636 C   0  0  0  0  0  0  0  0  0  0  0  0
    3.5998  -13.1297   30.0551 C   0  0  1  0  0  0  0  0  0  0  0  0
    3.6161  -13.7553   31.4516 C   0  0  0  0  0  0  0  0  0  0  0  0
    4.5334  -14.9778   31.6228 C   0  0  0  0  0  0  0  0  0  0  0  0
    4.4211  -15.4505   33.0059 N   0  0  0  0  0  0  0  0  0  0  0  0
    3.2227  -14.1582   29.1775 O   0  0  0  0  0  0  0  0  0  0  0  0
    6.0154   -8.4510   30.4450 C   0  0  0  0  0  0  0  0  0  0  0  0
    7.5131   -8.3612   30.1950 C   0  0  0  0  0  0  0  0  0  0  0  0
    0.2282   -4.2885   25.2331 C   0  0  1  0  0  0  0  0  0  0  0  0
    8.2920   -7.9922   31.3974 N   0  0  0  0  0  0  0  0  0  0  0  0
   -0.5643   -3.1195   25.3088 O   0  0  0  0  0  0  0  0  0  0  0  0
    1.4369   -8.5185   27.4851 C   0  0  2  0  0  0  0  0  0  0  0  0
    0.3804   -8.6705   26.4897 N   0  0  0  0  0  0  0  0  0  0  0  0
    7.9513   -6.4702   33.3465 C   0  0  0  0  0  0  0  0  0  0  0  0
    6.4511   -6.8075   33.6248 N   0  0  0  0  0  0  0  0  0  0  0  0
    8.3474   -6.5712   31.8438 C   0  0  0  0  0  0  0  0  0  0  0  0
    1.5795  -11.8374   30.4155 O   0  0  0  0  0  0  0  0  0  0  0  0
    0.4122   -4.7255   23.7761 C   0  0  2  0  0  0  0  0  0  0  0  0
   -0.8410   -4.9512   23.1513 O   0  0  0  0  0  0  0  0  0  0  0  0
    2.4965   -7.5927   26.9417 C   0  0  2  0  0  0  0  0  0  0  0  0
    1.2865   -6.0111   23.7144 C   0  0  2  0  0  0  0  0  0  0  0  0
    2.5677   -5.7990   24.3431 O   0  0  0  0  0  0  0  0  0  0  0  0
    3.6693   -7.4214   28.0001 C   0  0  2  0  0  0  0  0  0  0  0  0
    4.6703   -6.5170   27.4441 O   0  0  0  0  0  0  0  0  0  0  0  0
    1.5177   -6.4576   22.3201 C   0  0  0  0  0  0  0  0  0  0  0  0
    0.8554   -7.6151   22.1025 N   0  0  0  0  0  0  0  0  0  0  0  0
    4.3021   -8.8273   28.2867 C   0  0  1  0  0  0  0  0  0  0  0  0
    5.3536   -8.7070   29.1910 O   0  0  0  0  0  0  0  0  0  0  0  0
  1  2  1  1  0  0  0
  1  5  1  0  0  0  0
  1 29  1  0  0  0  0
  3  4  1  6  0  0  0
  3  7  1  0  0  0  0
  3 34  1  0  0  0  0
  5  6  1  1  0  0  0
  5 16  1  0  0  0  0
  7 19  1  0  0  0  0
  8  4  1  0  0  0  0
  8 24  2  0  0  0  0
  9  8  1  1  0  0  0
  9 10  1  0  0  0  0
  9 13  1  0  0  0  0
 10 11  1  0  0  0  0
 11 12  1  0  0  0  0
 14 15  1  0  0  0  0
 14 35  1  0  0  0  0
 15 17  1  0  0  0  0
 16 18  1  6  0  0  0
 16 25  1  0  0  0  0
 19 20  1  6  0  0  0
 19 27  1  0  0  0  0
 21 22  1  0  0  0  0
 21 23  1  0  0  0  0
 23 17  1  0  0  0  0
 25 26  1  1  0  0  0
 25 28  1  0  0  0  0
 27  2  1  1  0  0  0
 27 30  1  0  0  0  0
 28 29  1  0  0  0  0
 28 32  1  6  0  0  0
 30 31  1  6  0  0  0
 30 34  1  0  0  0  0
 32 33  2  0  0  0  0
 34 35  1  1  0  0  0
M  END
>  <CHROM.1>
-170.51304589,-67.98337045,136.53358236,175.75952229,-179.65402798,175.37505459
-167.54487527,-78.62668065,-67.78605820,127.52453464,-162.94374212,-111.05829181
-52.12651456,3.20920110,-8.25574180,28.04927855,-2.19509038,0.77699633,2.77547145

>  <Name>
2f4t_lig

>  <RI>
0

>  <Rbt.Current_Directory>
/home/itssahil/PROJECTS/Mol_Feturizer/New_Systems/rnas/2f4t

>  <Rbt.Executable>
rbdock ($Id: //depot/dev/client3/rdock/2013.1/src/exe/rbdock.cxx#4 $)

>  <Rbt.Library>
libRbt.so (2013.1, Build901 2013/11/27)

>  <Rbt.Parameter_File>
/export/apps/rDock/src/rDock_2013.1_src/data/scripts/dock_solv.prm

>  <Rbt.Receptor>
prm/pocket_docking_4.prm

>  <SCORE>
-23.7009

>  <SCORE.INTER>
-16.1328

>  <SCORE.INTER.CONST>
1

>  <SCORE.INTER.POLAR>
-0.938083

>  <SCORE.INTER.ROT>
13

>  <SCORE.INTER.SOLV>
19.9145

>  <SCORE.INTER.VDW>
-26.5331

>  <SCORE.INTER.norm>
-0.460938

>  <SCORE.INTRA>
-7.56802

>  <SCORE.INTRA.DIHEDRAL>
-16.2352

>  <SCORE.INTRA.DIHEDRAL.0>
23.8882

>  <SCORE.INTRA.POLAR>
0

>  <SCORE.INTRA.POLAR.0>
0

>  <SCORE.INTRA.REPUL>
0

>  <SCORE.INTRA.REPUL.0>
0

>  <SCORE.INTRA.SOLV>
0.905935

>  <SCORE.INTRA.SOLV.lig_0>
-97.6888

>  <SCORE.INTRA.VDW>
0.0965898

>  <SCORE.INTRA.VDW.0>
-3.9206

>  <SCORE.INTRA.norm>
-0.216229

>  <SCORE.RESTR>
0

>  <SCORE.RESTR.CAVITY>
0

>  <SCORE.RESTR.norm>
0

>  <SCORE.SYSTEM>
0

>  <SCORE.SYSTEM.CONST>
0

>  <SCORE.SYSTEM.DIHEDRAL>
0

>  <SCORE.SYSTEM.SOLV>
0

>  <SCORE.SYSTEM.norm>
0

>  <SCORE.heavy>
35

>  <SCORE.norm>
-0.677167

>  <RMSD>
1.515

$$$$
2f4t_lig
 OpenBabel11021811433D
libRbt.so/2013.1/901 2013/11/27
 35 36  0  0  0  0  0  0  0  0999 V2000
    2.7708   -5.3784   25.8181 C   0  0  2  0  0  0  0  0  0  0  0  0
    2.0874   -6.3084   26.7211 O   0  0  0  0  0  0  0  0  0  0  0  0
    3.2467   -9.8641   28.8822 C   0  0  2  0  0  0  0  0  0  0  0  0
    3.7023  -11.2384   29.1397 N   0  0  0  0  0  0  0  0  0  0  0  0
    2.0395   -4.0116   25.9815 C   0  0  2  0  0  0  0  0  0  0  0  0
    2.0490   -3.5905   27.3628 N   0  0  0  0  0  0  0  0  0  0  0  0
    2.0477   -9.8969   27.8649 C   0  0  0  0  0  0  0  0  0  0  0  0
    2.3450  -12.2137   29.7100 C   0  0  0  0  0  0  0  0  0  0  0  0
    3.3326  -13.3578   29.7731 C   0  0  1  0  0  0  0  0  0  0  0  0
    3.9972  -13.3184   31.1510 C   0  0  0  0  0  0  0  0  0  0  0  0
    3.0813  -13.6486   32.3416 C   0  0  0  0  0  0  0  0  0  0  0  0
    2.1390  -12.5402   32.5219 N   0  0  0  0  0  0  0  0  0  0  0  0
    2.6730  -14.5947   29.6996 O   0  0  0  0  0  0  0  0  0  0  0  0
    6.5305   -9.5076   29.9748 C   0  0  0  0  0  0  0  0  0  0  0  0
    7.1805   -8.3453   30.7098 C   0  0  0  0  0  0  0  0  0  0  0  0
    0.5713   -4.1199   25.4476 C   0  0  1  0  0  0  0  0  0  0  0  0
    6.2795   -7.6780   31.6749 N   0  0  0  0  0  0  0  0  0  0  0  0
   -0.1091   -2.8874   25.5825 O   0  0  0  0  0  0  0  0  0  0  0  0
    1.5304   -8.4876   27.5444 C   0  0  2  0  0  0  0  0  0  0  0  0
    0.4463   -8.5413   26.5687 N   0  0  0  0  0  0  0  0  0  0  0  0
    5.3193   -5.7532   32.9416 C   0  0  0  0  0  0  0  0  0  0  0  0
    5.3617   -4.2230   33.2557 N   0  0  0  0  0  0  0  0  0  0  0  0
    6.3935   -6.2108   31.9110 C   0  0  0  0  0  0  0  0  0  0  0  0
    1.3130  -12.0215   29.9026 O   0  0  0  0  0  0  0  0  0  0  0  0
    0.6307   -4.5485   23.9778 C   0  0  2  0  0  0  0  0  0  0  0  0
   -0.6719   -4.6539   23.4264 O   0  0  0  0  0  0  0  0  0  0  0  0
    2.6438   -7.6299   26.9971 C   0  0  2  0  0  0  0  0  0  0  0  0
    1.3830   -5.9046   23.8507 C   0  0  2  0  0  0  0  0  0  0  0  0
    2.7124   -5.8153   24.4042 O   0  0  0  0  0  0  0  0  0  0  0  0
    3.8466   -7.5666   28.0336 C   0  0  2  0  0  0  0  0  0  0  0  0
    4.8999   -6.7257   27.4745 O   0  0  0  0  0  0  0  0  0  0  0  0
    1.4921   -6.3478   22.4405 C   0  0  0  0  0  0  0  0  0  0  0  0
    0.7539   -7.4652   22.2615 N   0  0  0  0  0  0  0  0  0  0  0  0
    4.3806   -9.0205   28.2790 C   0  0  1  0  0  0  0  0  0  0  0  0
    5.4556   -8.9960   29.1631 O   0  0  0  0  0  0  0  0  0  0  0  0
  1  2  1  1  0  0  0
  1  5  1  0  0  0  0
  1 29  1  0  0  0  0
  3  4  1  6  0  0  0
  3  7  1  0  0  0  0
  3 34  1  0  0  0  0
  5  6  1  1  0  0  0
  5 16  1  0  0  0  0
  7 19  1  0  0  0  0
  8  4  1  0  0  0  0
  8 24  2  0  0  0  0
  9  8  1  1  0  0  0
  9 10  1  0  0  0  0
  9 13  1  0  0  0  0
 10 11  1  0  0  0  0
 11 12  1  0  0  0  0
 14 15  1  0  0  0  0
 14 35  1  0  0  0  0
 15 17  1  0  0  0  0
 16 18  1  6  0  0  0
 16 25  1  0  0  0  0
 19 20  1  6  0  0  0
 19 27  1  0  0  0  0
 21 22  1  0  0  0  0
 21 23  1  0  0  0  0
 23 17  1  0  0  0  0
 25 26  1  1  0  0  0
 25 28  1  0  0  0  0
 27  2  1  1  0  0  0
 27 30  1  0  0  0  0
 28 29  1  0  0  0  0
 28 32  1  6  0  0  0
 30 31  1  6  0  0  0
 30 34  1  0  0  0  0
 32 33  2  0  0  0  0
 34 35  1  1  0  0  0
M  END
>  <CHROM.1>
-169.71700129,-55.88094179,87.83466573,67.80707569,-70.49802300,64.44218237
-178.60151542,-146.46064346,179.94419838,178.79345054,-161.03543419,-113.08491443
60.81279124,2.96413067,-8.06344611,28.08045321,-2.11175686,0.92829613,2.80297028

>  <Name>
2f4t_lig

>  <RI>
0

>  <Rbt.Current_Directory>
/home/itssahil/PROJECTS/Mol_Feturizer/New_Systems/rnas/2f4t

>  <Rbt.Executable>
rbdock ($Id: //depot/dev/client3/rdock/2013.1/src/exe/rbdock.cxx#4 $)

>  <Rbt.Library>
libRbt.so (2013.1, Build901 2013/11/27)

>  <Rbt.Parameter_File>
/export/apps/rDock/src/rDock_2013.1_src/data/scripts/dock_solv.prm

>  <Rbt.Receptor>
prm/pocket_docking_3.prm

>  <SCORE>
-21.0784

>  <SCORE.INTER>
-14.1953

>  <SCORE.INTER.CONST>
1

>  <SCORE.INTER.POLAR>
-0.938083

>  <SCORE.INTER.ROT>
13

>  <SCORE.INTER.SOLV>
16.0764

>  <SCORE.INTER.VDW>
-23.962

>  <SCORE.INTER.norm>
-0.40558

>  <SCORE.INTRA>
-6.88308

>  <SCORE.INTRA.DIHEDRAL>
-17.9707

>  <SCORE.INTRA.DIHEDRAL.0>
23.8882

>  <SCORE.INTRA.POLAR>
0

>  <SCORE.INTRA.POLAR.0>
0

>  <SCORE.INTRA.REPUL>
0

>  <SCORE.INTRA.REPUL.0>
0

>  <SCORE.INTRA.SOLV>
3.35781

>  <SCORE.INTRA.SOLV.lig_0>
-97.6888

>  <SCORE.INTRA.VDW>
0.423362

>  <SCORE.INTRA.VDW.0>
-3.9206

>  <SCORE.INTRA.norm>
-0.196659

>  <SCORE.RESTR>
0

>  <SCORE.RESTR.CAVITY>
0

>  <SCORE.RESTR.norm>
0

>  <SCORE.SYSTEM>
0

>  <SCORE.SYSTEM.CONST>
0

>  <SCORE.SYSTEM.DIHEDRAL>
0

>  <SCORE.SYSTEM.SOLV>
0

>  <SCORE.SYSTEM.norm>
0

>  <SCORE.heavy>
35

>  <SCORE.norm>
-0.602239

>  <RMSD>
1.534

$$$$
2f4t_lig
 OpenBabel11021811433D
libRbt.so/2013.1/901 2013/11/27
 35 36  0  0  0  0  0  0  0  0999 V2000
    2.8557   -5.4008   26.0383 C   0  0  2  0  0  0  0  0  0  0  0  0
    2.1798   -6.3472   26.9297 O   0  0  0  0  0  0  0  0  0  0  0  0
    3.2321  -10.0468   28.8950 C   0  0  2  0  0  0  0  0  0  0  0  0
    3.6630  -11.4409   29.0784 N   0  0  0  0  0  0  0  0  0  0  0  0
    2.1283   -4.0364   26.2356 C   0  0  2  0  0  0  0  0  0  0  0  0
    2.1521   -3.6424   27.6247 N   0  0  0  0  0  0  0  0  0  0  0  0
    2.0625   -9.9991   27.8446 C   0  0  0  0  0  0  0  0  0  0  0  0
    2.4759  -12.3016   30.0628 C   0  0  0  0  0  0  0  0  0  0  0  0
    3.3718  -13.5089   29.8958 C   0  0  1  0  0  0  0  0  0  0  0  0
    3.1211  -14.4378   31.0859 C   0  0  0  0  0  0  0  0  0  0  0  0
    1.7264  -15.0831   31.1445 C   0  0  0  0  0  0  0  0  0  0  0  0
    1.6532  -15.9184   32.3471 N   0  0  0  0  0  0  0  0  0  0  0  0
    3.0165  -14.2432   28.7536 O   0  0  0  0  0  0  0  0  0  0  0  0
    6.6945   -8.8712   29.9083 C   0  0  0  0  0  0  0  0  0  0  0  0
    6.4454   -7.7377   30.8915 C   0  0  0  0  0  0  0  0  0  0  0  0
    0.6547   -4.1322   25.7142 C   0  0  1  0  0  0  0  0  0  0  0  0
    7.6740   -7.2522   31.5575 N   0  0  0  0  0  0  0  0  0  0  0  0
   -0.0224   -2.9015   25.8799 O   0  0  0  0  0  0  0  0  0  0  0  0
    1.5722   -8.5654   27.5987 C   0  0  2  0  0  0  0  0  0  0  0  0
    0.5161   -8.5428   26.5916 N   0  0  0  0  0  0  0  0  0  0  0  0
    6.9373   -5.8049   33.4533 C   0  0  0  0  0  0  0  0  0  0  0  0
    7.5341   -4.4944   32.8464 N   0  0  0  0  0  0  0  0  0  0  0  0
    7.7070   -7.0938   33.0391 C   0  0  0  0  0  0  0  0  0  0  0  0
    1.5571  -12.0322   30.5344 O   0  0  0  0  0  0  0  0  0  0  0  0
    0.6989   -4.5320   24.2358 C   0  0  2  0  0  0  0  0  0  0  0  0
   -0.6092   -4.6248   23.6953 O   0  0  0  0  0  0  0  0  0  0  0  0
    2.7115   -7.6911   27.1376 C   0  0  2  0  0  0  0  0  0  0  0  0
    1.4477   -5.8864   24.0748 C   0  0  2  0  0  0  0  0  0  0  0  0
    2.7826   -5.8098   24.6167 O   0  0  0  0  0  0  0  0  0  0  0  0
    3.8846   -7.7097   28.2093 C   0  0  2  0  0  0  0  0  0  0  0  0
    4.9639   -6.8506   27.7337 O   0  0  0  0  0  0  0  0  0  0  0  0
    1.5422   -6.3021   22.6552 C   0  0  0  0  0  0  0  0  0  0  0  0
    0.6914   -7.3271   22.4288 N   0  0  0  0  0  0  0  0  0  0  0  0
    4.3933   -9.1835   28.3778 C   0  0  1  0  0  0  0  0  0  0  0  0
    5.4426   -9.2294   29.2914 O   0  0  0  0  0  0  0  0  0  0  0  0
  1  2  1  1  0  0  0
  1  5  1  0  0  0  0
  1 29  1  0  0  0  0
  3  4  1  6  0  0  0
  3  7  1  0  0  0  0
  3 34  1  0  0  0  0
  5  6  1  1  0  0  0
  5 16  1  0  0  0  0
  7 19  1  0  0  0  0
  8  4  1  0  0  0  0
  8 24  2  0  0  0  0
  9  8  1  1  0  0  0
  9 10  1  0  0  0  0
  9 13  1  0  0  0  0
 10 11  1  0  0  0  0
 11 12  1  0  0  0  0
 14 15  1  0  0  0  0
 14 35  1  0  0  0  0
 15 17  1  0  0  0  0
 16 18  1  6  0  0  0
 16 25  1  0  0  0  0
 19 20  1  6  0  0  0
 19 27  1  0  0  0  0
 21 22  1  0  0  0  0
 21 23  1  0  0  0  0
 23 17  1  0  0  0  0
 25 26  1  1  0  0  0
 25 28  1  0  0  0  0
 27  2  1  1  0  0  0
 27 30  1  0  0  0  0
 28 29  1  0  0  0  0
 28 32  1  6  0  0  0
 30 31  1  6  0  0  0
 30 34  1  0  0  0  0
 32 33  2  0  0  0  0
 34 35  1  1  0  0  0
M  END
>  <CHROM.1>
-171.88349610,-75.46876340,154.81727984,66.92097399,-179.19646091,-178.08758029
86.69084654,-130.76111748,-60.35188931,-76.49233022,-157.11479984,-106.61577579
-168.93313753,3.10849286,-8.24866820,28.18213952,-1.97368343,0.80640215,2.73942062

>  <Name>
2f4t_lig

>  <RI>
0

>  <Rbt.Current_Directory>
/home/itssahil/PROJECTS/Mol_Feturizer/New_Systems/rnas/2f4t

>  <Rbt.Executable>
rbdock ($Id: //depot/dev/client3/rdock/2013.1/src/exe/rbdock.cxx#4 $)

>  <Rbt.Library>
libRbt.so (2013.1, Build901 2013/11/27)

>  <Rbt.Parameter_File>
/export/apps/rDock/src/rDock_2013.1_src/data/scripts/dock_solv.prm

>  <Rbt.Receptor>
prm/pocket_docking_4.prm

>  <SCORE>
-21.2183

>  <SCORE.INTER>
-15.2547

>  <SCORE.INTER.CONST>
1

>  <SCORE.INTER.POLAR>
-0.938083

>  <SCORE.INTER.ROT>
13

>  <SCORE.INTER.SOLV>
15.8746

>  <SCORE.INTER.VDW>
-24.6011

>  <SCORE.INTER.norm>
-0.435849

>  <SCORE.INTRA>
-5.96362

>  <SCORE.INTRA.DIHEDRAL>
-13.7192

>  <SCORE.INTRA.DIHEDRAL.0>
23.8882

>  <SCORE.INTRA.POLAR>
0

>  <SCORE.INTRA.POLAR.0>
0

>  <SCORE.INTRA.REPUL>
0

>  <SCORE.INTRA.REPUL.0>
0

>  <SCORE.INTRA.SOLV>
0.920667

>  <SCORE.INTRA.SOLV.lig_0>
-97.6888

>  <SCORE.INTRA.VDW>
0.435655

>  <SCORE.INTRA.VDW.0>
-3.9206

>  <SCORE.INTRA.norm>
-0.170389

>  <SCORE.RESTR>
0

>  <SCORE.RESTR.CAVITY>
0

>  <SCORE.RESTR.norm>
0

>  <SCORE.SYSTEM>
0

>  <SCORE.SYSTEM.CONST>
0

>  <SCORE.SYSTEM.DIHEDRAL>
0

>  <SCORE.SYSTEM.SOLV>
0

>  <SCORE.SYSTEM.norm>
0

>  <SCORE.heavy>
35

>  <SCORE.norm>
-0.606238

>  <RMSD>
1.541

$$$$
2f4t_lig
 OpenBabel11021811433D
libRbt.so/2013.1/901 2013/11/27
 35 36  0  0  0  0  0  0  0  0999 V2000
    2.5867   -5.3020   26.0236 C   0  0  2  0  0  0  0  0  0  0  0  0
    1.9287   -6.3117   26.8571 O   0  0  0  0  0  0  0  0  0  0  0  0
    3.1776   -9.8781   28.9496 C   0  0  2  0  0  0  0  0  0  0  0  0
    3.7250  -11.2225   29.1851 N   0  0  0  0  0  0  0  0  0  0  0  0
    1.7508   -3.9977   26.1954 C   0  0  2  0  0  0  0  0  0  0  0  0
    1.6610   -3.6297   27.5890 N   0  0  0  0  0  0  0  0  0  0  0  0
    2.0929   -9.9512   27.8131 C   0  0  0  0  0  0  0  0  0  0  0  0
    2.6498  -12.1178   30.2627 C   0  0  0  0  0  0  0  0  0  0  0  0
    3.6317  -13.2594   30.1190 C   0  0  1  0  0  0  0  0  0  0  0  0
    3.6275  -14.0403   31.4351 C   0  0  0  0  0  0  0  0  0  0  0  0
    4.2657  -13.3234   32.6367 C   0  0  0  0  0  0  0  0  0  0  0  0
    4.1928  -14.2138   33.7989 N   0  0  0  0  0  0  0  0  0  0  0  0
    3.2081  -14.1647   29.1335 O   0  0  0  0  0  0  0  0  0  0  0  0
    5.8201   -8.6818   30.8185 C   0  0  0  0  0  0  0  0  0  0  0  0
    7.3353   -8.6195   30.7012 C   0  0  0  0  0  0  0  0  0  0  0  0
    0.3227   -4.1893   25.5821 C   0  0  1  0  0  0  0  0  0  0  0  0
    7.8272   -7.3886   30.0443 N   0  0  0  0  0  0  0  0  0  0  0  0
   -0.4514   -3.0141   25.7235 O   0  0  0  0  0  0  0  0  0  0  0  0
    1.4875   -8.5735   27.5102 C   0  0  2  0  0  0  0  0  0  0  0  0
    0.5144   -8.6604   26.4258 N   0  0  0  0  0  0  0  0  0  0  0  0
    8.5634   -5.9396   31.9390 C   0  0  0  0  0  0  0  0  0  0  0  0
   10.0847   -6.0239   31.5920 N   0  0  0  0  0  0  0  0  0  0  0  0
    7.6305   -6.0638   30.6982 C   0  0  0  0  0  0  0  0  0  0  0  0
    1.7316  -11.8953   30.7593 O   0  0  0  0  0  0  0  0  0  0  0  0
    0.4860   -4.5564   24.1035 C   0  0  2  0  0  0  0  0  0  0  0  0
   -0.7765   -4.7327   23.4814 O   0  0  0  0  0  0  0  0  0  0  0  0
    2.5695   -7.5962   27.1241 C   0  0  2  0  0  0  0  0  0  0  0  0
    1.3403   -5.8499   23.9694 C   0  0  2  0  0  0  0  0  0  0  0  0
    2.6305   -5.6878   24.5944 O   0  0  0  0  0  0  0  0  0  0  0  0
    3.6533   -7.4936   28.2816 C   0  0  2  0  0  0  0  0  0  0  0  0
    4.6784   -6.5373   27.8767 O   0  0  0  0  0  0  0  0  0  0  0  0
    1.5512   -6.2303   22.5524 C   0  0  0  0  0  0  0  0  0  0  0  0
    0.8866   -7.3772   22.2906 N   0  0  0  0  0  0  0  0  0  0  0  0
    4.2867   -8.9100   28.5094 C   0  0  1  0  0  0  0  0  0  0  0  0
    5.2624   -8.8477   29.5003 O   0  0  0  0  0  0  0  0  0  0  0  0
  1  2  1  1  0  0  0
  1  5  1  0  0  0  0
  1 29  1  0  0  0  0
  3  4  1  6  0  0  0
  3  7  1  0  0  0  0
  3 34  1  0  0  0  0
  5  6  1  1  0  0  0
  5 16  1  0  0  0  0
  7 19  1  0  0  0  0
  8  4  1  0  0  0  0
  8 24  2  0  0  0  0
  9  8  1  1  0  0  0
  9 10  1  0  0  0  0
  9 13  1  0  0  0  0
 10 11  1  0  0  0  0
 11 12  1  0  0  0  0
 14 15  1  0  0  0  0
 14 35  1  0  0  0  0
 15 17  1  0  0  0  0
 16 18  1  6  0  0  0
 16 25  1  0  0  0  0
 19 20  1  6  0  0  0
 19 27  1  0  0  0  0
 21 22  1  0  0  0  0
 21 23  1  0  0  0  0
 23 17  1  0  0  0  0
 25 26  1  1  0  0  0
 25 28  1  0  0  0  0
 27  2  1  1  0  0  0
 27 30  1  0  0  0  0
 28 29  1  0  0  0  0
 28 32  1  6  0  0  0
 30 31  1  6  0  0  0
 30 34  1  0  0  0  0
 32 33  2  0  0  0  0
 34 35  1  1  0  0  0
M  END
>  <CHROM.1>
-169.27386037,-82.70276246,147.98619354,-70.47831029,-179.23044557,69.12175389
-170.11882461,65.49910180,61.46486558,71.42306997,-158.11161184,-112.01123108
-52.10654856,3.30805033,-8.11453046,28.11728472,-2.11178313,0.63910729,2.68250192

>  <Name>
2f4t_lig

>  <RI>
0

>  <Rbt.Current_Directory>
/home/itssahil/PROJECTS/Mol_Feturizer/New_Systems/rnas/2f4t

>  <Rbt.Executable>
rbdock ($Id: //depot/dev/client3/rdock/2013.1/src/exe/rbdock.cxx#4 $)

>  <Rbt.Library>
libRbt.so (2013.1, Build901 2013/11/27)

>  <Rbt.Parameter_File>
/export/apps/rDock/src/rDock_2013.1_src/data/scripts/dock_solv.prm

>  <Rbt.Receptor>
prm/pocket_docking_4.prm

>  <SCORE>
-21.4697

>  <SCORE.INTER>
-13.6148

>  <SCORE.INTER.CONST>
1

>  <SCORE.INTER.POLAR>
-0.938083

>  <SCORE.INTER.ROT>
13

>  <SCORE.INTER.SOLV>
19.4451

>  <SCORE.INTER.VDW>
-24.6979

>  <SCORE.INTER.norm>
-0.388994

>  <SCORE.INTRA>
-7.85494

>  <SCORE.INTRA.DIHEDRAL>
-16.7041

>  <SCORE.INTRA.DIHEDRAL.0>
23.8882

>  <SCORE.INTRA.POLAR>
0

>  <SCORE.INTRA.POLAR.0>
0

>  <SCORE.INTRA.REPUL>
0

>  <SCORE.INTRA.REPUL.0>
0

>  <SCORE.INTRA.SOLV>
1.28036

>  <SCORE.INTRA.SOLV.lig_0>
-97.6888

>  <SCORE.INTRA.VDW>
-0.143059

>  <SCORE.INTRA.VDW.0>
-3.9206

>  <SCORE.INTRA.norm>
-0.224427

>  <SCORE.RESTR>
0

>  <SCORE.RESTR.CAVITY>
0

>  <SCORE.RESTR.norm>
0

>  <SCORE.SYSTEM>
0

>  <SCORE.SYSTEM.CONST>
0

>  <SCORE.SYSTEM.DIHEDRAL>
0

>  <SCORE.SYSTEM.SOLV>
0

>  <SCORE.SYSTEM.norm>
0

>  <SCORE.heavy>
35

>  <SCORE.norm>
-0.613421

>  <RMSD>
1.565

$$$$
2f4t_lig
 OpenBabel11021811433D
libRbt.so/2013.1/901 2013/11/27
 35 36  0  0  0  0  0  0  0  0999 V2000
    3.1764   -5.2645   26.1906 C   0  0  2  0  0  0  0  0  0  0  0  0
    2.5122   -6.0925   27.2008 O   0  0  0  0  0  0  0  0  0  0  0  0
    2.9467   -9.9607   29.0731 C   0  0  2  0  0  0  0  0  0  0  0  0
    3.2488  -11.3904   29.2386 N   0  0  0  0  0  0  0  0  0  0  0  0
    2.6808   -3.8081   26.4411 C   0  0  2  0  0  0  0  0  0  0  0  0
    2.9596   -3.4012   27.7984 N   0  0  0  0  0  0  0  0  0  0  0  0
    2.0005   -9.7705   27.8313 C   0  0  0  0  0  0  0  0  0  0  0  0
    1.8174  -12.2308   29.8415 C   0  0  0  0  0  0  0  0  0  0  0  0
    2.6640  -13.4834   29.7926 C   0  0  1  0  0  0  0  0  0  0  0  0
    3.2995  -13.6652   31.1728 C   0  0  0  0  0  0  0  0  0  0  0  0
    4.3002  -14.8264   31.2972 C   0  0  0  0  0  0  0  0  0  0  0  0
    3.5658  -16.0873   31.1562 N   0  0  0  0  0  0  0  0  0  0  0  0
    1.8670  -14.6198   29.5836 O   0  0  0  0  0  0  0  0  0  0  0  0
    5.9310  -10.0231   30.8647 C   0  0  0  0  0  0  0  0  0  0  0  0
    6.3761   -9.0389   31.9356 C   0  0  0  0  0  0  0  0  0  0  0  0
    1.1484   -3.7014   26.1366 C   0  0  1  0  0  0  0  0  0  0  0  0
    7.2482   -7.9602   31.4215 N   0  0  0  0  0  0  0  0  0  0  0  0
    0.6791   -2.3849   26.3534 O   0  0  0  0  0  0  0  0  0  0  0  0
    1.6544   -8.2936   27.5964 C   0  0  2  0  0  0  0  0  0  0  0  0
    0.8097   -8.1390   26.4162 N   0  0  0  0  0  0  0  0  0  0  0  0
    6.7610   -6.0373   32.9370 C   0  0  0  0  0  0  0  0  0  0  0  0
    7.3271   -4.8717   33.8104 N   0  0  0  0  0  0  0  0  0  0  0  0
    7.8595   -6.9812   32.3646 C   0  0  0  0  0  0  0  0  0  0  0  0
    0.8272  -11.9307   30.1034 O   0  0  0  0  0  0  0  0  0  0  0  0
    0.9225   -4.1249   24.6816 C   0  0  2  0  0  0  0  0  0  0  0  0
   -0.4502   -4.0391   24.3348 O   0  0  0  0  0  0  0  0  0  0  0  0
    2.9117   -7.4809   27.4123 C   0  0  2  0  0  0  0  0  0  0  0  0
    1.4457   -5.5740   24.4636 C   0  0  2  0  0  0  0  0  0  0  0  0
    2.8425   -5.6797   24.8087 O   0  0  0  0  0  0  0  0  0  0  0  0
    3.8591   -7.6435   28.6775 C   0  0  2  0  0  0  0  0  0  0  0  0
    5.0593   -6.8408   28.4671 O   0  0  0  0  0  0  0  0  0  0  0  0
    1.2754   -6.0195   23.0602 C   0  0  0  0  0  0  0  0  0  0  0  0
    0.2549   -6.9022   22.9889 N   0  0  0  0  0  0  0  0  0  0  0  0
    4.2353   -9.1575   28.8373 C   0  0  1  0  0  0  0  0  0  0  0  0
    5.0894   -9.3297   29.9230 O   0  0  0  0  0  0  0  0  0  0  0  0
  1  2  1  1  0  0  0
  1  5  1  0  0  0  0
  1 29  1  0  0  0  0
  3  4  1  6  0  0  0
  3  7  1  0  0  0  0
  3 34  1  0  0  0  0
  5  6  1  1  0  0  0
  5 16  1  0  0  0  0
  7 19  1  0  0  0  0
  8  4  1  0  0  0  0
  8 24  2  0  0  0  0
  9  8  1  1  0  0  0
  9 10  1  0  0  0  0
  9 13  1  0  0  0  0
 10 11  1  0  0  0  0
 11 12  1  0  0  0  0
 14 15  1  0  0  0  0
 14 35  1  0  0  0  0
 15 17  1  0  0  0  0
 16 18  1  6  0  0  0
 16 25  1  0  0  0  0
 19 20  1  6  0  0  0
 19 27  1  0  0  0  0
 21 22  1  0  0  0  0
 21 23  1  0  0  0  0
 23 17  1  0  0  0  0
 25 26  1  1  0  0  0
 25 28  1  0  0  0  0
 27  2  1  1  0  0  0
 27 30  1  0  0  0  0
 28 29  1  0  0  0  0
 28 32  1  6  0  0  0
 30 31  1  6  0  0  0
 30 34  1  0  0  0  0
 32 33  2  0  0  0  0
 34 35  1  1  0  0  0
M  END
>  <CHROM.1>
-169.58723080,-72.26912354,92.96270783,-175.00715243,-67.35921652,-65.40425236
-174.22756405,-174.95813347,-173.39741088,-70.42523357,-138.35470990,-105.74624028
61.47086266,3.17074050,-8.18612603,28.41198245,-1.98456784,0.81654860,2.81313272

>  <Name>
2f4t_lig

>  <RI>
0

>  <Rbt.Current_Directory>
/home/itssahil/PROJECTS/Mol_Feturizer/New_Systems/rnas/2f4t

>  <Rbt.Executable>
rbdock ($Id: //depot/dev/client3/rdock/2013.1/src/exe/rbdock.cxx#4 $)

>  <Rbt.Library>
libRbt.so (2013.1, Build901 2013/11/27)

>  <Rbt.Parameter_File>
/export/apps/rDock/src/rDock_2013.1_src/data/scripts/dock_solv.prm

>  <Rbt.Receptor>
prm/pocket_docking_4.prm

>  <SCORE>
-21.2277

>  <SCORE.INTER>
-15.1946

>  <SCORE.INTER.CONST>
1

>  <SCORE.INTER.POLAR>
-0.938083

>  <SCORE.INTER.ROT>
13

>  <SCORE.INTER.SOLV>
15.1057

>  <SCORE.INTER.VDW>
-24.3047

>  <SCORE.INTER.norm>
-0.434133

>  <SCORE.INTRA>
-6.03301

>  <SCORE.INTRA.DIHEDRAL>
-14.0917

>  <SCORE.INTRA.DIHEDRAL.0>
23.8882

>  <SCORE.INTRA.POLAR>
0

>  <SCORE.INTRA.POLAR.0>
0

>  <SCORE.INTRA.REPUL>
0

>  <SCORE.INTRA.REPUL.0>
0

>  <SCORE.INTRA.SOLV>
3.1456

>  <SCORE.INTRA.SOLV.lig_0>
-97.6888

>  <SCORE.INTRA.VDW>
-0.559943

>  <SCORE.INTRA.VDW.0>
-3.9206

>  <SCORE.INTRA.norm>
-0.172372

>  <SCORE.RESTR>
0

>  <SCORE.RESTR.CAVITY>
0

>  <SCORE.RESTR.norm>
0

>  <SCORE.SYSTEM>
0

>  <SCORE.SYSTEM.CONST>
0

>  <SCORE.SYSTEM.DIHEDRAL>
0

>  <SCORE.SYSTEM.SOLV>
0

>  <SCORE.SYSTEM.norm>
0

>  <SCORE.heavy>
35

>  <SCORE.norm>
-0.606504

>  <RMSD>
1.618

$$$$
2f4t_lig
 OpenBabel11021811433D
libRbt.so/2013.1/901 2013/11/27
 35 36  0  0  0  0  0  0  0  0999 V2000
    2.8003   -5.3836   26.1241 C   0  0  2  0  0  0  0  0  0  0  0  0
    2.1176   -6.2787   27.0622 O   0  0  0  0  0  0  0  0  0  0  0  0
    3.2242   -9.5174   29.6971 C   0  0  2  0  0  0  0  0  0  0  0  0
    3.7941  -10.7931   30.1560 N   0  0  0  0  0  0  0  0  0  0  0  0
    2.0701   -4.0112   26.2374 C   0  0  2  0  0  0  0  0  0  0  0  0
    2.0819   -3.5387   27.6019 N   0  0  0  0  0  0  0  0  0  0  0  0
    2.3125   -9.7779   28.4424 C   0  0  0  0  0  0  0  0  0  0  0  0
    2.5121  -12.0009   30.2843 C   0  0  0  0  0  0  0  0  0  0  0  0
    3.6006  -12.9532   30.7274 C   0  0  1  0  0  0  0  0  0  0  0  0
    2.9813  -14.3492   30.8241 C   0  0  0  0  0  0  0  0  0  0  0  0
    3.9233  -15.4631   31.3111 C   0  0  0  0  0  0  0  0  0  0  0  0
    4.3867  -15.1208   32.6591 N   0  0  0  0  0  0  0  0  0  0  0  0
    4.6107  -13.0470   29.7573 O   0  0  0  0  0  0  0  0  0  0  0  0
    5.5405   -7.8747   31.7196 C   0  0  0  0  0  0  0  0  0  0  0  0
    6.9512   -8.3647   32.0083 C   0  0  0  0  0  0  0  0  0  0  0  0
    0.6011   -4.1382   25.7100 C   0  0  1  0  0  0  0  0  0  0  0  0
    7.9745   -7.7810   31.1134 N   0  0  0  0  0  0  0  0  0  0  0  0
   -0.0783   -2.9010   25.7997 O   0  0  0  0  0  0  0  0  0  0  0  0
    1.6931   -8.4799   27.9057 C   0  0  2  0  0  0  0  0  0  0  0  0
    0.8852   -8.7416   26.7186 N   0  0  0  0  0  0  0  0  0  0  0  0
    8.6166   -5.6463   29.9898 C   0  0  0  0  0  0  0  0  0  0  0  0
    9.0440   -4.1508   30.1398 N   0  0  0  0  0  0  0  0  0  0  0  0
    8.4675   -6.3941   31.3477 C   0  0  0  0  0  0  0  0  0  0  0  0
    1.4589  -11.9967   30.1114 O   0  0  0  0  0  0  0  0  0  0  0  0
    0.6580   -4.6215   24.2571 C   0  0  2  0  0  0  0  0  0  0  0  0
   -0.6455   -4.7465   23.7119 O   0  0  0  0  0  0  0  0  0  0  0  0
    2.7728   -7.4859   27.5576 C   0  0  2  0  0  0  0  0  0  0  0  0
    1.4092   -5.9819   24.1797 C   0  0  2  0  0  0  0  0  0  0  0  0
    2.7394   -5.8730   24.7276 O   0  0  0  0  0  0  0  0  0  0  0  0
    3.6793   -7.1940   28.8295 C   0  0  2  0  0  0  0  0  0  0  0  0
    4.7062   -6.2263   28.4578 O   0  0  0  0  0  0  0  0  0  0  0  0
    1.5159   -6.4776   22.7869 C   0  0  0  0  0  0  0  0  0  0  0  0
    0.7477   -7.5795   22.6412 N   0  0  0  0  0  0  0  0  0  0  0  0
    4.3386   -8.5367   29.3004 C   0  0  1  0  0  0  0  0  0  0  0  0
    5.1632   -8.3092   30.3987 O   0  0  0  0  0  0  0  0  0  0  0  0
  1  2  1  1  0  0  0
  1  5  1  0  0  0  0
  1 29  1  0  0  0  0
  3  4  1  6  0  0  0
  3  7  1  0  0  0  0
  3 34  1  0  0  0  0
  5  6  1  1  0  0  0
  5 16  1  0  0  0  0
  7 19  1  0  0  0  0
  8  4  1  0  0  0  0
  8 24  2  0  0  0  0
  9  8  1  6  0  0  0
  9 10  1  0  0  0  0
  9 13  1  0  0  0  0
 10 11  1  0  0  0  0
 11 12  1  0  0  0  0
 14 15  1  0  0  0  0
 14 35  1  0  0  0  0
 15 17  1  0  0  0  0
 16 18  1  6  0  0  0
 16 25  1  0  0  0  0
 19 20  1  6  0  0  0
 19 27  1  0  0  0  0
 21 22  1  0  0  0  0
 21 23  1  0  0  0  0
 23 17  1  0  0  0  0
 25 26  1  1  0  0  0
 25 28  1  0  0  0  0
 27  2  1  1  0  0  0
 27 30  1  0  0  0  0
 28 29  1  0  0  0  0
 28 32  1  6  0  0  0
 30 31  1  6  0  0  0
 30 34  1  0  0  0  0
 32 33  2  0  0  0  0
 34 35  1  1  0  0  0
M  END
>  <CHROM.1>
-159.50086763,-48.75066987,-172.80400553,-177.97340898,60.62994307,63.89051192
171.48084426,78.12882376,176.36349202,-138.80315757,-152.96821244,-111.41831714
-62.89520504,3.39048574,-8.03744427,28.29377607,-2.03302704,0.65858604,2.71377412

>  <Name>
2f4t_lig

>  <RI>
0

>  <Rbt.Current_Directory>
/home/itssahil/PROJECTS/Mol_Feturizer/New_Systems/rnas/2f4t

>  <Rbt.Executable>
rbdock ($Id: //depot/dev/client3/rdock/2013.1/src/exe/rbdock.cxx#4 $)

>  <Rbt.Library>
libRbt.so (2013.1, Build901 2013/11/27)

>  <Rbt.Parameter_File>
/export/apps/rDock/src/rDock_2013.1_src/data/scripts/dock_solv.prm

>  <Rbt.Receptor>
prm/pocket_docking_4.prm

>  <SCORE>
-20.9953

>  <SCORE.INTER>
-15.6248

>  <SCORE.INTER.CONST>
1

>  <SCORE.INTER.POLAR>
-1.80377

>  <SCORE.INTER.ROT>
13

>  <SCORE.INTER.SOLV>
14.1764

>  <SCORE.INTER.VDW>
-21.3961

>  <SCORE.INTER.norm>
-0.446422

>  <SCORE.INTRA>
-5.3705

>  <SCORE.INTRA.DIHEDRAL>
-15.4797

>  <SCORE.INTRA.DIHEDRAL.0>
23.8882

>  <SCORE.INTRA.POLAR>
0

>  <SCORE.INTRA.POLAR.0>
0

>  <SCORE.INTRA.REPUL>
0

>  <SCORE.INTRA.REPUL.0>
0

>  <SCORE.INTRA.SOLV>
1.57562

>  <SCORE.INTRA.SOLV.lig_0>
-97.6888

>  <SCORE.INTRA.VDW>
1.58153

>  <SCORE.INTRA.VDW.0>
-3.9206

>  <SCORE.INTRA.norm>
-0.153443

>  <SCORE.RESTR>
0

>  <SCORE.RESTR.CAVITY>
0

>  <SCORE.RESTR.norm>
0

>  <SCORE.SYSTEM>
0

>  <SCORE.SYSTEM.CONST>
0

>  <SCORE.SYSTEM.DIHEDRAL>
0

>  <SCORE.SYSTEM.SOLV>
0

>  <SCORE.SYSTEM.norm>
0

>  <SCORE.heavy>
35

>  <SCORE.norm>
-0.599865

>  <RMSD>
1.633

$$$$
2f4t_lig
 OpenBabel11021811433D
libRbt.so/2013.1/901 2013/11/27
 35 36  0  0  0  0  0  0  0  0999 V2000
    2.7821   -5.4228   25.9789 C   0  0  2  0  0  0  0  0  0  0  0  0
    2.1043   -6.3574   26.8813 O   0  0  0  0  0  0  0  0  0  0  0  0
    3.1555  -10.0464   28.8671 C   0  0  2  0  0  0  0  0  0  0  0  0
    3.5747  -11.4431   29.0577 N   0  0  0  0  0  0  0  0  0  0  0  0
    2.0591   -4.0541   26.1623 C   0  0  2  0  0  0  0  0  0  0  0  0
    2.0858   -3.6451   27.5470 N   0  0  0  0  0  0  0  0  0  0  0  0
    1.9655   -9.9973   27.8399 C   0  0  0  0  0  0  0  0  0  0  0  0
    2.3181  -12.3229   29.9327 C   0  0  0  0  0  0  0  0  0  0  0  0
    3.2272  -13.5260   29.8130 C   0  0  1  0  0  0  0  0  0  0  0  0
    2.9570  -14.4305   31.0175 C   0  0  0  0  0  0  0  0  0  0  0  0
    3.9564  -15.5811   31.2235 C   0  0  0  0  0  0  0  0  0  0  0  0
    5.2918  -15.0061   31.4110 N   0  0  0  0  0  0  0  0  0  0  0  0
    2.9040  -14.2883   28.6796 O   0  0  0  0  0  0  0  0  0  0  0  0
    6.0843   -9.1225   30.4617 C   0  0  0  0  0  0  0  0  0  0  0  0
    6.0808   -7.6588   30.8751 C   0  0  0  0  0  0  0  0  0  0  0  0
    0.5847   -4.1509   25.6437 C   0  0  1  0  0  0  0  0  0  0  0  0
    6.8555   -7.3904   32.1065 N   0  0  0  0  0  0  0  0  0  0  0  0
   -0.0884   -2.9164   25.7969 O   0  0  0  0  0  0  0  0  0  0  0  0
    1.4861   -8.5610   27.5876 C   0  0  2  0  0  0  0  0  0  0  0  0
    0.4102   -8.5379   26.6017 N   0  0  0  0  0  0  0  0  0  0  0  0
    8.0885   -5.2707   31.6393 C   0  0  0  0  0  0  0  0  0  0  0  0
    9.4764   -5.9851   31.5657 N   0  0  0  0  0  0  0  0  0  0  0  0
    7.0635   -5.9881   32.5667 C   0  0  0  0  0  0  0  0  0  0  0  0
    1.3653  -12.0633   30.3375 O   0  0  0  0  0  0  0  0  0  0  0  0
    0.6258   -4.5669   24.1696 C   0  0  2  0  0  0  0  0  0  0  0  0
   -0.6833   -4.6614   23.6318 O   0  0  0  0  0  0  0  0  0  0  0  0
    2.6254   -7.7047   27.0938 C   0  0  2  0  0  0  0  0  0  0  0  0
    1.3702   -5.9252   24.0224 C   0  0  2  0  0  0  0  0  0  0  0  0
    2.7060   -5.8470   24.5620 O   0  0  0  0  0  0  0  0  0  0  0  0
    3.8196   -7.7245   28.1419 C   0  0  2  0  0  0  0  0  0  0  0  0
    4.8984   -6.8828   27.6351 O   0  0  0  0  0  0  0  0  0  0  0  0
    1.4617   -6.3566   22.6073 C   0  0  0  0  0  0  0  0  0  0  0  0
    0.6000   -7.3745   22.3905 N   0  0  0  0  0  0  0  0  0  0  0  0
    4.3154   -9.2019   28.3170 C   0  0  1  0  0  0  0  0  0  0  0  0
    5.3823   -9.2494   29.2099 O   0  0  0  0  0  0  0  0  0  0  0  0
  1  2  1  1  0  0  0
  1  5  1  0  0  0  0
  1 29  1  0  0  0  0
  3  4  1  6  0  0  0
  3  7  1  0  0  0  0
  3 34  1  0  0  0  0
  5  6  1  1  0  0  0
  5 16  1  0  0  0  0
  7 19  1  0  0  0  0
  8  4  1  0  0  0  0
  8 24  2  0  0  0  0
  9  8  1  1  0  0  0
  9 10  1  0  0  0  0
  9 13  1  0  0  0  0
 10 11  1  0  0  0  0
 11 12  1  0  0  0  0
 14 15  1  0  0  0  0
 14 35  1  0  0  0  0
 15 17  1  0  0  0  0
 16 18  1  6  0  0  0
 16 25  1  0  0  0  0
 19 20  1  6  0  0  0
 19 27  1  0  0  0  0
 21 22  1  0  0  0  0
 21 23  1  0  0  0  0
 23 17  1  0  0  0  0
 25 26  1  1  0  0  0
 25 28  1  0  0  0  0
 27  2  1  1  0  0  0
 27 30  1  0  0  0  0
 28 29  1  0  0  0  0
 28 32  1  6  0  0  0
 30 31  1  6  0  0  0
 30 34  1  0  0  0  0
 32 33  2  0  0  0  0
 34 35  1  1  0  0  0
M  END
>  <CHROM.1>
-172.44327489,-69.63689071,150.94902132,-169.26145799,59.92461890,-176.08698393
-63.66705689,173.85646560,-57.85029089,-72.96090907,-157.90035355,-106.14515065
-55.19317128,3.22348263,-8.25693074,28.03796999,-2.08134989,0.75351561,2.81228466

>  <Name>
2f4t_lig

>  <RI>
0

>  <Rbt.Current_Directory>
/home/itssahil/PROJECTS/Mol_Feturizer/New_Systems/rnas/2f4t

>  <Rbt.Executable>
rbdock ($Id: //depot/dev/client3/rdock/2013.1/src/exe/rbdock.cxx#4 $)

>  <Rbt.Library>
libRbt.so (2013.1, Build901 2013/11/27)

>  <Rbt.Parameter_File>
/export/apps/rDock/src/rDock_2013.1_src/data/scripts/dock_solv.prm

>  <Rbt.Receptor>
prm/pocket_docking_4.prm

>  <SCORE>
-23.2748

>  <SCORE.INTER>
-15.0313

>  <SCORE.INTER.CONST>
1

>  <SCORE.INTER.POLAR>
-1.5696

>  <SCORE.INTER.ROT>
13

>  <SCORE.INTER.SOLV>
20.4301

>  <SCORE.INTER.VDW>
-23.8656

>  <SCORE.INTER.norm>
-0.429467

>  <SCORE.INTRA>
-8.24347

>  <SCORE.INTRA.DIHEDRAL>
-18.0926

>  <SCORE.INTRA.DIHEDRAL.0>
23.8882

>  <SCORE.INTRA.POLAR>
0

>  <SCORE.INTRA.POLAR.0>
0

>  <SCORE.INTRA.REPUL>
0

>  <SCORE.INTRA.REPUL.0>
0

>  <SCORE.INTRA.SOLV>
1.88621

>  <SCORE.INTRA.SOLV.lig_0>
-97.6888

>  <SCORE.INTRA.VDW>
-0.140258

>  <SCORE.INTRA.VDW.0>
-3.9206

>  <SCORE.INTRA.norm>
-0.235528

>  <SCORE.RESTR>
0

>  <SCORE.RESTR.CAVITY>
0

>  <SCORE.RESTR.norm>
0

>  <SCORE.SYSTEM>
0

>  <SCORE.SYSTEM.CONST>
0

>  <SCORE.SYSTEM.DIHEDRAL>
0

>  <SCORE.SYSTEM.SOLV>
0

>  <SCORE.SYSTEM.norm>
0

>  <SCORE.heavy>
35

>  <SCORE.norm>
-0.664994

>  <RMSD>
1.656

$$$$
2f4t_lig
 OpenBabel11021811433D
libRbt.so/2013.1/901 2013/11/27
 35 36  0  0  0  0  0  0  0  0999 V2000
    3.5944   -4.9081   26.3373 C   0  0  2  0  0  0  0  0  0  0  0  0
    3.0931   -5.6857   27.4736 O   0  0  0  0  0  0  0  0  0  0  0  0
    3.4902   -9.5988   29.2590 C   0  0  2  0  0  0  0  0  0  0  0  0
    3.9110  -10.9949   29.4501 N   0  0  0  0  0  0  0  0  0  0  0  0
    3.2670   -3.4193   26.6629 C   0  0  2  0  0  0  0  0  0  0  0  0
    3.8463   -3.0351   27.9287 N   0  0  0  0  0  0  0  0  0  0  0  0
    2.8882   -9.4311   27.8157 C   0  0  0  0  0  0  0  0  0  0  0  0
    2.4854  -12.0297   29.5757 C   0  0  0  0  0  0  0  0  0  0  0  0
    3.4622  -13.1746   29.7279 C   0  0  1  0  0  0  0  0  0  0  0  0
    3.3526  -13.6868   31.1658 C   0  0  0  0  0  0  0  0  0  0  0  0
    2.0090  -14.3338   31.5415 C   0  0  0  0  0  0  0  0  0  0  0  0
    2.0914  -14.7988   32.9293 N   0  0  0  0  0  0  0  0  0  0  0  0
    3.1016  -14.2543   28.9067 O   0  0  0  0  0  0  0  0  0  0  0  0
    5.8729   -9.4568   31.7881 C   0  0  0  0  0  0  0  0  0  0  0  0
    5.9551   -8.4802   32.9512 C   0  0  0  0  0  0  0  0  0  0  0  0
    1.7165   -3.2000   26.6763 C   0  0  1  0  0  0  0  0  0  0  0  0
    6.7606   -7.2751   32.6556 N   0  0  0  0  0  0  0  0  0  0  0  0
    1.3977   -1.8527   26.9655 O   0  0  0  0  0  0  0  0  0  0  0  0
    2.4378   -7.9884   27.5475 C   0  0  2  0  0  0  0  0  0  0  0  0
    1.9211   -7.8491   26.1896 N   0  0  0  0  0  0  0  0  0  0  0  0
    7.2211   -4.8245   32.7746 C   0  0  0  0  0  0  0  0  0  0  0  0
    7.0985   -3.4934   33.5839 N   0  0  0  0  0  0  0  0  0  0  0  0
    6.6328   -6.0629   33.5133 C   0  0  0  0  0  0  0  0  0  0  0  0
    1.4320  -11.8603   29.5484 O   0  0  0  0  0  0  0  0  0  0  0  0
    1.1676   -3.6046   25.3042 C   0  0  2  0  0  0  0  0  0  0  0  0
   -0.2372   -3.4178   25.2438 O   0  0  0  0  0  0  0  0  0  0  0  0
    3.5899   -7.0334   27.7366 C   0  0  2  0  0  0  0  0  0  0  0  0
    1.5291   -5.0881   25.0047 C   0  0  2  0  0  0  0  0  0  0  0  0
    2.9557   -5.2965   25.0588 O   0  0  0  0  0  0  0  0  0  0  0  0
    4.1835   -7.1750   29.2038 C   0  0  2  0  0  0  0  0  0  0  0  0
    5.2891   -6.2343   29.3519 O   0  0  0  0  0  0  0  0  0  0  0  0
    1.0435   -5.5187   23.6722 C   0  0  0  0  0  0  0  0  0  0  0  0
    1.9893   -6.2733   23.0708 N   0  0  0  0  0  0  0  0  0  0  0  0
    4.6870   -8.6463   29.4065 C   0  0  1  0  0  0  0  0  0  0  0  0
    5.2397   -8.7958   30.6753 O   0  0  0  0  0  0  0  0  0  0  0  0
  1  2  1  1  0  0  0
  1  5  1  0  0  0  0
  1 29  1  0  0  0  0
  3  4  1  6  0  0  0
  3  7  1  0  0  0  0
  3 34  1  0  0  0  0
  5  6  1  1  0  0  0
  5 16  1  0  0  0  0
  7 19  1  0  0  0  0
  8  4  1  0  0  0  0
  8 24  2  0  0  0  0
  9  8  1  1  0  0  0
  9 10  1  0  0  0  0
  9 13  1  0  0  0  0
 10 11  1  0  0  0  0
 11 12  1  0  0  0  0
 14 15  1  0  0  0  0
 14 35  1  0  0  0  0
 15 17  1  0  0  0  0
 16 18  1  6  0  0  0
 16 25  1  0  0  0  0
 19 20  1  6  0  0  0
 19 27  1  0  0  0  0
 21 22  1  0  0  0  0
 21 23  1  0  0  0  0
 23 17  1  0  0  0  0
 25 26  1  1  0  0  0
 25 28  1  0  0  0  0
 27  2  1  1  0  0  0
 27 30  1  0  0  0  0
 28 29  1  0  0  0  0
 28 32  1  6  0  0  0
 30 31  1  6  0  0  0
 30 34  1  0  0  0  0
 32 33  2  0  0  0  0
 34 35  1  1  0  0  0
M  END
>  <CHROM.1>
-159.86443542,-70.86074474,111.07574208,65.84447494,178.37888553,-61.34251981
-175.97222889,162.69697709,178.51504192,-162.82269681,-114.94784336,138.62322066
60.35577689,3.43945572,-7.67158778,28.76980429,1.84889171,-0.93620336,-0.35127738

>  <Name>
2f4t_lig

>  <RI>
0

>  <Rbt.Current_Directory>
/home/itssahil/PROJECTS/Mol_Feturizer/New_Systems/rnas/2f4t

>  <Rbt.Executable>
rbdock ($Id: //depot/dev/client3/rdock/2013.1/src/exe/rbdock.cxx#4 $)

>  <Rbt.Library>
libRbt.so (2013.1, Build901 2013/11/27)

>  <Rbt.Parameter_File>
/export/apps/rDock/src/rDock_2013.1_src/data/scripts/dock_solv.prm

>  <Rbt.Receptor>
prm/pocket_docking_6.prm

>  <SCORE>
-19.8174

>  <SCORE.INTER>
-16.2233

>  <SCORE.INTER.CONST>
1

>  <SCORE.INTER.POLAR>
-1.66636

>  <SCORE.INTER.ROT>
13

>  <SCORE.INTER.SOLV>
12.6252

>  <SCORE.INTER.VDW>
-21.736

>  <SCORE.INTER.norm>
-0.463522

>  <SCORE.INTRA>
-3.59415

>  <SCORE.INTRA.DIHEDRAL>
-10.875

>  <SCORE.INTRA.DIHEDRAL.0>
23.8882

>  <SCORE.INTRA.POLAR>
0

>  <SCORE.INTRA.POLAR.0>
0

>  <SCORE.INTRA.REPUL>
0

>  <SCORE.INTRA.REPUL.0>
0

>  <SCORE.INTRA.SOLV>
2.95346

>  <SCORE.INTRA.SOLV.lig_0>
-97.6888

>  <SCORE.INTRA.VDW>
0.36661

>  <SCORE.INTRA.VDW.0>
-3.9206

>  <SCORE.INTRA.norm>
-0.10269

>  <SCORE.RESTR>
0

>  <SCORE.RESTR.CAVITY>
0

>  <SCORE.RESTR.norm>
0

>  <SCORE.SYSTEM>
0

>  <SCORE.SYSTEM.CONST>
0

>  <SCORE.SYSTEM.DIHEDRAL>
0

>  <SCORE.SYSTEM.SOLV>
0

>  <SCORE.SYSTEM.norm>
0

>  <SCORE.heavy>
35

>  <SCORE.norm>
-0.566212

>  <RMSD>
1.662

$$$$
2f4t_lig
 OpenBabel11021811433D
libRbt.so/2013.1/901 2013/11/27
 35 36  0  0  0  0  0  0  0  0999 V2000
    3.1470   -5.7204   25.8830 C   0  0  2  0  0  0  0  0  0  0  0  0
    2.4883   -6.4703   26.9559 O   0  0  0  0  0  0  0  0  0  0  0  0
    3.9579   -9.5886   29.5585 C   0  0  2  0  0  0  0  0  0  0  0  0
    4.3746  -10.9208   30.0214 N   0  0  0  0  0  0  0  0  0  0  0  0
    2.8043   -4.2215   26.1390 C   0  0  2  0  0  0  0  0  0  0  0  0
    3.2189   -3.8230   27.4636 N   0  0  0  0  0  0  0  0  0  0  0  0
    2.5263   -9.6872   28.9148 C   0  0  0  0  0  0  0  0  0  0  0  0
    3.2485  -11.4970   31.2538 C   0  0  0  0  0  0  0  0  0  0  0  0
    4.1060  -12.7422   31.3022 C   0  0  1  0  0  0  0  0  0  0  0  0
    3.7860  -13.4725   32.6084 C   0  0  0  0  0  0  0  0  0  0  0  0
    4.8410  -14.4876   33.0792 C   0  0  0  0  0  0  0  0  0  0  0  0
    6.1265  -13.7943   33.2053 N   0  0  0  0  0  0  0  0  0  0  0  0
    3.7607  -13.6296   30.2710 O   0  0  0  0  0  0  0  0  0  0  0  0
    7.2372   -8.6314   30.0073 C   0  0  0  0  0  0  0  0  0  0  0  0
    7.2531   -7.1208   30.1841 C   0  0  0  0  0  0  0  0  0  0  0  0
    1.2692   -3.9800   25.9451 C   0  0  1  0  0  0  0  0  0  0  0  0
    8.0888   -6.4176   29.1862 N   0  0  0  0  0  0  0  0  0  0  0  0
    0.9375   -2.6233   26.1684 O   0  0  0  0  0  0  0  0  0  0  0  0
    2.0355   -8.3269   28.3998 C   0  0  2  0  0  0  0  0  0  0  0  0
    0.7241   -8.4516   27.7713 N   0  0  0  0  0  0  0  0  0  0  0  0
    7.5289   -4.0323   29.6643 C   0  0  0  0  0  0  0  0  0  0  0  0
    8.9071   -3.6867   30.3146 N   0  0  0  0  0  0  0  0  0  0  0  0
    7.6109   -5.1441   28.5768 C   0  0  0  0  0  0  0  0  0  0  0  0
    2.3730  -11.0966   31.7146 O   0  0  0  0  0  0  0  0  0  0  0  0
    0.8983   -4.4013   24.5194 C   0  0  2  0  0  0  0  0  0  0  0  0
   -0.4831   -4.1956   24.2721 O   0  0  0  0  0  0  0  0  0  0  0  0
    3.0102   -7.7604   27.3979 C   0  0  2  0  0  0  0  0  0  0  0  0
    1.2715   -5.8949   24.2937 C   0  0  2  0  0  0  0  0  0  0  0  0
    2.6750   -6.1226   24.5380 O   0  0  0  0  0  0  0  0  0  0  0  0
    4.4527   -7.6286   28.0512 C   0  0  2  0  0  0  0  0  0  0  0  0
    5.3654   -7.0731   27.0574 O   0  0  0  0  0  0  0  0  0  0  0  0
    0.9577   -6.3425   22.9160 C   0  0  0  0  0  0  0  0  0  0  0  0
    2.0338   -6.1458   22.1228 N   0  0  0  0  0  0  0  0  0  0  0  0
    4.9360   -9.0505   28.5026 C   0  0  1  0  0  0  0  0  0  0  0  0
    6.2115   -8.9730   29.0547 O   0  0  0  0  0  0  0  0  0  0  0  0
  1  2  1  1  0  0  0
  1  5  1  0  0  0  0
  1 29  1  0  0  0  0
  3  4  1  6  0  0  0
  3  7  1  0  0  0  0
  3 34  1  0  0  0  0
  5  6  1  1  0  0  0
  5 16  1  0  0  0  0
  7 19  1  0  0  0  0
  8  4  1  0  0  0  0
  8 24  2  0  0  0  0
  9  8  1  6  0  0  0
  9 10  1  0  0  0  0
  9 13  1  0  0  0  0
 10 11  1  0  0  0  0
 11 12  1  0  0  0  0
 14 15  1  0  0  0  0
 14 35  1  0  0  0  0
 15 17  1  0  0  0  0
 16 18  1  6  0  0  0
 16 25  1  0  0  0  0
 19 20  1  6  0  0  0
 19 27  1  0  0  0  0
 21 22  1  0  0  0  0
 21 23  1  0  0  0  0
 23 17  1  0  0  0  0
 25 26  1  1  0  0  0
 25 28  1  0  0  0  0
 27  2  1  1  0  0  0
 27 30  1  0  0  0  0
 28 29  1  0  0  0  0
 28 32  1  6  0  0  0
 30 31  1  6  0  0  0
 30 34  1  0  0  0  0
 32 33  2  0  0  0  0
 34 35  1  1  0  0  0
M  END
>  <CHROM.1>
-153.40864623,-61.40954522,162.28039529,-160.76197623,56.48701439,-86.11001137
-58.35212243,138.86626864,62.21362806,65.88620321,-174.24634326,90.77974744
-50.43861674,3.81912215,-7.79669656,28.20573477,1.90910491,-0.53833930,-0.54228579

>  <Name>
2f4t_lig

>  <RI>
0

>  <Rbt.Current_Directory>
/home/itssahil/PROJECTS/Mol_Feturizer/New_Systems/rnas/2f4t

>  <Rbt.Executable>
rbdock ($Id: //depot/dev/client3/rdock/2013.1/src/exe/rbdock.cxx#4 $)

>  <Rbt.Library>
libRbt.so (2013.1, Build901 2013/11/27)

>  <Rbt.Parameter_File>
/export/apps/rDock/src/rDock_2013.1_src/data/scripts/dock_solv.prm

>  <Rbt.Receptor>
prm/pocket_docking_4.prm

>  <SCORE>
-16.2705

>  <SCORE.INTER>
-11.8081

>  <SCORE.INTER.CONST>
1

>  <SCORE.INTER.POLAR>
-1.66995

>  <SCORE.INTER.ROT>
13

>  <SCORE.INTER.SOLV>
19.5129

>  <SCORE.INTER.VDW>
-21.0765

>  <SCORE.INTER.norm>
-0.337374

>  <SCORE.INTRA>
-4.46242

>  <SCORE.INTRA.DIHEDRAL>
-13.387

>  <SCORE.INTRA.DIHEDRAL.0>
23.8882

>  <SCORE.INTRA.POLAR>
0

>  <SCORE.INTRA.POLAR.0>
0

>  <SCORE.INTRA.REPUL>
0

>  <SCORE.INTRA.REPUL.0>
0

>  <SCORE.INTRA.SOLV>
3.19444

>  <SCORE.INTRA.SOLV.lig_0>
-97.6888

>  <SCORE.INTRA.VDW>
0.633869

>  <SCORE.INTRA.VDW.0>
-3.9206

>  <SCORE.INTRA.norm>
-0.127498

>  <SCORE.RESTR>
0

>  <SCORE.RESTR.CAVITY>
0

>  <SCORE.RESTR.norm>
0

>  <SCORE.SYSTEM>
0

>  <SCORE.SYSTEM.CONST>
0

>  <SCORE.SYSTEM.DIHEDRAL>
0

>  <SCORE.SYSTEM.SOLV>
0

>  <SCORE.SYSTEM.norm>
0

>  <SCORE.heavy>
35

>  <SCORE.norm>
-0.464872

>  <RMSD>
1.665

$$$$
2f4t_lig
 OpenBabel11021811433D
libRbt.so/2013.1/901 2013/11/27
 35 36  0  0  0  0  0  0  0  0999 V2000
    3.1525   -4.9997   26.0698 C   0  0  2  0  0  0  0  0  0  0  0  0
    2.6586   -5.8262   27.1744 O   0  0  0  0  0  0  0  0  0  0  0  0
    3.3311   -9.7131   28.9342 C   0  0  2  0  0  0  0  0  0  0  0  0
    3.6532  -11.1438   29.0443 N   0  0  0  0  0  0  0  0  0  0  0  0
    2.6047   -3.5645   26.3340 C   0  0  2  0  0  0  0  0  0  0  0  0
    3.0135   -3.0949   27.6370 N   0  0  0  0  0  0  0  0  0  0  0  0
    2.2346   -9.5119   27.8248 C   0  0  0  0  0  0  0  0  0  0  0  0
    2.2716  -12.0098   29.7228 C   0  0  0  0  0  0  0  0  0  0  0  0
    3.1212  -13.2540   29.5864 C   0  0  1  0  0  0  0  0  0  0  0  0
    3.5238  -13.6947   30.9955 C   0  0  0  0  0  0  0  0  0  0  0  0
    4.3730  -12.6887   31.7905 C   0  0  0  0  0  0  0  0  0  0  0  0
    3.4946  -11.6157   32.2661 N   0  0  0  0  0  0  0  0  0  0  0  0
    2.3747  -14.3149   29.0503 O   0  0  0  0  0  0  0  0  0  0  0  0
    6.1401   -9.2079   30.8267 C   0  0  0  0  0  0  0  0  0  0  0  0
    5.8404   -7.9380   31.6084 C   0  0  0  0  0  0  0  0  0  0  0  0
    1.0438   -3.5529   26.2078 C   0  0  1  0  0  0  0  0  0  0  0  0
    6.2831   -7.9936   33.0189 N   0  0  0  0  0  0  0  0  0  0  0  0
    0.5264   -2.2571   26.4396 O   0  0  0  0  0  0  0  0  0  0  0  0
    1.8600   -8.0334   27.6518 C   0  0  2  0  0  0  0  0  0  0  0  0
    0.8721   -7.8682   26.5903 N   0  0  0  0  0  0  0  0  0  0  0  0
    7.3641   -5.8808   33.7927 C   0  0  0  0  0  0  0  0  0  0  0  0
    8.7132   -6.6110   34.0901 N   0  0  0  0  0  0  0  0  0  0  0  0
    6.1150   -6.8045   33.9015 C   0  0  0  0  0  0  0  0  0  0  0  0
    1.2997  -11.7241   30.0585 O   0  0  0  0  0  0  0  0  0  0  0  0
    0.6772   -4.0398   24.8021 C   0  0  2  0  0  0  0  0  0  0  0  0
   -0.7289   -4.0416   24.6157 O   0  0  0  0  0  0  0  0  0  0  0  0
    3.0830   -7.2159   27.3183 C   0  0  2  0  0  0  0  0  0  0  0  0
    1.2557   -5.4649   24.5667 C   0  0  2  0  0  0  0  0  0  0  0  0
    2.6868   -5.4816   24.7491 O   0  0  0  0  0  0  0  0  0  0  0  0
    4.1837   -7.3897   28.4510 C   0  0  2  0  0  0  0  0  0  0  0  0
    5.3467   -6.5821   28.0986 O   0  0  0  0  0  0  0  0  0  0  0  0
    0.9514   -5.9688   23.2064 C   0  0  0  0  0  0  0  0  0  0  0  0
    2.1055   -6.1795   22.5359 N   0  0  0  0  0  0  0  0  0  0  0  0
    4.5785   -8.9045   28.5453 C   0  0  1  0  0  0  0  0  0  0  0  0
    5.5638   -9.0862   29.5117 O   0  0  0  0  0  0  0  0  0  0  0  0
  1  2  1  1  0  0  0
  1  5  1  0  0  0  0
  1 29  1  0  0  0  0
  3  4  1  6  0  0  0
  3  7  1  0  0  0  0
  3 34  1  0  0  0  0
  5  6  1  1  0  0  0
  5 16  1  0  0  0  0
  7 19  1  0  0  0  0
  8  4  1  0  0  0  0
  8 24  2  0  0  0  0
  9  8  1  1  0  0  0
  9 10  1  0  0  0  0
  9 13  1  0  0  0  0
 10 11  1  0  0  0  0
 11 12  1  0  0  0  0
 14 15  1  0  0  0  0
 14 35  1  0  0  0  0
 15 17  1  0  0  0  0
 16 18  1  6  0  0  0
 16 25  1  0  0  0  0
 19 20  1  6  0  0  0
 19 27  1  0  0  0  0
 21 22  1  0  0  0  0
 21 23  1  0  0  0  0
 23 17  1  0  0  0  0
 25 26  1  1  0  0  0
 25 28  1  0  0  0  0
 27  2  1  1  0  0  0
 27 30  1  0  0  0  0
 28 29  1  0  0  0  0
 28 32  1  6  0  0  0
 30 31  1  6  0  0  0
 30 34  1  0  0  0  0
 32 33  2  0  0  0  0
 34 35  1  1  0  0  0
M  END
>  <CHROM.1>
-174.30989453,-68.77288586,109.05036080,-61.88048549,76.04054027,174.98528261
-57.83826700,177.32361104,-54.90515156,-88.60449708,-136.21728474,118.02365964
-43.16311676,3.29918698,-7.81268376,28.48934914,-2.18971439,0.89337248,2.83514571

>  <Name>
2f4t_lig

>  <RI>
0

>  <Rbt.Current_Directory>
/home/itssahil/PROJECTS/Mol_Feturizer/New_Systems/rnas/2f4t

>  <Rbt.Executable>
rbdock ($Id: //depot/dev/client3/rdock/2013.1/src/exe/rbdock.cxx#4 $)

>  <Rbt.Library>
libRbt.so (2013.1, Build901 2013/11/27)

>  <Rbt.Parameter_File>
/export/apps/rDock/src/rDock_2013.1_src/data/scripts/dock_solv.prm

>  <Rbt.Receptor>
prm/pocket_docking_4.prm

>  <SCORE>
-19.4347

>  <SCORE.INTER>
-16.9806

>  <SCORE.INTER.CONST>
1

>  <SCORE.INTER.POLAR>
-1.43249

>  <SCORE.INTER.ROT>
13

>  <SCORE.INTER.SOLV>
23.0836

>  <SCORE.INTER.VDW>
-26.5067

>  <SCORE.INTER.norm>
-0.48516

>  <SCORE.INTRA>
-2.45414

>  <SCORE.INTRA.DIHEDRAL>
-11.5468

>  <SCORE.INTRA.DIHEDRAL.0>
23.8882

>  <SCORE.INTRA.POLAR>
0

>  <SCORE.INTRA.POLAR.0>
0

>  <SCORE.INTRA.REPUL>
0

>  <SCORE.INTRA.REPUL.0>
0

>  <SCORE.INTRA.SOLV>
6.88311

>  <SCORE.INTRA.SOLV.lig_0>
-97.6888

>  <SCORE.INTRA.VDW>
-0.122274

>  <SCORE.INTRA.VDW.0>
-3.9206

>  <SCORE.INTRA.norm>
-0.0701184

>  <SCORE.RESTR>
0

>  <SCORE.RESTR.CAVITY>
0

>  <SCORE.RESTR.norm>
0

>  <SCORE.SYSTEM>
0

>  <SCORE.SYSTEM.CONST>
0

>  <SCORE.SYSTEM.DIHEDRAL>
0

>  <SCORE.SYSTEM.SOLV>
0

>  <SCORE.SYSTEM.norm>
0

>  <SCORE.heavy>
35

>  <SCORE.norm>
-0.555278

>  <RMSD>
1.665

$$$$
2f4t_lig
 OpenBabel11021811433D
libRbt.so/2013.1/901 2013/11/27
 35 36  0  0  0  0  0  0  0  0999 V2000
    2.9549   -5.5216   25.8168 C   0  0  2  0  0  0  0  0  0  0  0  0
    2.2793   -6.4066   26.7694 O   0  0  0  0  0  0  0  0  0  0  0  0
    3.3659   -9.9476   28.9917 C   0  0  2  0  0  0  0  0  0  0  0  0
    3.7988  -11.3246   29.2730 N   0  0  0  0  0  0  0  0  0  0  0  0
    2.4917   -4.0772   26.1755 C   0  0  2  0  0  0  0  0  0  0  0  0
    2.7869   -3.7755   27.5566 N   0  0  0  0  0  0  0  0  0  0  0  0
    2.1760   -9.9774   27.9636 C   0  0  0  0  0  0  0  0  0  0  0  0
    2.5232  -12.1780   30.1467 C   0  0  0  0  0  0  0  0  0  0  0  0
    3.4545  -13.3699   30.1262 C   0  0  1  0  0  0  0  0  0  0  0  0
    3.2345  -14.1500   31.4242 C   0  0  0  0  0  0  0  0  0  0  0  0
    1.8866  -14.8813   31.5412 C   0  0  0  0  0  0  0  0  0  0  0  0
    0.8908  -13.9366   32.0561 N   0  0  0  0  0  0  0  0  0  0  0  0
    3.1188  -14.2511   29.0865 O   0  0  0  0  0  0  0  0  0  0  0  0
    6.8478   -8.7053   29.8456 C   0  0  0  0  0  0  0  0  0  0  0  0
    6.8040   -7.2095   30.1181 C   0  0  0  0  0  0  0  0  0  0  0  0
    0.9601   -3.9172   25.8909 C   0  0  1  0  0  0  0  0  0  0  0  0
    8.1028   -6.6493   30.5514 N   0  0  0  0  0  0  0  0  0  0  0  0
    0.5200   -2.6104   26.2057 O   0  0  0  0  0  0  0  0  0  0  0  0
    1.6826   -8.5655   27.6182 C   0  0  2  0  0  0  0  0  0  0  0  0
    0.6070   -8.6173   26.6330 N   0  0  0  0  0  0  0  0  0  0  0  0
    7.5457   -4.2295   30.8070 C   0  0  0  0  0  0  0  0  0  0  0  0
    7.6844   -4.1551   32.3617 N   0  0  0  0  0  0  0  0  0  0  0  0
    8.4946   -5.2706   30.1429 C   0  0  0  0  0  0  0  0  0  0  0  0
    1.5518  -11.9137   30.5010 O   0  0  0  0  0  0  0  0  0  0  0  0
    0.7168   -4.2295   24.4107 C   0  0  2  0  0  0  0  0  0  0  0  0
   -0.6558   -4.0905   24.0812 O   0  0  0  0  0  0  0  0  0  0  0  0
    2.8136   -7.7320   27.0694 C   0  0  2  0  0  0  0  0  0  0  0  0
    1.2079   -5.6695   24.0848 C   0  0  2  0  0  0  0  0  0  0  0  0
    2.6043   -5.8286   24.4110 O   0  0  0  0  0  0  0  0  0  0  0  0
    4.0074   -7.6715   28.1164 C   0  0  2  0  0  0  0  0  0  0  0  0
    5.0781   -6.8541   27.5555 O   0  0  0  0  0  0  0  0  0  0  0  0
    1.0201   -6.0085   22.6542 C   0  0  0  0  0  0  0  0  0  0  0  0
    0.3541   -7.1799   22.5530 N   0  0  0  0  0  0  0  0  0  0  0  0
    4.5176   -9.1293   28.3875 C   0  0  1  0  0  0  0  0  0  0  0  0
    5.5846   -9.1079   29.2813 O   0  0  0  0  0  0  0  0  0  0  0  0
  1  2  1  1  0  0  0
  1  5  1  0  0  0  0
  1 29  1  0  0  0  0
  3  4  1  6  0  0  0
  3  7  1  0  0  0  0
  3 34  1  0  0  0  0
  5  6  1  1  0  0  0
  5 16  1  0  0  0  0
  7 19  1  0  0  0  0
  8  4  1  0  0  0  0
  8 24  2  0  0  0  0
  9  8  1  1  0  0  0
  9 10  1  0  0  0  0
  9 13  1  0  0  0  0
 10 11  1  0  0  0  0
 11 12  1  0  0  0  0
 14 15  1  0  0  0  0
 14 35  1  0  0  0  0
 15 17  1  0  0  0  0
 16 18  1  6  0  0  0
 16 25  1  0  0  0  0
 19 20  1  6  0  0  0
 19 27  1  0  0  0  0
 21 22  1  0  0  0  0
 21 23  1  0  0  0  0
 23 17  1  0  0  0  0
 25 26  1  1  0  0  0
 25 28  1  0  0  0  0
 27  2  1  1  0  0  0
 27 30  1  0  0  0  0
 28 29  1  0  0  0  0
 28 32  1  6  0  0  0
 30 31  1  6  0  0  0
 30 34  1  0  0  0  0
 32 33  2  0  0  0  0
 34 35  1  1  0  0  0
M  END
>  <CHROM.1>
-157.43272209,-67.34969848,146.28977840,69.81832665,-85.33778531,-173.18834179
57.81159688,145.37303288,66.54293661,66.23411641,-158.44933469,-127.95378736
-168.71941277,3.22824366,-7.96750337,28.00655877,1.80315472,-0.65970503,-0.46044767

>  <Name>
2f4t_lig

>  <RI>
0

>  <Rbt.Current_Directory>
/home/itssahil/PROJECTS/Mol_Feturizer/New_Systems/rnas/2f4t

>  <Rbt.Executable>
rbdock ($Id: //depot/dev/client3/rdock/2013.1/src/exe/rbdock.cxx#4 $)

>  <Rbt.Library>
libRbt.so (2013.1, Build901 2013/11/27)

>  <Rbt.Parameter_File>
/export/apps/rDock/src/rDock_2013.1_src/data/scripts/dock_solv.prm

>  <Rbt.Receptor>
prm/pocket_docking_3.prm

>  <SCORE>
-15.3217

>  <SCORE.INTER>
-11.9347

>  <SCORE.INTER.CONST>
1

>  <SCORE.INTER.POLAR>
-0.938083

>  <SCORE.INTER.ROT>
13

>  <SCORE.INTER.SOLV>
14.4417

>  <SCORE.INTER.VDW>
-21.9101

>  <SCORE.INTER.norm>
-0.340992

>  <SCORE.INTRA>
-3.41576

>  <SCORE.INTRA.DIHEDRAL>
-12.7319

>  <SCORE.INTRA.DIHEDRAL.0>
23.8882

>  <SCORE.INTRA.POLAR>
0

>  <SCORE.INTRA.POLAR.0>
0

>  <SCORE.INTRA.REPUL>
0

>  <SCORE.INTRA.REPUL.0>
0

>  <SCORE.INTRA.SOLV>
4.34996

>  <SCORE.INTRA.SOLV.lig_0>
-97.6888

>  <SCORE.INTRA.VDW>
0.775214

>  <SCORE.INTRA.VDW.0>
-3.9206

>  <SCORE.INTRA.norm>
-0.0975932

>  <SCORE.RESTR>
0.0287715

>  <SCORE.RESTR.CAVITY>
0.0287715

>  <SCORE.RESTR.norm>
0.000822042

>  <SCORE.SYSTEM>
0

>  <SCORE.SYSTEM.CONST>
0

>  <SCORE.SYSTEM.DIHEDRAL>
0

>  <SCORE.SYSTEM.SOLV>
0

>  <SCORE.SYSTEM.norm>
0

>  <SCORE.heavy>
35

>  <SCORE.norm>
-0.437763

>  <RMSD>
1.674

$$$$
2f4t_lig
 OpenBabel11021811433D
libRbt.so/2013.1/901 2013/11/27
 35 36  0  0  0  0  0  0  0  0999 V2000
    2.7380   -5.8855   26.3411 C   0  0  2  0  0  0  0  0  0  0  0  0
    1.9782   -6.6833   27.3073 O   0  0  0  0  0  0  0  0  0  0  0  0
    3.4421   -9.8300   29.8788 C   0  0  2  0  0  0  0  0  0  0  0  0
    3.8182  -11.1741   30.3420 N   0  0  0  0  0  0  0  0  0  0  0  0
    2.2890   -4.4092   26.5616 C   0  0  2  0  0  0  0  0  0  0  0  0
    2.4996   -4.0120   27.9340 N   0  0  0  0  0  0  0  0  0  0  0  0
    1.9715   -9.8655   29.3224 C   0  0  0  0  0  0  0  0  0  0  0  0
    3.2343  -12.3804   29.1919 C   0  0  0  0  0  0  0  0  0  0  0  0
    3.8651  -13.4043   30.1095 C   0  0  1  0  0  0  0  0  0  0  0  0
    2.7691  -13.9263   31.0413 C   0  0  0  0  0  0  0  0  0  0  0  0
    3.2230  -14.9513   32.0942 C   0  0  0  0  0  0  0  0  0  0  0  0
    2.0392  -15.4300   32.8143 N   0  0  0  0  0  0  0  0  0  0  0  0
    4.3157  -14.5182   29.3839 O   0  0  0  0  0  0  0  0  0  0  0  0
    6.8109   -8.9390   30.0433 C   0  0  0  0  0  0  0  0  0  0  0  0
    6.4289   -9.0885   31.5079 C   0  0  0  0  0  0  0  0  0  0  0  0
    0.7843   -4.2392   26.1625 C   0  0  1  0  0  0  0  0  0  0  0  0
    7.4143   -8.4968   32.4393 N   0  0  0  0  0  0  0  0  0  0  0  0
    0.3578   -2.9039   26.3508 O   0  0  0  0  0  0  0  0  0  0  0  0
    1.5197   -8.4905   28.8109 C   0  0  2  0  0  0  0  0  0  0  0  0
    0.1686   -8.5579   28.2631 N   0  0  0  0  0  0  0  0  0  0  0  0
    8.2664   -6.5138   33.6935 C   0  0  0  0  0  0  0  0  0  0  0  0
    8.9404   -5.8288   32.4612 N   0  0  0  0  0  0  0  0  0  0  0  0
    7.0169   -7.3688   33.3287 C   0  0  0  0  0  0  0  0  0  0  0  0
    2.6867  -12.3395   28.2767 O   0  0  0  0  0  0  0  0  0  0  0  0
    0.6319   -4.6554   24.6958 C   0  0  2  0  0  0  0  0  0  0  0  0
   -0.7118   -4.5130   24.2643 O   0  0  0  0  0  0  0  0  0  0  0  0
    2.4602   -7.9911   27.7427 C   0  0  2  0  0  0  0  0  0  0  0  0
    1.1066   -6.1254   24.5095 C   0  0  2  0  0  0  0  0  0  0  0  0
    2.4737   -6.2887   24.9408 O   0  0  0  0  0  0  0  0  0  0  0  0
    3.9439   -7.9228   28.3074 C   0  0  2  0  0  0  0  0  0  0  0  0
    4.8223   -7.4311   27.2512 O   0  0  0  0  0  0  0  0  0  0  0  0
    1.0055   -6.5658   23.0978 C   0  0  0  0  0  0  0  0  0  0  0  0
    2.1283   -6.2121   22.4346 N   0  0  0  0  0  0  0  0  0  0  0  0
    4.3812   -9.3601   28.7570 C   0  0  1  0  0  0  0  0  0  0  0  0
    5.6897   -9.3391   29.2316 O   0  0  0  0  0  0  0  0  0  0  0  0
  1  2  1  1  0  0  0
  1  5  1  0  0  0  0
  1 29  1  0  0  0  0
  3  4  1  6  0  0  0
  3  7  1  0  0  0  0
  3 34  1  0  0  0  0
  5  6  1  1  0  0  0
  5 16  1  0  0  0  0
  7 19  1  0  0  0  0
  8  4  1  0  0  0  0
  8 24  2  0  0  0  0
  9  8  1  6  0  0  0
  9 10  1  0  0  0  0
  9 13  1  0  0  0  0
 10 11  1  0  0  0  0
 11 12  1  0  0  0  0
 14 15  1  0  0  0  0
 14 35  1  0  0  0  0
 15 17  1  0  0  0  0
 16 18  1  6  0  0  0
 16 25  1  0  0  0  0
 19 20  1  6  0  0  0
 19 27  1  0  0  0  0
 21 22  1  0  0  0  0
 21 23  1  0  0  0  0
 23 17  1  0  0  0  0
 25 26  1  1  0  0  0
 25 28  1  0  0  0  0
 27  2  1  1  0  0  0
 27 30  1  0  0  0  0
 28 29  1  0  0  0  0
 28 32  1  6  0  0  0
 30 31  1  6  0  0  0
 30 34  1  0  0  0  0
 32 33  2  0  0  0  0
 34 35  1  1  0  0  0
M  END
>  <CHROM.1>
-157.17528858,41.59045744,95.70350594,-177.92796026,-175.03830196,-170.35450365
54.41444479,117.55331378,62.97405851,-153.88472332,175.38052540,86.09884769
-63.53224237,3.33307914,-8.44206584,28.52734559,-2.09788006,0.75986787,2.77565199

>  <Name>
2f4t_lig

>  <RI>
0

>  <Rbt.Current_Directory>
/home/itssahil/PROJECTS/Mol_Feturizer/New_Systems/rnas/2f4t

>  <Rbt.Executable>
rbdock ($Id: //depot/dev/client3/rdock/2013.1/src/exe/rbdock.cxx#4 $)

>  <Rbt.Library>
libRbt.so (2013.1, Build901 2013/11/27)

>  <Rbt.Parameter_File>
/export/apps/rDock/src/rDock_2013.1_src/data/scripts/dock_solv.prm

>  <Rbt.Receptor>
prm/pocket_docking_4.prm

>  <SCORE>
-20.1541

>  <SCORE.INTER>
-14.7862

>  <SCORE.INTER.CONST>
1

>  <SCORE.INTER.POLAR>
-1.33769

>  <SCORE.INTER.ROT>
13

>  <SCORE.INTER.SOLV>
20.0826

>  <SCORE.INTER.VDW>
-24.3594

>  <SCORE.INTER.norm>
-0.422464

>  <SCORE.INTRA>
-5.36788

>  <SCORE.INTRA.DIHEDRAL>
-15.4962

>  <SCORE.INTRA.DIHEDRAL.0>
23.8882

>  <SCORE.INTRA.POLAR>
0

>  <SCORE.INTRA.POLAR.0>
0

>  <SCORE.INTRA.REPUL>
0

>  <SCORE.INTRA.REPUL.0>
0

>  <SCORE.INTRA.SOLV>
0.525711

>  <SCORE.INTRA.SOLV.lig_0>
-97.6888

>  <SCORE.INTRA.VDW>
2.11737

>  <SCORE.INTRA.VDW.0>
-3.9206

>  <SCORE.INTRA.norm>
-0.153368

>  <SCORE.RESTR>
0

>  <SCORE.RESTR.CAVITY>
0

>  <SCORE.RESTR.norm>
0

>  <SCORE.SYSTEM>
0

>  <SCORE.SYSTEM.CONST>
0

>  <SCORE.SYSTEM.DIHEDRAL>
0

>  <SCORE.SYSTEM.SOLV>
0

>  <SCORE.SYSTEM.norm>
0

>  <SCORE.heavy>
35

>  <SCORE.norm>
-0.575832

>  <RMSD>
1.682

$$$$
2f4t_lig
 OpenBabel11021811433D
libRbt.so/2013.1/901 2013/11/27
 35 36  0  0  0  0  0  0  0  0999 V2000
    2.7473   -5.3913   25.8765 C   0  0  2  0  0  0  0  0  0  0  0  0
    2.0662   -6.3326   26.7694 O   0  0  0  0  0  0  0  0  0  0  0  0
    3.1768   -9.8919   28.9500 C   0  0  2  0  0  0  0  0  0  0  0  0
    3.6610  -11.2544   29.2178 N   0  0  0  0  0  0  0  0  0  0  0  0
    1.9901   -4.0373   26.0277 C   0  0  2  0  0  0  0  0  0  0  0  0
    1.9709   -3.6156   27.4087 N   0  0  0  0  0  0  0  0  0  0  0  0
    2.0675   -9.9449   27.8364 C   0  0  0  0  0  0  0  0  0  0  0  0
    3.1908  -11.7385   30.8498 C   0  0  0  0  0  0  0  0  0  0  0  0
    3.8803  -13.0497   30.5440 C   0  0  1  0  0  0  0  0  0  0  0  0
    4.1006  -13.7763   31.8727 C   0  0  0  0  0  0  0  0  0  0  0  0
    2.8250  -14.2228   32.6068 C   0  0  0  0  0  0  0  0  0  0  0  0
    2.2839  -15.3995   31.9201 N   0  0  0  0  0  0  0  0  0  0  0  0
    3.0510  -13.8866   29.7810 O   0  0  0  0  0  0  0  0  0  0  0  0
    6.5017   -8.4886   30.1136 C   0  0  0  0  0  0  0  0  0  0  0  0
    7.6459   -8.4177   29.1140 C   0  0  0  0  0  0  0  0  0  0  0  0
    0.5325   -4.1711   25.4712 C   0  0  1  0  0  0  0  0  0  0  0  0
    8.6159   -7.3383   29.4013 N   0  0  0  0  0  0  0  0  0  0  0  0
   -0.1712   -2.9505   25.5948 O   0  0  0  0  0  0  0  0  0  0  0  0
    1.5257   -8.5483   27.5013 C   0  0  2  0  0  0  0  0  0  0  0  0
    0.5283   -8.6190   26.4381 N   0  0  0  0  0  0  0  0  0  0  0  0
    8.3561   -6.4454   31.7179 C   0  0  0  0  0  0  0  0  0  0  0  0
    8.9481   -6.3104   33.1578 N   0  0  0  0  0  0  0  0  0  0  0  0
    9.2620   -7.2526   30.7417 C   0  0  0  0  0  0  0  0  0  0  0  0
    2.6582  -11.2686   31.6465 O   0  0  0  0  0  0  0  0  0  0  0  0
    0.6220   -4.5991   24.0027 C   0  0  2  0  0  0  0  0  0  0  0  0
   -0.6699   -4.7273   23.4313 O   0  0  0  0  0  0  0  0  0  0  0  0
    2.6473   -7.6391   27.0650 C   0  0  2  0  0  0  0  0  0  0  0  0
    1.3995   -5.9421   23.8882 C   0  0  2  0  0  0  0  0  0  0  0  0
    2.7183   -5.8297   24.4622 O   0  0  0  0  0  0  0  0  0  0  0  0
    3.7575   -7.5559   28.1988 C   0  0  2  0  0  0  0  0  0  0  0  0
    4.8208   -6.6655   27.7454 O   0  0  0  0  0  0  0  0  0  0  0  0
    1.5380   -6.3838   22.4801 C   0  0  0  0  0  0  0  0  0  0  0  0
    0.6744   -7.3945   22.2385 N   0  0  0  0  0  0  0  0  0  0  0  0
    4.3239   -8.9949   28.4595 C   0  0  1  0  0  0  0  0  0  0  0  0
    5.3208   -8.9517   29.4300 O   0  0  0  0  0  0  0  0  0  0  0  0
  1  2  1  1  0  0  0
  1  5  1  0  0  0  0
  1 29  1  0  0  0  0
  3  4  1  6  0  0  0
  3  7  1  0  0  0  0
  3 34  1  0  0  0  0
  5  6  1  1  0  0  0
  5 16  1  0  0  0  0
  7 19  1  0  0  0  0
  8  4  1  0  0  0  0
  8 24  2  0  0  0  0
  9  8  1  1  0  0  0
  9 10  1  0  0  0  0
  9 13  1  0  0  0  0
 10 11  1  0  0  0  0
 11 12  1  0  0  0  0
 14 15  1  0  0  0  0
 14 35  1  0  0  0  0
 15 17  1  0  0  0  0
 16 18  1  6  0  0  0
 16 25  1  0  0  0  0
 19 20  1  6  0  0  0
 19 27  1  0  0  0  0
 21 22  1  0  0  0  0
 21 23  1  0  0  0  0
 23 17  1  0  0  0  0
 25 26  1  1  0  0  0
 25 28  1  0  0  0  0
 27  2  1  1  0  0  0
 27 30  1  0  0  0  0
 28 29  1  0  0  0  0
 28 32  1  6  0  0  0
 30 31  1  6  0  0  0
 30 34  1  0  0  0  0
 32 33  2  0  0  0  0
 34 35  1  1  0  0  0
M  END
>  <CHROM.1>
-169.12162114,-112.95498562,164.27665051,65.71816569,75.41692433,147.95504595
-52.66069920,54.35843266,179.58792168,-86.30555856,-157.17804803,-104.21934085
-165.80251204,3.38464975,-8.19139518,28.05933220,-2.05139092,0.58793979,2.62405018

>  <Name>
2f4t_lig

>  <RI>
0

>  <Rbt.Current_Directory>
/home/itssahil/PROJECTS/Mol_Feturizer/New_Systems/rnas/2f4t

>  <Rbt.Executable>
rbdock ($Id: //depot/dev/client3/rdock/2013.1/src/exe/rbdock.cxx#4 $)

>  <Rbt.Library>
libRbt.so (2013.1, Build901 2013/11/27)

>  <Rbt.Parameter_File>
/export/apps/rDock/src/rDock_2013.1_src/data/scripts/dock_solv.prm

>  <Rbt.Receptor>
prm/pocket_docking_3.prm

>  <SCORE>
-17.7704

>  <SCORE.INTER>
-13.8725

>  <SCORE.INTER.CONST>
1

>  <SCORE.INTER.POLAR>
-0.938083

>  <SCORE.INTER.ROT>
13

>  <SCORE.INTER.SOLV>
20.9443

>  <SCORE.INTER.VDW>
-25.3695

>  <SCORE.INTER.norm>
-0.396357

>  <SCORE.INTRA>
-3.89789

>  <SCORE.INTRA.DIHEDRAL>
-12.1464

>  <SCORE.INTRA.DIHEDRAL.0>
23.8882

>  <SCORE.INTRA.POLAR>
0

>  <SCORE.INTRA.POLAR.0>
0

>  <SCORE.INTRA.REPUL>
0

>  <SCORE.INTRA.REPUL.0>
0

>  <SCORE.INTRA.SOLV>
1.91042

>  <SCORE.INTRA.SOLV.lig_0>
-97.6888

>  <SCORE.INTRA.VDW>
1.22013

>  <SCORE.INTRA.VDW.0>
-3.9206

>  <SCORE.INTRA.norm>
-0.111368

>  <SCORE.RESTR>
0

>  <SCORE.RESTR.CAVITY>
0

>  <SCORE.RESTR.norm>
0

>  <SCORE.SYSTEM>
0

>  <SCORE.SYSTEM.CONST>
0

>  <SCORE.SYSTEM.DIHEDRAL>
0

>  <SCORE.SYSTEM.SOLV>
0

>  <SCORE.SYSTEM.norm>
0

>  <SCORE.heavy>
35

>  <SCORE.norm>
-0.507726

>  <RMSD>
1.687

$$$$
2f4t_lig
 OpenBabel11021811433D
libRbt.so/2013.1/901 2013/11/27
 35 36  0  0  0  0  0  0  0  0999 V2000
    3.5966   -4.9710   26.3903 C   0  0  2  0  0  0  0  0  0  0  0  0
    3.0931   -5.6764   27.5719 O   0  0  0  0  0  0  0  0  0  0  0  0
    4.2615   -9.3200   29.5758 C   0  0  2  0  0  0  0  0  0  0  0  0
    4.4647  -10.7543   29.8293 N   0  0  0  0  0  0  0  0  0  0  0  0
    3.2721   -3.4644   26.6236 C   0  0  2  0  0  0  0  0  0  0  0  0
    3.8514   -3.0044   27.8639 N   0  0  0  0  0  0  0  0  0  0  0  0
    2.7630   -9.0725   29.1672 C   0  0  0  0  0  0  0  0  0  0  0  0
    3.4663  -11.2601   31.1954 C   0  0  0  0  0  0  0  0  0  0  0  0
    4.0430  -12.6399   30.9680 C   0  0  1  0  0  0  0  0  0  0  0  0
    4.7734  -13.0517   32.2482 C   0  0  0  0  0  0  0  0  0  0  0  0
    3.9675  -12.9077   33.5501 C   0  0  0  0  0  0  0  0  0  0  0  0
    4.1101  -11.5309   34.0327 N   0  0  0  0  0  0  0  0  0  0  0  0
    3.0226  -13.5865   30.7861 O   0  0  0  0  0  0  0  0  0  0  0  0
    7.7056   -9.0087   29.5616 C   0  0  0  0  0  0  0  0  0  0  0  0
    7.9999   -7.5548   29.8979 C   0  0  0  0  0  0  0  0  0  0  0  0
    1.7220   -3.2416   26.6223 C   0  0  1  0  0  0  0  0  0  0  0  0
    9.0536   -7.3867   30.9226 N   0  0  0  0  0  0  0  0  0  0  0  0
    1.4058   -1.8785   26.8280 O   0  0  0  0  0  0  0  0  0  0  0  0
    2.4862   -7.5906   28.8774 C   0  0  2  0  0  0  0  0  0  0  0  0
    1.1013   -7.3923   28.4615 N   0  0  0  0  0  0  0  0  0  0  0  0
    8.3935   -5.4836   32.3971 C   0  0  0  0  0  0  0  0  0  0  0  0
    8.2776   -6.3477   33.6939 N   0  0  0  0  0  0  0  0  0  0  0  0
    9.4410   -6.0214   31.3779 C   0  0  0  0  0  0  0  0  0  0  0  0
    2.7825  -10.7642   31.8479 O   0  0  0  0  0  0  0  0  0  0  0  0
    1.1731   -3.7286   25.2773 C   0  0  2  0  0  0  0  0  0  0  0  0
   -0.2312   -3.5430   25.2045 O   0  0  0  0  0  0  0  0  0  0  0  0
    3.4038   -7.0860   27.7919 C   0  0  2  0  0  0  0  0  0  0  0  0
    1.5318   -5.2284   25.0698 C   0  0  2  0  0  0  0  0  0  0  0  0
    2.9579   -5.4359   25.1376 O   0  0  0  0  0  0  0  0  0  0  0  0
    4.9208   -7.3045   28.2115 C   0  0  2  0  0  0  0  0  0  0  0  0
    5.7771   -6.8004   27.1430 O   0  0  0  0  0  0  0  0  0  0  0  0
    1.0461   -5.7391   23.7659 C   0  0  0  0  0  0  0  0  0  0  0  0
    2.0981   -6.1443   23.0211 N   0  0  0  0  0  0  0  0  0  0  0  0
    5.1690   -8.8368   28.4339 C   0  0  1  0  0  0  0  0  0  0  0  0
    6.4990   -9.0647   28.7760 O   0  0  0  0  0  0  0  0  0  0  0  0
  1  2  1  1  0  0  0
  1  5  1  0  0  0  0
  1 29  1  0  0  0  0
  3  4  1  6  0  0  0
  3  7  1  0  0  0  0
  3 34  1  0  0  0  0
  5  6  1  1  0  0  0
  5 16  1  0  0  0  0
  7 19  1  0  0  0  0
  8  4  1  0  0  0  0
  8 24  2  0  0  0  0
  9  8  1  1  0  0  0
  9 10  1  0  0  0  0
  9 13  1  0  0  0  0
 10 11  1  0  0  0  0
 11 12  1  0  0  0  0
 14 15  1  0  0  0  0
 14 35  1  0  0  0  0
 15 17  1  0  0  0  0
 16 18  1  6  0  0  0
 16 25  1  0  0  0  0
 19 20  1  6  0  0  0
 19 27  1  0  0  0  0
 21 22  1  0  0  0  0
 21 23  1  0  0  0  0
 23 17  1  0  0  0  0
 25 26  1  1  0  0  0
 25 28  1  0  0  0  0
 27  2  1  1  0  0  0
 27 30  1  0  0  0  0
 28 29  1  0  0  0  0
 28 32  1  6  0  0  0
 30 31  1  6  0  0  0
 30 34  1  0  0  0  0
 32 33  2  0  0  0  0
 34 35  1  1  0  0  0
M  END
>  <CHROM.1>
-170.66640774,-63.06725371,120.00858245,50.81626789,-85.47537764,168.36867130
-52.80304234,-178.97767482,61.57983142,78.84099047,-166.45313058,118.51751765
-54.49737701,4.09528377,-7.50294758,28.80180456,-2.00793000,0.54849372,2.61773691

>  <Name>
2f4t_lig

>  <RI>
0

>  <Rbt.Current_Directory>
/home/itssahil/PROJECTS/Mol_Feturizer/New_Systems/rnas/2f4t

>  <Rbt.Executable>
rbdock ($Id: //depot/dev/client3/rdock/2013.1/src/exe/rbdock.cxx#4 $)

>  <Rbt.Library>
libRbt.so (2013.1, Build901 2013/11/27)

>  <Rbt.Parameter_File>
/export/apps/rDock/src/rDock_2013.1_src/data/scripts/dock_solv.prm

>  <Rbt.Receptor>
prm/pocket_docking_3.prm

>  <SCORE>
-21.7057

>  <SCORE.INTER>
-17.5895

>  <SCORE.INTER.CONST>
1

>  <SCORE.INTER.POLAR>
-2.42424

>  <SCORE.INTER.ROT>
13

>  <SCORE.INTER.SOLV>
19.9746

>  <SCORE.INTER.VDW>
-22.5704

>  <SCORE.INTER.norm>
-0.502556

>  <SCORE.INTRA>
-4.12989

>  <SCORE.INTRA.DIHEDRAL>
-15.7471

>  <SCORE.INTRA.DIHEDRAL.0>
23.8882

>  <SCORE.INTRA.POLAR>
0

>  <SCORE.INTRA.POLAR.0>
0

>  <SCORE.INTRA.REPUL>
0

>  <SCORE.INTRA.REPUL.0>
0

>  <SCORE.INTRA.SOLV>
3.52461

>  <SCORE.INTRA.SOLV.lig_0>
-97.6888

>  <SCORE.INTRA.VDW>
1.98136

>  <SCORE.INTRA.VDW.0>
-3.9206

>  <SCORE.INTRA.norm>
-0.117997

>  <SCORE.RESTR>
0.0136511

>  <SCORE.RESTR.CAVITY>
0.0136511

>  <SCORE.RESTR.norm>
0.000390031

>  <SCORE.SYSTEM>
0

>  <SCORE.SYSTEM.CONST>
0

>  <SCORE.SYSTEM.DIHEDRAL>
0

>  <SCORE.SYSTEM.SOLV>
0

>  <SCORE.SYSTEM.norm>
0

>  <SCORE.heavy>
35

>  <SCORE.norm>
-0.620163

>  <RMSD>
1.693

$$$$
2f4t_lig
 OpenBabel11021811433D
libRbt.so/2013.1/901 2013/11/27
 35 36  0  0  0  0  0  0  0  0999 V2000
    2.8886   -5.4191   26.0431 C   0  0  2  0  0  0  0  0  0  0  0  0
    2.2705   -6.3218   27.0179 O   0  0  0  0  0  0  0  0  0  0  0  0
    3.3265  -10.0488   28.9288 C   0  0  2  0  0  0  0  0  0  0  0  0
    3.7168  -11.4574   29.0907 N   0  0  0  0  0  0  0  0  0  0  0  0
    2.3267   -4.0003   26.3607 C   0  0  2  0  0  0  0  0  0  0  0  0
    2.5946   -3.6418   27.7337 N   0  0  0  0  0  0  0  0  0  0  0  0
    2.0839   -9.9617   27.9686 C   0  0  0  0  0  0  0  0  0  0  0  0
    2.5333  -12.2853   30.1070 C   0  0  0  0  0  0  0  0  0  0  0  0
    3.3833  -13.5202   29.9052 C   0  0  1  0  0  0  0  0  0  0  0  0
    3.3034  -14.3503   31.1884 C   0  0  0  0  0  0  0  0  0  0  0  0
    4.2993  -15.5178   31.2891 C   0  0  0  0  0  0  0  0  0  0  0  0
    4.0186  -16.4605   30.2020 N   0  0  0  0  0  0  0  0  0  0  0  0
    2.8557  -14.3319   28.8888 O   0  0  0  0  0  0  0  0  0  0  0  0
    6.9329   -9.0754   29.6156 C   0  0  0  0  0  0  0  0  0  0  0  0
    6.9977   -7.6810   30.2195 C   0  0  0  0  0  0  0  0  0  0  0  0
    0.7891   -3.9528   26.0677 C   0  0  1  0  0  0  0  0  0  0  0  0
    6.3443   -7.5789   31.5428 N   0  0  0  0  0  0  0  0  0  0  0  0
    0.2598   -2.6709   26.3452 O   0  0  0  0  0  0  0  0  0  0  0  0
    1.6313   -8.5115   27.7485 C   0  0  2  0  0  0  0  0  0  0  0  0
    0.5041   -8.4536   26.8231 N   0  0  0  0  0  0  0  0  0  0  0  0
    7.6706   -6.5859   33.4100 C   0  0  0  0  0  0  0  0  0  0  0  0
    8.6389   -5.8000   32.4684 N   0  0  0  0  0  0  0  0  0  0  0  0
    7.1116   -7.8961   32.7806 C   0  0  0  0  0  0  0  0  0  0  0  0
    1.6390  -11.9893   30.6087 O   0  0  0  0  0  0  0  0  0  0  0  0
    0.5742   -4.3212   24.5960 C   0  0  2  0  0  0  0  0  0  0  0  0
   -0.8031   -4.2849   24.2592 O   0  0  0  0  0  0  0  0  0  0  0  0
    2.7650   -7.6840   27.1964 C   0  0  2  0  0  0  0  0  0  0  0  0
    1.1636   -5.7327   24.3112 C   0  0  2  0  0  0  0  0  0  0  0  0
    2.5660   -5.7876   24.6453 O   0  0  0  0  0  0  0  0  0  0  0  0
    4.0138   -7.7420   28.1773 C   0  0  2  0  0  0  0  0  0  0  0  0
    5.0861   -6.9275   27.6153 O   0  0  0  0  0  0  0  0  0  0  0  0
    1.0056   -6.1227   22.8899 C   0  0  0  0  0  0  0  0  0  0  0  0
    2.2225   -6.2092   22.3091 N   0  0  0  0  0  0  0  0  0  0  0  0
    4.4774   -9.2334   28.3192 C   0  0  1  0  0  0  0  0  0  0  0  0
    5.5899   -9.3148   29.1521 O   0  0  0  0  0  0  0  0  0  0  0  0
  1  2  1  1  0  0  0
  1  5  1  0  0  0  0
  1 29  1  0  0  0  0
  3  4  1  6  0  0  0
  3  7  1  0  0  0  0
  3 34  1  0  0  0  0
  5  6  1  1  0  0  0
  5 16  1  0  0  0  0
  7 19  1  0  0  0  0
  8  4  1  0  0  0  0
  8 24  2  0  0  0  0
  9  8  1  1  0  0  0
  9 10  1  0  0  0  0
  9 13  1  0  0  0  0
 10 11  1  0  0  0  0
 11 12  1  0  0  0  0
 14 15  1  0  0  0  0
 14 35  1  0  0  0  0
 15 17  1  0  0  0  0
 16 18  1  6  0  0  0
 16 25  1  0  0  0  0
 19 20  1  6  0  0  0
 19 27  1  0  0  0  0
 21 22  1  0  0  0  0
 21 23  1  0  0  0  0
 23 17  1  0  0  0  0
 25 26  1  1  0  0  0
 25 28  1  0  0  0  0
 27  2  1  1  0  0  0
 27 30  1  0  0  0  0
 28 29  1  0  0  0  0
 28 32  1  6  0  0  0
 30 31  1  6  0  0  0
 30 34  1  0  0  0  0
 32 33  2  0  0  0  0
 34 35  1  1  0  0  0
M  END
>  <CHROM.1>
-167.54095930,-72.83660532,146.49739664,-169.24135621,-62.14704195,73.94232565
77.14387754,86.84725696,-60.35178800,96.35590954,-155.34131246,113.83377241
-179.45395450,3.33468803,-8.30236235,28.16684500,-2.04549061,0.77358670,2.85065979

>  <Name>
2f4t_lig

>  <RI>
0

>  <Rbt.Current_Directory>
/home/itssahil/PROJECTS/Mol_Feturizer/New_Systems/rnas/2f4t

>  <Rbt.Executable>
rbdock ($Id: //depot/dev/client3/rdock/2013.1/src/exe/rbdock.cxx#4 $)

>  <Rbt.Library>
libRbt.so (2013.1, Build901 2013/11/27)

>  <Rbt.Parameter_File>
/export/apps/rDock/src/rDock_2013.1_src/data/scripts/dock_solv.prm

>  <Rbt.Receptor>
prm/pocket_docking_4.prm

>  <SCORE>
-22.6157

>  <SCORE.INTER>
-18.2207

>  <SCORE.INTER.CONST>
1

>  <SCORE.INTER.POLAR>
-1.30876

>  <SCORE.INTER.ROT>
13

>  <SCORE.INTER.SOLV>
18.7514

>  <SCORE.INTER.VDW>
-26.3017

>  <SCORE.INTER.norm>
-0.520592

>  <SCORE.INTRA>
-4.39681

>  <SCORE.INTRA.DIHEDRAL>
-14.0215

>  <SCORE.INTRA.DIHEDRAL.0>
23.8882

>  <SCORE.INTRA.POLAR>
0

>  <SCORE.INTRA.POLAR.0>
0

>  <SCORE.INTRA.REPUL>
0

>  <SCORE.INTRA.REPUL.0>
0

>  <SCORE.INTRA.SOLV>
3.80597

>  <SCORE.INTRA.SOLV.lig_0>
-97.6888

>  <SCORE.INTRA.VDW>
0.710928

>  <SCORE.INTRA.VDW.0>
-3.9206

>  <SCORE.INTRA.norm>
-0.125623

>  <SCORE.RESTR>
0.00185717

>  <SCORE.RESTR.CAVITY>
0.00185717

>  <SCORE.RESTR.norm>
5.30621e-05

>  <SCORE.SYSTEM>
0

>  <SCORE.SYSTEM.CONST>
0

>  <SCORE.SYSTEM.DIHEDRAL>
0

>  <SCORE.SYSTEM.SOLV>
0

>  <SCORE.SYSTEM.norm>
0

>  <SCORE.heavy>
35

>  <SCORE.norm>
-0.646162

>  <RMSD>
1.710

$$$$
2f4t_lig
 OpenBabel11021811433D
libRbt.so/2013.1/901 2013/11/27
 35 36  0  0  0  0  0  0  0  0999 V2000
    2.7827   -5.4090   26.0860 C   0  0  2  0  0  0  0  0  0  0  0  0
    2.0741   -6.3434   26.9646 O   0  0  0  0  0  0  0  0  0  0  0  0
    2.8948  -10.0895   28.9521 C   0  0  2  0  0  0  0  0  0  0  0  0
    3.3230  -11.4815   29.1560 N   0  0  0  0  0  0  0  0  0  0  0  0
    2.0881   -4.0278   26.2848 C   0  0  2  0  0  0  0  0  0  0  0  0
    2.1078   -3.6430   27.6765 N   0  0  0  0  0  0  0  0  0  0  0  0
    1.8984  -10.0258   27.7369 C   0  0  0  0  0  0  0  0  0  0  0  0
    3.3096  -11.8571   30.8815 C   0  0  0  0  0  0  0  0  0  0  0  0
    3.7709  -13.2392   30.4750 C   0  0  1  0  0  0  0  0  0  0  0  0
    4.0796  -14.0180   31.7557 C   0  0  0  0  0  0  0  0  0  0  0  0
    4.6136  -15.4461   31.5540 C   0  0  0  0  0  0  0  0  0  0  0  0
    4.8760  -16.0324   32.8717 N   0  0  0  0  0  0  0  0  0  0  0  0
    2.7396  -13.9444   29.8353 O   0  0  0  0  0  0  0  0  0  0  0  0
    6.0574   -8.8234   30.5897 C   0  0  0  0  0  0  0  0  0  0  0  0
    7.2673   -8.4421   29.7506 C   0  0  0  0  0  0  0  0  0  0  0  0
    0.6179   -4.0829   25.7482 C   0  0  1  0  0  0  0  0  0  0  0  0
    7.9822   -7.2481   30.2523 N   0  0  0  0  0  0  0  0  0  0  0  0
   -0.0295   -2.8366   25.9150 O   0  0  0  0  0  0  0  0  0  0  0  0
    1.4201   -8.5929   27.4635 C   0  0  2  0  0  0  0  0  0  0  0  0
    0.5297   -8.5539   26.3077 N   0  0  0  0  0  0  0  0  0  0  0  0
    9.9910   -5.9590   30.9834 C   0  0  0  0  0  0  0  0  0  0  0  0
    9.5556   -5.9783   32.4840 N   0  0  0  0  0  0  0  0  0  0  0  0
    9.4683   -7.1759   30.1641 C   0  0  0  0  0  0  0  0  0  0  0  0
    3.0719  -11.3087   31.7658 O   0  0  0  0  0  0  0  0  0  0  0  0
    0.6668   -4.4747   24.2678 C   0  0  2  0  0  0  0  0  0  0  0  0
   -0.6378   -4.5310   23.7138 O   0  0  0  0  0  0  0  0  0  0  0  0
    2.5971   -7.6844   27.2097 C   0  0  2  0  0  0  0  0  0  0  0  0
    1.3827   -5.8466   24.1056 C   0  0  2  0  0  0  0  0  0  0  0  0
    2.7136   -5.8073   24.6612 O   0  0  0  0  0  0  0  0  0  0  0  0
    3.5931   -7.7197   28.4473 C   0  0  2  0  0  0  0  0  0  0  0  0
    4.7133   -6.8269   28.1695 O   0  0  0  0  0  0  0  0  0  0  0  0
    1.4809   -6.2559   22.6844 C   0  0  0  0  0  0  0  0  0  0  0  0
    0.8810   -7.4552   22.5189 N   0  0  0  0  0  0  0  0  0  0  0  0
    4.1021   -9.1896   28.6459 C   0  0  1  0  0  0  0  0  0  0  0  0
    5.0006   -9.2490   29.7076 O   0  0  0  0  0  0  0  0  0  0  0  0
  1  2  1  1  0  0  0
  1  5  1  0  0  0  0
  1 29  1  0  0  0  0
  3  4  1  6  0  0  0
  3  7  1  0  0  0  0
  3 34  1  0  0  0  0
  5  6  1  1  0  0  0
  5 16  1  0  0  0  0
  7 19  1  0  0  0  0
  8  4  1  0  0  0  0
  8 24  2  0  0  0  0
  9  8  1  1  0  0  0
  9 10  1  0  0  0  0
  9 13  1  0  0  0  0
 10 11  1  0  0  0  0
 11 12  1  0  0  0  0
 14 15  1  0  0  0  0
 14 35  1  0  0  0  0
 15 17  1  0  0  0  0
 16 18  1  6  0  0  0
 16 25  1  0  0  0  0
 19 20  1  6  0  0  0
 19 27  1  0  0  0  0
 21 22  1  0  0  0  0
 21 23  1  0  0  0  0
 23 17  1  0  0  0  0
 25 26  1  1  0  0  0
 25 28  1  0  0  0  0
 27  2  1  1  0  0  0
 27 30  1  0  0  0  0
 28 29  1  0  0  0  0
 28 32  1  6  0  0  0
 30 31  1  6  0  0  0
 30 34  1  0  0  0  0
 32 33  2  0  0  0  0
 34 35  1  1  0  0  0
M  END
>  <CHROM.1>
-169.51074329,-136.78777246,173.90058239,-178.03082525,179.01411671,140.75779396
-52.64524837,143.50054002,56.69825623,-169.65799344,-149.82811417,-122.24359352
-155.61292993,3.51076845,-8.26403028,28.17169513,-2.07968749,0.58721525,2.70836060

>  <Name>
2f4t_lig

>  <RI>
0

>  <Rbt.Current_Directory>
/home/itssahil/PROJECTS/Mol_Feturizer/New_Systems/rnas/2f4t

>  <Rbt.Executable>
rbdock ($Id: //depot/dev/client3/rdock/2013.1/src/exe/rbdock.cxx#4 $)

>  <Rbt.Library>
libRbt.so (2013.1, Build901 2013/11/27)

>  <Rbt.Parameter_File>
/export/apps/rDock/src/rDock_2013.1_src/data/scripts/dock_solv.prm

>  <Rbt.Receptor>
prm/pocket_docking_3.prm

>  <SCORE>
-19.3582

>  <SCORE.INTER>
-15.3998

>  <SCORE.INTER.CONST>
1

>  <SCORE.INTER.POLAR>
-0.938083

>  <SCORE.INTER.ROT>
13

>  <SCORE.INTER.SOLV>
18.5118

>  <SCORE.INTER.VDW>
-25.5769

>  <SCORE.INTER.norm>
-0.439994

>  <SCORE.INTRA>
-4.37368

>  <SCORE.INTRA.DIHEDRAL>
-9.28512

>  <SCORE.INTRA.DIHEDRAL.0>
23.8882

>  <SCORE.INTRA.POLAR>
0

>  <SCORE.INTRA.POLAR.0>
0

>  <SCORE.INTRA.REPUL>
0

>  <SCORE.INTRA.REPUL.0>
0

>  <SCORE.INTRA.SOLV>
1.50345

>  <SCORE.INTRA.SOLV.lig_0>
-97.6888

>  <SCORE.INTRA.VDW>
-0.482839

>  <SCORE.INTRA.VDW.0>
-3.9206

>  <SCORE.INTRA.norm>
-0.124962

>  <SCORE.RESTR>
0.415324

>  <SCORE.RESTR.CAVITY>
0.415324

>  <SCORE.RESTR.norm>
0.0118664

>  <SCORE.SYSTEM>
0

>  <SCORE.SYSTEM.CONST>
0

>  <SCORE.SYSTEM.DIHEDRAL>
0

>  <SCORE.SYSTEM.SOLV>
0

>  <SCORE.SYSTEM.norm>
0

>  <SCORE.heavy>
35

>  <SCORE.norm>
-0.55309

>  <RMSD>
1.715

$$$$
2f4t_lig
 OpenBabel11021811433D
libRbt.so/2013.1/901 2013/11/27
 35 36  0  0  0  0  0  0  0  0999 V2000
    3.1132   -4.9040   26.2087 C   0  0  2  0  0  0  0  0  0  0  0  0
    2.5161   -5.7715   27.2276 O   0  0  0  0  0  0  0  0  0  0  0  0
    3.0033   -9.7184   28.9133 C   0  0  2  0  0  0  0  0  0  0  0  0
    3.3505  -11.1436   29.0184 N   0  0  0  0  0  0  0  0  0  0  0  0
    2.4272   -3.5146   26.3775 C   0  0  2  0  0  0  0  0  0  0  0  0
    2.5936   -3.0245   27.7257 N   0  0  0  0  0  0  0  0  0  0  0  0
    2.1128   -9.4941   27.6365 C   0  0  0  0  0  0  0  0  0  0  0  0
    2.0359  -12.0149   29.8131 C   0  0  0  0  0  0  0  0  0  0  0  0
    2.8878  -13.2513   29.6293 C   0  0  1  0  0  0  0  0  0  0  0  0
    2.5879  -14.1960   30.7953 C   0  0  0  0  0  0  0  0  0  0  0  0
    3.5717  -15.3642   30.9756 C   0  0  0  0  0  0  0  0  0  0  0  0
    4.9226  -14.8135   31.1194 N   0  0  0  0  0  0  0  0  0  0  0  0
    2.5192  -13.9463   28.4668 O   0  0  0  0  0  0  0  0  0  0  0  0
    5.9330   -9.7628   30.8248 C   0  0  0  0  0  0  0  0  0  0  0  0
    6.0852   -8.9234   32.0841 C   0  0  0  0  0  0  0  0  0  0  0  0
    0.9081   -3.6166   26.0109 C   0  0  1  0  0  0  0  0  0  0  0  0
    6.8258   -7.6612   31.8673 N   0  0  0  0  0  0  0  0  0  0  0  0
    0.2673   -2.3638   26.1530 O   0  0  0  0  0  0  0  0  0  0  0  0
    1.7233   -8.0195   27.4623 C   0  0  2  0  0  0  0  0  0  0  0  0
    0.9324   -7.8305   26.2503 N   0  0  0  0  0  0  0  0  0  0  0  0
    8.5851   -5.9847   32.4377 C   0  0  0  0  0  0  0  0  0  0  0  0
    7.9031   -4.7210   31.8214 N   0  0  0  0  0  0  0  0  0  0  0  0
    7.5759   -7.0334   32.9918 C   0  0  0  0  0  0  0  0  0  0  0  0
    1.0891  -11.7351   30.2185 O   0  0  0  0  0  0  0  0  0  0  0  0
    0.8004   -4.1201   24.5678 C   0  0  2  0  0  0  0  0  0  0  0  0
   -0.5559   -4.2239   24.1658 O   0  0  0  0  0  0  0  0  0  0  0  0
    2.9566   -7.1546   27.3858 C   0  0  2  0  0  0  0  0  0  0  0  0
    1.5114   -5.4975   24.4322 C   0  0  2  0  0  0  0  0  0  0  0  0
    2.8943   -5.4104   24.8343 O   0  0  0  0  0  0  0  0  0  0  0  0
    3.8462   -7.3526   28.6874 C   0  0  2  0  0  0  0  0  0  0  0  0
    5.0243   -6.4982   28.5812 O   0  0  0  0  0  0  0  0  0  0  0  0
    1.4594   -6.0137   23.0438 C   0  0  0  0  0  0  0  0  0  0  0  0
    0.4944   -6.9548   22.9494 N   0  0  0  0  0  0  0  0  0  0  0  0
    4.2708   -8.8590   28.7863 C   0  0  1  0  0  0  0  0  0  0  0  0
    5.0764   -9.0602   29.9036 O   0  0  0  0  0  0  0  0  0  0  0  0
  1  2  1  1  0  0  0
  1  5  1  0  0  0  0
  1 29  1  0  0  0  0
  3  4  1  6  0  0  0
  3  7  1  0  0  0  0
  3 34  1  0  0  0  0
  5  6  1  1  0  0  0
  5 16  1  0  0  0  0
  7 19  1  0  0  0  0
  8  4  1  0  0  0  0
  8 24  2  0  0  0  0
  9  8  1  1  0  0  0
  9 10  1  0  0  0  0
  9 13  1  0  0  0  0
 10 11  1  0  0  0  0
 11 12  1  0  0  0  0
 14 15  1  0  0  0  0
 14 35  1  0  0  0  0
 15 17  1  0  0  0  0
 16 18  1  6  0  0  0
 16 25  1  0  0  0  0
 19 20  1  6  0  0  0
 19 27  1  0  0  0  0
 21 22  1  0  0  0  0
 21 23  1  0  0  0  0
 23 17  1  0  0  0  0
 25 26  1  1  0  0  0
 25 28  1  0  0  0  0
 27  2  1  1  0  0  0
 27 30  1  0  0  0  0
 28 29  1  0  0  0  0
 28 32  1  6  0  0  0
 30 31  1  6  0  0  0
 30 34  1  0  0  0  0
 32 33  2  0  0  0  0
 34 35  1  1  0  0  0
M  END
>  <CHROM.1>
-178.20769154,-83.79181757,148.92630557,-166.67728141,56.31782177,-66.96379321
-168.01267704,-153.06061681,68.61048677,163.51305447,-132.52036118,-101.32569956
66.32417083,3.23243905,-7.99087369,28.27102717,-2.02795230,0.78090787,2.83119790

>  <Name>
2f4t_lig

>  <RI>
0

>  <Rbt.Current_Directory>
/home/itssahil/PROJECTS/Mol_Feturizer/New_Systems/rnas/2f4t

>  <Rbt.Executable>
rbdock ($Id: //depot/dev/client3/rdock/2013.1/src/exe/rbdock.cxx#4 $)

>  <Rbt.Library>
libRbt.so (2013.1, Build901 2013/11/27)

>  <Rbt.Parameter_File>
/export/apps/rDock/src/rDock_2013.1_src/data/scripts/dock_solv.prm

>  <Rbt.Receptor>
prm/pocket_docking_3.prm

>  <SCORE>
-24.5658

>  <SCORE.INTER>
-19.7973

>  <SCORE.INTER.CONST>
1

>  <SCORE.INTER.POLAR>
-1.81088

>  <SCORE.INTER.ROT>
13

>  <SCORE.INTER.SOLV>
16.2483

>  <SCORE.INTER.VDW>
-24.8447

>  <SCORE.INTER.norm>
-0.565636

>  <SCORE.INTRA>
-4.7685

>  <SCORE.INTRA.DIHEDRAL>
-11.6584

>  <SCORE.INTRA.DIHEDRAL.0>
23.8882

>  <SCORE.INTRA.POLAR>
0

>  <SCORE.INTRA.POLAR.0>
0

>  <SCORE.INTRA.REPUL>
0

>  <SCORE.INTRA.REPUL.0>
0

>  <SCORE.INTRA.SOLV>
4.06571

>  <SCORE.INTRA.SOLV.lig_0>
-97.6888

>  <SCORE.INTRA.VDW>
-0.972163

>  <SCORE.INTRA.VDW.0>
-3.9206

>  <SCORE.INTRA.norm>
-0.136243

>  <SCORE.RESTR>
0

>  <SCORE.RESTR.CAVITY>
0

>  <SCORE.RESTR.norm>
0

>  <SCORE.SYSTEM>
0

>  <SCORE.SYSTEM.CONST>
0

>  <SCORE.SYSTEM.DIHEDRAL>
0

>  <SCORE.SYSTEM.SOLV>
0

>  <SCORE.SYSTEM.norm>
0

>  <SCORE.heavy>
35

>  <SCORE.norm>
-0.701879

>  <RMSD>
1.717

$$$$
2f4t_lig
 OpenBabel11021811433D
libRbt.so/2013.1/901 2013/11/27
 35 36  0  0  0  0  0  0  0  0999 V2000
    2.9021   -5.3131   25.9156 C   0  0  2  0  0  0  0  0  0  0  0  0
    2.3189   -6.1968   26.9286 O   0  0  0  0  0  0  0  0  0  0  0  0
    3.9817   -8.9312   29.8295 C   0  0  2  0  0  0  0  0  0  0  0  0
    4.6651  -10.1080   30.3870 N   0  0  0  0  0  0  0  0  0  0  0  0
    2.3351   -3.8920   26.2131 C   0  0  2  0  0  0  0  0  0  0  0  0
    2.6358   -3.4970   27.5692 N   0  0  0  0  0  0  0  0  0  0  0  0
    2.8695   -9.4051   28.8236 C   0  0  0  0  0  0  0  0  0  0  0  0
    3.6566  -10.8388   31.6391 C   0  0  0  0  0  0  0  0  0  0  0  0
    4.7630  -11.8602   31.7835 C   0  0  1  0  0  0  0  0  0  0  0  0
    4.3955  -12.7767   32.9526 C   0  0  0  0  0  0  0  0  0  0  0  0
    3.1340  -13.6340   32.7553 C   0  0  0  0  0  0  0  0  0  0  0  0
    2.9303  -14.4419   33.9615 N   0  0  0  0  0  0  0  0  0  0  0  0
    4.8318  -12.6886   30.6524 O   0  0  0  0  0  0  0  0  0  0  0  0
    7.1592   -7.7089   30.7681 C   0  0  0  0  0  0  0  0  0  0  0  0
    8.3664   -7.8692   29.8567 C   0  0  0  0  0  0  0  0  0  0  0  0
    0.7898   -3.8657   25.9604 C   0  0  1  0  0  0  0  0  0  0  0  0
    9.6606   -7.7341   30.5606 N   0  0  0  0  0  0  0  0  0  0  0  0
    0.2556   -2.5822   26.2204 O   0  0  0  0  0  0  0  0  0  0  0  0
    2.1228   -8.2198   28.1959 C   0  0  2  0  0  0  0  0  0  0  0  0
    1.1248   -8.6831   27.2370 N   0  0  0  0  0  0  0  0  0  0  0  0
   10.2120   -5.5676   31.6712 C   0  0  0  0  0  0  0  0  0  0  0  0
   10.7411   -4.1083   31.4911 N   0  0  0  0  0  0  0  0  0  0  0  0
   10.4531   -6.4785   30.4313 C   0  0  0  0  0  0  0  0  0  0  0  0
    2.7021  -10.6120   32.0594 O   0  0  0  0  0  0  0  0  0  0  0  0
    0.5395   -4.2725   24.5046 C   0  0  2  0  0  0  0  0  0  0  0  0
   -0.8466   -4.2571   24.2040 O   0  0  0  0  0  0  0  0  0  0  0  0
    3.0905   -7.2998   27.4943 C   0  0  2  0  0  0  0  0  0  0  0  0
    1.1348   -5.6853   24.2388 C   0  0  2  0  0  0  0  0  0  0  0  0
    2.5461   -5.7191   24.5365 O   0  0  0  0  0  0  0  0  0  0  0  0
    4.1997   -6.7920   28.5125 C   0  0  2  0  0  0  0  0  0  0  0  0
    5.1121   -5.9021   27.8020 O   0  0  0  0  0  0  0  0  0  0  0  0
    0.9429   -6.1119   22.8323 C   0  0  0  0  0  0  0  0  0  0  0  0
    2.1454   -6.2124   22.2245 N   0  0  0  0  0  0  0  0  0  0  0  0
    4.9753   -8.0327   29.0768 C   0  0  1  0  0  0  0  0  0  0  0  0
    5.9749   -7.6184   29.9525 O   0  0  0  0  0  0  0  0  0  0  0  0
  1  2  1  1  0  0  0
  1  5  1  0  0  0  0
  1 29  1  0  0  0  0
  3  4  1  6  0  0  0
  3  7  1  0  0  0  0
  3 34  1  0  0  0  0
  5  6  1  1  0  0  0
  5 16  1  0  0  0  0
  7 19  1  0  0  0  0
  8  4  1  0  0  0  0
  8 24  2  0  0  0  0
  9  8  1  6  0  0  0
  9 10  1  0  0  0  0
  9 13  1  0  0  0  0
 10 11  1  0  0  0  0
 11 12  1  0  0  0  0
 14 15  1  0  0  0  0
 14 35  1  0  0  0  0
 15 17  1  0  0  0  0
 16 18  1  6  0  0  0
 16 25  1  0  0  0  0
 19 20  1  6  0  0  0
 19 27  1  0  0  0  0
 21 22  1  0  0  0  0
 21 23  1  0  0  0  0
 23 17  1  0  0  0  0
 25 26  1  1  0  0  0
 25 28  1  0  0  0  0
 27  2  1  1  0  0  0
 27 30  1  0  0  0  0
 28 29  1  0  0  0  0
 28 32  1  6  0  0  0
 30 31  1  6  0  0  0
 30 34  1  0  0  0  0
 32 33  2  0  0  0  0
 34 35  1  1  0  0  0
M  END
>  <CHROM.1>
-143.86804831,-77.97217647,175.35450234,64.76883465,-179.90026024,169.81361577
67.57107856,-103.49091156,-167.29023563,98.89371703,-164.84750319,114.33006372
75.39073509,3.96432677,-7.55723797,28.54968503,-2.11340989,0.45446836,2.51657038

>  <Name>
2f4t_lig

>  <RI>
0

>  <Rbt.Current_Directory>
/home/itssahil/PROJECTS/Mol_Feturizer/New_Systems/rnas/2f4t

>  <Rbt.Executable>
rbdock ($Id: //depot/dev/client3/rdock/2013.1/src/exe/rbdock.cxx#4 $)

>  <Rbt.Library>
libRbt.so (2013.1, Build901 2013/11/27)

>  <Rbt.Parameter_File>
/export/apps/rDock/src/rDock_2013.1_src/data/scripts/dock_solv.prm

>  <Rbt.Receptor>
prm/pocket_docking_6.prm

>  <SCORE>
-24.0263

>  <SCORE.INTER>
-20.0798

>  <SCORE.INTER.CONST>
1

>  <SCORE.INTER.POLAR>
-1.94627

>  <SCORE.INTER.ROT>
13

>  <SCORE.INTER.SOLV>
19.7505

>  <SCORE.INTER.VDW>
-25.7491

>  <SCORE.INTER.norm>
-0.573709

>  <SCORE.INTRA>
-3.99196

>  <SCORE.INTRA.DIHEDRAL>
-11.8688

>  <SCORE.INTRA.DIHEDRAL.0>
23.8882

>  <SCORE.INTRA.POLAR>
0

>  <SCORE.INTRA.POLAR.0>
0

>  <SCORE.INTRA.REPUL>
0

>  <SCORE.INTRA.REPUL.0>
0

>  <SCORE.INTRA.SOLV>
0.00262664

>  <SCORE.INTRA.SOLV.lig_0>
-97.6888

>  <SCORE.INTRA.VDW>
1.94113

>  <SCORE.INTRA.VDW.0>
-3.9206

>  <SCORE.INTRA.norm>
-0.114056

>  <SCORE.RESTR>
0.0454157

>  <SCORE.RESTR.CAVITY>
0.0454157

>  <SCORE.RESTR.norm>
0.00129759

>  <SCORE.SYSTEM>
0

>  <SCORE.SYSTEM.CONST>
0

>  <SCORE.SYSTEM.DIHEDRAL>
0

>  <SCORE.SYSTEM.SOLV>
0

>  <SCORE.SYSTEM.norm>
0

>  <SCORE.heavy>
35

>  <SCORE.norm>
-0.686467

>  <RMSD>
1.719

$$$$
2f4t_lig
 OpenBabel11021811433D
libRbt.so/2013.1/901 2013/11/27
 35 36  0  0  0  0  0  0  0  0999 V2000
    2.9255   -6.1978   26.2088 C   0  0  2  0  0  0  0  0  0  0  0  0
    2.1463   -6.7866   27.3013 O   0  0  0  0  0  0  0  0  0  0  0  0
    3.3719   -9.7441   30.2010 C   0  0  2  0  0  0  0  0  0  0  0  0
    3.6370  -11.0562   30.8100 N   0  0  0  0  0  0  0  0  0  0  0  0
    2.6963   -4.6589   26.3039 C   0  0  2  0  0  0  0  0  0  0  0  0
    3.0674   -4.1682   27.6104 N   0  0  0  0  0  0  0  0  0  0  0  0
    1.8950   -9.7114   29.6612 C   0  0  0  0  0  0  0  0  0  0  0  0
    3.0294  -12.3326   29.7515 C   0  0  0  0  0  0  0  0  0  0  0  0
    3.5482  -13.2971   30.7949 C   0  0  1  0  0  0  0  0  0  0  0  0
    2.6883  -14.5610   30.7233 C   0  0  0  0  0  0  0  0  0  0  0  0
    2.9260  -15.5920   31.8393 C   0  0  0  0  0  0  0  0  0  0  0  0
    1.9614  -16.6835   31.6741 N   0  0  0  0  0  0  0  0  0  0  0  0
    4.8572  -13.7051   30.4943 O   0  0  0  0  0  0  0  0  0  0  0  0
    6.7924   -9.1776   30.2836 C   0  0  0  0  0  0  0  0  0  0  0  0
    7.1334   -7.7176   30.0272 C   0  0  0  0  0  0  0  0  0  0  0  0
    1.2005   -4.3174   25.9905 C   0  0  1  0  0  0  0  0  0  0  0  0
    8.2409   -7.2127   30.8681 N   0  0  0  0  0  0  0  0  0  0  0  0
    0.9721   -2.9237   26.0668 O   0  0  0  0  0  0  0  0  0  0  0  0
    1.5565   -8.3675   29.0013 C   0  0  2  0  0  0  0  0  0  0  0  0
    0.1960   -8.3760   28.4729 N   0  0  0  0  0  0  0  0  0  0  0  0
    9.1455   -5.1169   31.8782 C   0  0  0  0  0  0  0  0  0  0  0  0
    7.8507   -4.7701   32.6815 N   0  0  0  0  0  0  0  0  0  0  0  0
    8.8734   -5.8989   30.5593 C   0  0  0  0  0  0  0  0  0  0  0  0
    2.5288  -12.3492   28.8090 O   0  0  0  0  0  0  0  0  0  0  0  0
    0.8766   -4.8440   24.5885 C   0  0  2  0  0  0  0  0  0  0  0  0
   -0.4664   -4.5553   24.2351 O   0  0  0  0  0  0  0  0  0  0  0  0
    2.5196   -8.0751   27.8779 C   0  0  2  0  0  0  0  0  0  0  0  0
    1.1348   -6.3771   24.5250 C   0  0  2  0  0  0  0  0  0  0  0  0
    2.4982   -6.6896   24.8788 O   0  0  0  0  0  0  0  0  0  0  0  0
    4.0124   -8.0756   28.4221 C   0  0  2  0  0  0  0  0  0  0  0  0
    4.9133   -7.7841   27.3119 O   0  0  0  0  0  0  0  0  0  0  0  0
    0.8629   -6.9295   23.1767 C   0  0  0  0  0  0  0  0  0  0  0  0
    0.7153   -8.2699   23.2609 N   0  0  0  0  0  0  0  0  0  0  0  0
    4.3302   -9.4869   29.0277 C   0  0  1  0  0  0  0  0  0  0  0  0
    5.6430   -9.5287   29.4888 O   0  0  0  0  0  0  0  0  0  0  0  0
  1  2  1  1  0  0  0
  1  5  1  0  0  0  0
  1 29  1  0  0  0  0
  3  4  1  6  0  0  0
  3  7  1  0  0  0  0
  3 34  1  0  0  0  0
  5  6  1  1  0  0  0
  5 16  1  0  0  0  0
  7 19  1  0  0  0  0
  8  4  1  0  0  0  0
  8 24  2  0  0  0  0
  9  8  1  6  0  0  0
  9 10  1  0  0  0  0
  9 13  1  0  0  0  0
 10 11  1  0  0  0  0
 11 12  1  0  0  0  0
 14 15  1  0  0  0  0
 14 35  1  0  0  0  0
 15 17  1  0  0  0  0
 16 18  1  6  0  0  0
 16 25  1  0  0  0  0
 19 20  1  6  0  0  0
 19 27  1  0  0  0  0
 21 22  1  0  0  0  0
 21 23  1  0  0  0  0
 23 17  1  0  0  0  0
 25 26  1  1  0  0  0
 25 28  1  0  0  0  0
 27  2  1  1  0  0  0
 27 30  1  0  0  0  0
 28 29  1  0  0  0  0
 28 32  1  6  0  0  0
 30 31  1  6  0  0  0
 30 34  1  0  0  0  0
 32 33  2  0  0  0  0
 34 35  1  1  0  0  0
M  END
>  <CHROM.1>
-154.38974907,45.44488134,151.98151432,-171.71640317,175.97713449,175.70115476
-61.29631371,167.96909108,-62.32426639,138.85133029,177.92925855,-162.11614192
-57.53087348,3.44551971,-8.43175627,28.41269219,1.90580923,-0.64731943,-0.42181740

>  <Name>
2f4t_lig

>  <RI>
0

>  <Rbt.Current_Directory>
/home/itssahil/PROJECTS/Mol_Feturizer/New_Systems/rnas/2f4t

>  <Rbt.Executable>
rbdock ($Id: //depot/dev/client3/rdock/2013.1/src/exe/rbdock.cxx#4 $)

>  <Rbt.Library>
libRbt.so (2013.1, Build901 2013/11/27)

>  <Rbt.Parameter_File>
/export/apps/rDock/src/rDock_2013.1_src/data/scripts/dock_solv.prm

>  <Rbt.Receptor>
prm/pocket_docking_4.prm

>  <SCORE>
-19.0672

>  <SCORE.INTER>
-12.3851

>  <SCORE.INTER.CONST>
1

>  <SCORE.INTER.POLAR>
-1.83703

>  <SCORE.INTER.ROT>
13

>  <SCORE.INTER.SOLV>
13.5307

>  <SCORE.INTER.VDW>
-18.9102

>  <SCORE.INTER.norm>
-0.353861

>  <SCORE.INTRA>
-6.74626

>  <SCORE.INTRA.DIHEDRAL>
-16.2038

>  <SCORE.INTRA.DIHEDRAL.0>
23.8882

>  <SCORE.INTRA.POLAR>
0

>  <SCORE.INTRA.POLAR.0>
0

>  <SCORE.INTRA.REPUL>
0

>  <SCORE.INTRA.REPUL.0>
0

>  <SCORE.INTRA.SOLV>
0.421096

>  <SCORE.INTRA.SOLV.lig_0>
-97.6888

>  <SCORE.INTRA.VDW>
1.1451

>  <SCORE.INTRA.VDW.0>
-3.9206

>  <SCORE.INTRA.norm>
-0.19275

>  <SCORE.RESTR>
0.0642509

>  <SCORE.RESTR.CAVITY>
0.0642509

>  <SCORE.RESTR.norm>
0.00183574

>  <SCORE.SYSTEM>
0

>  <SCORE.SYSTEM.CONST>
0

>  <SCORE.SYSTEM.DIHEDRAL>
0

>  <SCORE.SYSTEM.SOLV>
0

>  <SCORE.SYSTEM.norm>
0

>  <SCORE.heavy>
35

>  <SCORE.norm>
-0.544776

>  <RMSD>
1.720

$$$$
2f4t_lig
 OpenBabel11021811433D
libRbt.so/2013.1/901 2013/11/27
 35 36  0  0  0  0  0  0  0  0999 V2000
    3.7082   -5.1795   26.1058 C   0  0  2  0  0  0  0  0  0  0  0  0
    3.4105   -5.8381   27.3805 O   0  0  0  0  0  0  0  0  0  0  0  0
    3.3893   -9.8171   29.0611 C   0  0  2  0  0  0  0  0  0  0  0  0
    3.6451  -11.2581   29.2059 N   0  0  0  0  0  0  0  0  0  0  0  0
    3.6335   -3.6487   26.3900 C   0  0  2  0  0  0  0  0  0  0  0  0
    4.5368   -3.2836   27.4559 N   0  0  0  0  0  0  0  0  0  0  0  0
    2.7682   -9.5402   27.6430 C   0  0  0  0  0  0  0  0  0  0  0  0
    2.8084  -11.8657   30.6375 C   0  0  0  0  0  0  0  0  0  0  0  0
    3.3830  -13.2155   30.2686 C   0  0  1  0  0  0  0  0  0  0  0  0
    3.2136  -14.1358   31.4796 C   0  0  0  0  0  0  0  0  0  0  0  0
    3.9765  -15.4695   31.4140 C   0  0  0  0  0  0  0  0  0  0  0  0
    5.4132  -15.1797   31.3821 N   0  0  0  0  0  0  0  0  0  0  0  0
    2.6470  -13.8072   29.2302 O   0  0  0  0  0  0  0  0  0  0  0  0
    5.3357   -9.4154   31.8677 C   0  0  0  0  0  0  0  0  0  0  0  0
    6.6771   -8.8814   32.3463 C   0  0  0  0  0  0  0  0  0  0  0  0
    2.1647   -3.2389   26.7466 C   0  0  1  0  0  0  0  0  0  0  0  0
    6.7663   -7.4048   32.3272 N   0  0  0  0  0  0  0  0  0  0  0  0
    2.0741   -1.8511   27.0036 O   0  0  0  0  0  0  0  0  0  0  0  0
    2.4862   -8.0474   27.4232 C   0  0  2  0  0  0  0  0  0  0  0  0
    1.9489   -7.8112   26.0869 N   0  0  0  0  0  0  0  0  0  0  0  0
    7.3567   -5.1452   33.2086 C   0  0  0  0  0  0  0  0  0  0  0  0
    8.1620   -4.7162   31.9400 N   0  0  0  0  0  0  0  0  0  0  0  0
    7.3796   -6.6793   33.4757 C   0  0  0  0  0  0  0  0  0  0  0  0
    2.1895  -11.4250   31.3871 O   0  0  0  0  0  0  0  0  0  0  0  0
    1.2631   -3.6328   25.5720 C   0  0  2  0  0  0  0  0  0  0  0  0
   -0.0862   -3.2765   25.8256 O   0  0  0  0  0  0  0  0  0  0  0  0
    3.7497   -7.2419   27.5957 C   0  0  2  0  0  0  0  0  0  0  0  0
    1.3776   -5.1614   25.3049 C   0  0  2  0  0  0  0  0  0  0  0  0
    2.7441   -5.5421   25.0417 O   0  0  0  0  0  0  0  0  0  0  0  0
    4.3664   -7.4926   29.0385 C   0  0  2  0  0  0  0  0  0  0  0  0
    5.5808   -6.6948   29.1713 O   0  0  0  0  0  0  0  0  0  0  0  0
    0.5436   -5.5872   24.1559 C   0  0  0  0  0  0  0  0  0  0  0  0
    1.3155   -5.6848   23.0512 N   0  0  0  0  0  0  0  0  0  0  0  0
    4.6956   -9.0183   29.1904 C   0  0  1  0  0  0  0  0  0  0  0  0
    5.2647   -9.2667   30.4363 O   0  0  0  0  0  0  0  0  0  0  0  0
  1  2  1  1  0  0  0
  1  5  1  0  0  0  0
  1 29  1  0  0  0  0
  3  4  1  6  0  0  0
  3  7  1  0  0  0  0
  3 34  1  0  0  0  0
  5  6  1  1  0  0  0
  5 16  1  0  0  0  0
  7 19  1  0  0  0  0
  8  4  1  0  0  0  0
  8 24  2  0  0  0  0
  9  8  1  1  0  0  0
  9 10  1  0  0  0  0
  9 13  1  0  0  0  0
 10 11  1  0  0  0  0
 11 12  1  0  0  0  0
 14 15  1  0  0  0  0
 14 35  1  0  0  0  0
 15 17  1  0  0  0  0
 16 18  1  6  0  0  0
 16 25  1  0  0  0  0
 19 20  1  6  0  0  0
 19 27  1  0  0  0  0
 21 22  1  0  0  0  0
 21 23  1  0  0  0  0
 23 17  1  0  0  0  0
 25 26  1  1  0  0  0
 25 28  1  0  0  0  0
 27  2  1  1  0  0  0
 27 30  1  0  0  0  0
 28 29  1  0  0  0  0
 28 32  1  6  0  0  0
 30 31  1  6  0  0  0
 30 34  1  0  0  0  0
 32 33  2  0  0  0  0
 34 35  1  1  0  0  0
M  END
>  <CHROM.1>
-162.69607321,-123.73581338,165.82486404,-168.46734292,63.53854711,73.91706301
-143.09560198,136.55658911,-61.01002978,179.79228423,-100.97640781,98.47124624
-48.29728582,3.71107890,-7.85960633,28.74991304,1.92866314,-0.85054752,-0.31225524

>  <Name>
2f4t_lig

>  <RI>
0

>  <Rbt.Current_Directory>
/home/itssahil/PROJECTS/Mol_Feturizer/New_Systems/rnas/2f4t

>  <Rbt.Executable>
rbdock ($Id: //depot/dev/client3/rdock/2013.1/src/exe/rbdock.cxx#4 $)

>  <Rbt.Library>
libRbt.so (2013.1, Build901 2013/11/27)

>  <Rbt.Parameter_File>
/export/apps/rDock/src/rDock_2013.1_src/data/scripts/dock_solv.prm

>  <Rbt.Receptor>
prm/pocket_docking_3.prm

>  <SCORE>
-14.777

>  <SCORE.INTER>
-14.9509

>  <SCORE.INTER.CONST>
1

>  <SCORE.INTER.POLAR>
-1.48221

>  <SCORE.INTER.ROT>
13

>  <SCORE.INTER.SOLV>
14.1567

>  <SCORE.INTER.VDW>
-22.0121

>  <SCORE.INTER.norm>
-0.427169

>  <SCORE.INTRA>
0.121997

>  <SCORE.INTRA.DIHEDRAL>
-5.87263

>  <SCORE.INTRA.DIHEDRAL.0>
23.8882

>  <SCORE.INTRA.POLAR>
0

>  <SCORE.INTRA.POLAR.0>
0

>  <SCORE.INTRA.REPUL>
0

>  <SCORE.INTRA.REPUL.0>
0

>  <SCORE.INTRA.SOLV>
5.85911

>  <SCORE.INTRA.SOLV.lig_0>
-97.6888

>  <SCORE.INTRA.VDW>
0.128759

>  <SCORE.INTRA.VDW.0>
-3.9206

>  <SCORE.INTRA.norm>
0.00348564

>  <SCORE.RESTR>
0.0519169

>  <SCORE.RESTR.CAVITY>
0.0519169

>  <SCORE.RESTR.norm>
0.00148334

>  <SCORE.SYSTEM>
0

>  <SCORE.SYSTEM.CONST>
0

>  <SCORE.SYSTEM.DIHEDRAL>
0

>  <SCORE.SYSTEM.SOLV>
0

>  <SCORE.SYSTEM.norm>
0

>  <SCORE.heavy>
35

>  <SCORE.norm>
-0.4222

>  <RMSD>
1.724

$$$$
2f4t_lig
 OpenBabel11021811433D
libRbt.so/2013.1/901 2013/11/27
 35 36  0  0  0  0  0  0  0  0999 V2000
    3.0764   -5.0086   26.0051 C   0  0  2  0  0  0  0  0  0  0  0  0
    2.5148   -5.5168   27.2595 O   0  0  0  0  0  0  0  0  0  0  0  0
    4.1461   -8.5075   29.9150 C   0  0  2  0  0  0  0  0  0  0  0  0
    4.4442   -9.8246   30.4972 N   0  0  0  0  0  0  0  0  0  0  0  0
    2.3855   -3.6339   25.7554 C   0  0  2  0  0  0  0  0  0  0  0  0
    2.5868   -2.7507   26.8802 N   0  0  0  0  0  0  0  0  0  0  0  0
    2.5916   -8.3642   29.7239 C   0  0  0  0  0  0  0  0  0  0  0  0
    3.6862  -11.0868   29.5219 C   0  0  0  0  0  0  0  0  0  0  0  0
    4.2949  -12.0624   30.5047 C   0  0  1  0  0  0  0  0  0  0  0  0
    3.1810  -12.5235   31.4473 C   0  0  0  0  0  0  0  0  0  0  0  0
    2.5518  -11.4259   32.3216 C   0  0  0  0  0  0  0  0  0  0  0  0
    1.4210  -12.0071   33.0513 N   0  0  0  0  0  0  0  0  0  0  0  0
    4.7472  -13.2183   29.8495 O   0  0  0  0  0  0  0  0  0  0  0  0
    7.5265   -8.2248   29.2004 C   0  0  0  0  0  0  0  0  0  0  0  0
    7.5220   -8.4159   30.7094 C   0  0  0  0  0  0  0  0  0  0  0  0
    0.8574   -3.8413   25.4831 C   0  0  1  0  0  0  0  0  0  0  0  0
    7.0583   -7.2250   31.4547 N   0  0  0  0  0  0  0  0  0  0  0  0
    0.2120   -2.6048   25.2490 O   0  0  0  0  0  0  0  0  0  0  0  0
    2.2131   -7.0102   29.1076 C   0  0  2  0  0  0  0  0  0  0  0  0
    0.7710   -6.9174   28.9027 N   0  0  0  0  0  0  0  0  0  0  0  0
    7.4295   -5.1915   32.8541 C   0  0  0  0  0  0  0  0  0  0  0  0
    6.0727   -4.5088   32.4866 N   0  0  0  0  0  0  0  0  0  0  0  0
    7.9988   -6.1010   31.7254 C   0  0  0  0  0  0  0  0  0  0  0  0
    3.0812  -11.0924   28.6426 O   0  0  0  0  0  0  0  0  0  0  0  0
    0.7123   -4.7668   24.2706 C   0  0  2  0  0  0  0  0  0  0  0  0
   -0.6541   -4.9872   23.9604 O   0  0  0  0  0  0  0  0  0  0  0  0
    2.9120   -6.8200   27.7847 C   0  0  2  0  0  0  0  0  0  0  0  0
    1.4290   -6.1199   24.5473 C   0  0  2  0  0  0  0  0  0  0  0  0
    2.8221   -5.9153   24.8619 O   0  0  0  0  0  0  0  0  0  0  0  0
    4.4856   -6.9323   27.9753 C   0  0  2  0  0  0  0  0  0  0  0  0
    5.1271   -6.7376   26.6793 O   0  0  0  0  0  0  0  0  0  0  0  0
    1.3412   -7.0406   23.3891 C   0  0  0  0  0  0  0  0  0  0  0  0
    0.5224   -8.0711   23.6944 N   0  0  0  0  0  0  0  0  0  0  0  0
    4.8264   -8.3528   28.5459 C   0  0  1  0  0  0  0  0  0  0  0  0
    6.2029   -8.4932   28.6981 O   0  0  0  0  0  0  0  0  0  0  0  0
  1  2  1  1  0  0  0
  1  5  1  0  0  0  0
  1 29  1  0  0  0  0
  3  4  1  6  0  0  0
  3  7  1  0  0  0  0
  3 34  1  0  0  0  0
  5  6  1  1  0  0  0
  5 16  1  0  0  0  0
  7 19  1  0  0  0  0
  8  4  1  0  0  0  0
  8 24  2  0  0  0  0
  9  8  1  6  0  0  0
  9 10  1  0  0  0  0
  9 13  1  0  0  0  0
 10 11  1  0  0  0  0
 11 12  1  0  0  0  0
 14 15  1  0  0  0  0
 14 35  1  0  0  0  0
 15 17  1  0  0  0  0
 16 18  1  6  0  0  0
 16 25  1  0  0  0  0
 19 20  1  6  0  0  0
 19 27  1  0  0  0  0
 21 22  1  0  0  0  0
 21 23  1  0  0  0  0
 23 17  1  0  0  0  0
 25 26  1  1  0  0  0
 25 28  1  0  0  0  0
 27  2  1  1  0  0  0
 27 30  1  0  0  0  0
 28 29  1  0  0  0  0
 28 32  1  6  0  0  0
 30 31  1  6  0  0  0
 30 34  1  0  0  0  0
 32 33  2  0  0  0  0
 34 35  1  1  0  0  0
M  END
>  <CHROM.1>
178.17598784,52.90002800,102.69072412,-63.30385400,174.15589954,-84.04565257
59.72078269,-81.55139765,-62.42755952,-163.20113636,177.21557900,-110.04864383
-57.08220049,3.49109088,-7.46570998,28.35309499,-2.18396421,0.73801362,2.70720194

>  <Name>
2f4t_lig

>  <RI>
0

>  <Rbt.Current_Directory>
/home/itssahil/PROJECTS/Mol_Feturizer/New_Systems/rnas/2f4t

>  <Rbt.Executable>
rbdock ($Id: //depot/dev/client3/rdock/2013.1/src/exe/rbdock.cxx#4 $)

>  <Rbt.Library>
libRbt.so (2013.1, Build901 2013/11/27)

>  <Rbt.Parameter_File>
/export/apps/rDock/src/rDock_2013.1_src/data/scripts/dock_solv.prm

>  <Rbt.Receptor>
prm/pocket_docking_2.prm

>  <SCORE>
-16.3407

>  <SCORE.INTER>
-9.41862

>  <SCORE.INTER.CONST>
1

>  <SCORE.INTER.POLAR>
-1.24529

>  <SCORE.INTER.ROT>
13

>  <SCORE.INTER.SOLV>
14.0915

>  <SCORE.INTER.VDW>
-19.0919

>  <SCORE.INTER.norm>
-0.269104

>  <SCORE.INTRA>
-8.3486

>  <SCORE.INTRA.DIHEDRAL>
-18.106

>  <SCORE.INTRA.DIHEDRAL.0>
23.8882

>  <SCORE.INTRA.POLAR>
0

>  <SCORE.INTRA.POLAR.0>
0

>  <SCORE.INTRA.REPUL>
0.011539

>  <SCORE.INTRA.REPUL.0>
0

>  <SCORE.INTRA.SOLV>
1.27975

>  <SCORE.INTRA.SOLV.lig_0>
-97.6888

>  <SCORE.INTRA.VDW>
0.00681741

>  <SCORE.INTRA.VDW.0>
-3.9206

>  <SCORE.INTRA.norm>
-0.238531

>  <SCORE.RESTR>
1.42649

>  <SCORE.RESTR.CAVITY>
1.42649

>  <SCORE.RESTR.norm>
0.0407569

>  <SCORE.SYSTEM>
0

>  <SCORE.SYSTEM.CONST>
0

>  <SCORE.SYSTEM.DIHEDRAL>
0

>  <SCORE.SYSTEM.SOLV>
0

>  <SCORE.SYSTEM.norm>
0

>  <SCORE.heavy>
35

>  <SCORE.norm>
-0.466878

>  <RMSD>
1.728

$$$$
2f4t_lig
 OpenBabel11021811433D
libRbt.so/2013.1/901 2013/11/27
 35 36  0  0  0  0  0  0  0  0999 V2000
    1.9784   -5.0411   25.3460 C   0  0  2  0  0  0  0  0  0  0  0  0
    1.4361   -6.0673   26.2405 O   0  0  0  0  0  0  0  0  0  0  0  0
    3.2333   -8.9685   28.8882 C   0  0  2  0  0  0  0  0  0  0  0  0
    3.9854  -10.1489   29.3397 N   0  0  0  0  0  0  0  0  0  0  0  0
    0.8826   -3.9366   25.2516 C   0  0  2  0  0  0  0  0  0  0  0  0
    0.5445   -3.4406   26.5650 N   0  0  0  0  0  0  0  0  0  0  0  0
    2.1712   -9.4090   27.8152 C   0  0  0  0  0  0  0  0  0  0  0  0
    2.8590  -11.3886   29.8993 C   0  0  0  0  0  0  0  0  0  0  0  0
    4.0871  -12.2266   30.1777 C   0  0  1  0  0  0  0  0  0  0  0  0
    4.6046  -11.8404   31.5652 C   0  0  0  0  0  0  0  0  0  0  0  0
    3.6054  -12.0160   32.7210 C   0  0  0  0  0  0  0  0  0  0  0  0
    4.1020  -11.2676   33.8796 N   0  0  0  0  0  0  0  0  0  0  0  0
    3.7579  -13.5889   30.2557 O   0  0  0  0  0  0  0  0  0  0  0  0
    5.6601   -6.9895   30.4056 C   0  0  0  0  0  0  0  0  0  0  0  0
    7.1606   -7.2356   30.4428 C   0  0  0  0  0  0  0  0  0  0  0  0
   -0.3881   -4.4998   24.5303 C   0  0  1  0  0  0  0  0  0  0  0  0
    7.8180   -6.6980   31.6542 N   0  0  0  0  0  0  0  0  0  0  0  0
   -1.3941   -3.5107   24.4299 O   0  0  0  0  0  0  0  0  0  0  0  0
    1.3565   -8.2172   27.2934 C   0  0  2  0  0  0  0  0  0  0  0  0
    0.4069   -8.6446   26.2707 N   0  0  0  0  0  0  0  0  0  0  0  0
    7.3411   -6.1689   34.0467 C   0  0  0  0  0  0  0  0  0  0  0  0
    6.1311   -5.2250   33.7521 N   0  0  0  0  0  0  0  0  0  0  0  0
    7.5282   -7.2959   32.9883 C   0  0  0  0  0  0  0  0  0  0  0  0
    1.7967  -11.4546   29.9793 O   0  0  0  0  0  0  0  0  0  0  0  0
    0.0321   -4.9889   23.1403 C   0  0  2  0  0  0  0  0  0  0  0  0
   -1.0797   -5.5027   22.4250 O   0  0  0  0  0  0  0  0  0  0  0  0
    2.2711   -7.1695   26.7095 C   0  0  2  0  0  0  0  0  0  0  0  0
    1.1387   -6.0747   23.2723 C   0  0  2  0  0  0  0  0  0  0  0  0
    2.2800   -5.5685   23.9953 O   0  0  0  0  0  0  0  0  0  0  0  0
    3.3277   -6.6967   27.7981 C   0  0  2  0  0  0  0  0  0  0  0  0
    4.1893   -5.6816   27.2011 O   0  0  0  0  0  0  0  0  0  0  0  0
    1.6001   -6.5593   21.9497 C   0  0  0  0  0  0  0  0  0  0  0  0
    1.0362   -7.7591   21.6883 N   0  0  0  0  0  0  0  0  0  0  0  0
    4.1759   -7.9351   28.2519 C   0  0  1  0  0  0  0  0  0  0  0  0
    5.1318   -7.5479   29.1869 O   0  0  0  0  0  0  0  0  0  0  0  0
  1  2  1  1  0  0  0
  1  5  1  0  0  0  0
  1 29  1  0  0  0  0
  3  4  1  6  0  0  0
  3  7  1  0  0  0  0
  3 34  1  0  0  0  0
  5  6  1  1  0  0  0
  5 16  1  0  0  0  0
  7 19  1  0  0  0  0
  8  4  1  0  0  0  0
  8 24  2  0  0  0  0
  9  8  1  1  0  0  0
  9 10  1  0  0  0  0
  9 13  1  0  0  0  0
 10 11  1  0  0  0  0
 11 12  1  0  0  0  0
 14 15  1  0  0  0  0
 14 35  1  0  0  0  0
 15 17  1  0  0  0  0
 16 18  1  6  0  0  0
 16 25  1  0  0  0  0
 19 20  1  6  0  0  0
 19 27  1  0  0  0  0
 21 22  1  0  0  0  0
 21 23  1  0  0  0  0
 23 17  1  0  0  0  0
 25 26  1  1  0  0  0
 25 28  1  0  0  0  0
 27  2  1  1  0  0  0
 27 30  1  0  0  0  0
 28 29  1  0  0  0  0
 28 32  1  6  0  0  0
 30 31  1  6  0  0  0
 30 34  1  0  0  0  0
 32 33  2  0  0  0  0
 34 35  1  1  0  0  0
M  END
>  <CHROM.1>
-171.31935257,-54.10447104,84.91770871,57.91987914,-164.25458089,179.77899962
174.56423997,67.38281661,62.47289061,-137.01047165,-165.50121249,-102.00361290
-60.97316854,2.98744667,-7.61691307,27.98027186,-2.42135577,0.89022254,2.76692785

>  <Name>
2f4t_lig

>  <RI>
0

>  <Rbt.Current_Directory>
/home/itssahil/PROJECTS/Mol_Feturizer/New_Systems/rnas/2f4t

>  <Rbt.Executable>
rbdock ($Id: //depot/dev/client3/rdock/2013.1/src/exe/rbdock.cxx#4 $)

>  <Rbt.Library>
libRbt.so (2013.1, Build901 2013/11/27)

>  <Rbt.Parameter_File>
/export/apps/rDock/src/rDock_2013.1_src/data/scripts/dock_solv.prm

>  <Rbt.Receptor>
prm/pocket_docking_4.prm

>  <SCORE>
-26.1564

>  <SCORE.INTER>
-18.9306

>  <SCORE.INTER.CONST>
1

>  <SCORE.INTER.POLAR>
-1.7375

>  <SCORE.INTER.ROT>
13

>  <SCORE.INTER.SOLV>
23.4795

>  <SCORE.INTER.VDW>
-26.9219

>  <SCORE.INTER.norm>
-0.540875

>  <SCORE.INTRA>
-7.22578

>  <SCORE.INTRA.DIHEDRAL>
-18.0257

>  <SCORE.INTRA.DIHEDRAL.0>
23.8882

>  <SCORE.INTRA.POLAR>
0

>  <SCORE.INTRA.POLAR.0>
0

>  <SCORE.INTRA.REPUL>
0

>  <SCORE.INTRA.REPUL.0>
0

>  <SCORE.INTRA.SOLV>
1.23475

>  <SCORE.INTRA.SOLV.lig_0>
-97.6888

>  <SCORE.INTRA.VDW>
1.16967

>  <SCORE.INTRA.VDW.0>
-3.9206

>  <SCORE.INTRA.norm>
-0.206451

>  <SCORE.RESTR>
0

>  <SCORE.RESTR.CAVITY>
0

>  <SCORE.RESTR.norm>
0

>  <SCORE.SYSTEM>
0

>  <SCORE.SYSTEM.CONST>
0

>  <SCORE.SYSTEM.DIHEDRAL>
0

>  <SCORE.SYSTEM.SOLV>
0

>  <SCORE.SYSTEM.norm>
0

>  <SCORE.heavy>
35

>  <SCORE.norm>
-0.747325

>  <RMSD>
1.744

$$$$
2f4t_lig
 OpenBabel11021811433D
libRbt.so/2013.1/901 2013/11/27
 35 36  0  0  0  0  0  0  0  0999 V2000
    2.0504   -5.2504   25.4534 C   0  0  2  0  0  0  0  0  0  0  0  0
    1.5184   -6.1536   26.4774 O   0  0  0  0  0  0  0  0  0  0  0  0
    3.2461   -8.7111   29.4992 C   0  0  2  0  0  0  0  0  0  0  0  0
    4.0210   -9.8023   30.1087 N   0  0  0  0  0  0  0  0  0  0  0  0
    1.0681   -4.0413   25.4004 C   0  0  2  0  0  0  0  0  0  0  0  0
    0.9414   -3.4303   26.7028 N   0  0  0  0  0  0  0  0  0  0  0  0
    2.3006   -9.3026   28.3902 C   0  0  0  0  0  0  0  0  0  0  0  0
    2.9248  -11.0825   30.6362 C   0  0  0  0  0  0  0  0  0  0  0  0
    4.1681  -11.8093   31.0987 C   0  0  1  0  0  0  0  0  0  0  0  0
    3.7910  -12.6283   32.3351 C   0  0  0  0  0  0  0  0  0  0  0  0
    4.9366  -13.4266   32.9798 C   0  0  0  0  0  0  0  0  0  0  0  0
    5.4310  -14.3992   32.0006 N   0  0  0  0  0  0  0  0  0  0  0  0
    4.5929  -12.7390   30.1366 O   0  0  0  0  0  0  0  0  0  0  0  0
    6.0873   -6.3477   30.3753 C   0  0  0  0  0  0  0  0  0  0  0  0
    7.3822   -6.6598   29.6408 C   0  0  0  0  0  0  0  0  0  0  0  0
   -0.3301   -4.5069   24.8708 C   0  0  1  0  0  0  0  0  0  0  0  0
    8.5453   -5.8955   30.1424 N   0  0  0  0  0  0  0  0  0  0  0  0
   -1.2360   -3.4224   24.8106 O   0  0  0  0  0  0  0  0  0  0  0  0
    1.4686   -8.2097   27.7050 C   0  0  2  0  0  0  0  0  0  0  0  0
    0.6303   -8.7771   26.6535 N   0  0  0  0  0  0  0  0  0  0  0  0
    8.8334   -6.0514   32.6171 C   0  0  0  0  0  0  0  0  0  0  0  0
    7.4586   -6.7126   32.9555 N   0  0  0  0  0  0  0  0  0  0  0  0
    9.3993   -6.4609   31.2251 C   0  0  0  0  0  0  0  0  0  0  0  0
    1.8667  -11.2204   30.6108 O   0  0  0  0  0  0  0  0  0  0  0  0
   -0.1308   -5.1247   23.4830 C   0  0  2  0  0  0  0  0  0  0  0  0
   -1.3664   -5.5582   22.9377 O   0  0  0  0  0  0  0  0  0  0  0  0
    2.3702   -7.1605   27.1039 C   0  0  2  0  0  0  0  0  0  0  0  0
    0.8685   -6.3141   23.5704 C   0  0  2  0  0  0  0  0  0  0  0  0
    2.1333   -5.8909   24.1206 O   0  0  0  0  0  0  0  0  0  0  0  0
    3.3072   -6.5360   28.2251 C   0  0  2  0  0  0  0  0  0  0  0  0
    4.1589   -5.5235   27.6098 O   0  0  0  0  0  0  0  0  0  0  0  0
    1.1169   -6.9279   22.2443 C   0  0  0  0  0  0  0  0  0  0  0  0
    2.1161   -6.2648   21.6216 N   0  0  0  0  0  0  0  0  0  0  0  0
    4.1807   -7.6789   28.8495 C   0  0  1  0  0  0  0  0  0  0  0  0
    5.0346   -7.1583   29.8178 O   0  0  0  0  0  0  0  0  0  0  0  0
  1  2  1  1  0  0  0
  1  5  1  0  0  0  0
  1 29  1  0  0  0  0
  3  4  1  6  0  0  0
  3  7  1  0  0  0  0
  3 34  1  0  0  0  0
  5  6  1  1  0  0  0
  5 16  1  0  0  0  0
  7 19  1  0  0  0  0
  8  4  1  0  0  0  0
  8 24  2  0  0  0  0
  9  8  1  6  0  0  0
  9 10  1  0  0  0  0
  9 13  1  0  0  0  0
 10 11  1  0  0  0  0
 11 12  1  0  0  0  0
 14 15  1  0  0  0  0
 14 35  1  0  0  0  0
 15 17  1  0  0  0  0
 16 18  1  6  0  0  0
 16 25  1  0  0  0  0
 19 20  1  6  0  0  0
 19 27  1  0  0  0  0
 21 22  1  0  0  0  0
 21 23  1  0  0  0  0
 23 17  1  0  0  0  0
 25 26  1  1  0  0  0
 25 28  1  0  0  0  0
 27  2  1  1  0  0  0
 27 30  1  0  0  0  0
 28 29  1  0  0  0  0
 28 32  1  6  0  0  0
 30 31  1  6  0  0  0
 30 34  1  0  0  0  0
 32 33  2  0  0  0  0
 34 35  1  1  0  0  0
M  END
>  <CHROM.1>
-160.22731315,-52.17472884,147.66302523,-178.83437796,-61.78644858,-179.21209255
-58.07504845,91.06341016,67.92165369,-88.74632093,-160.07248547,86.67941530
179.73754385,3.27811667,-7.62495066,28.06556707,-2.27897371,0.66134232,2.63719804

>  <Name>
2f4t_lig

>  <RI>
0

>  <Rbt.Current_Directory>
/home/itssahil/PROJECTS/Mol_Feturizer/New_Systems/rnas/2f4t

>  <Rbt.Executable>
rbdock ($Id: //depot/dev/client3/rdock/2013.1/src/exe/rbdock.cxx#4 $)

>  <Rbt.Library>
libRbt.so (2013.1, Build901 2013/11/27)

>  <Rbt.Parameter_File>
/export/apps/rDock/src/rDock_2013.1_src/data/scripts/dock_solv.prm

>  <Rbt.Receptor>
prm/pocket_docking_3.prm

>  <SCORE>
-19.8557

>  <SCORE.INTER>
-16.0367

>  <SCORE.INTER.CONST>
1

>  <SCORE.INTER.POLAR>
-2.26896

>  <SCORE.INTER.ROT>
13

>  <SCORE.INTER.SOLV>
21.9491

>  <SCORE.INTER.VDW>
-22.711

>  <SCORE.INTER.norm>
-0.458191

>  <SCORE.INTRA>
-3.82012

>  <SCORE.INTRA.DIHEDRAL>
-15.6043

>  <SCORE.INTRA.DIHEDRAL.0>
23.8882

>  <SCORE.INTRA.POLAR>
0

>  <SCORE.INTRA.POLAR.0>
0

>  <SCORE.INTRA.REPUL>
0

>  <SCORE.INTRA.REPUL.0>
0

>  <SCORE.INTRA.SOLV>
4.93677

>  <SCORE.INTRA.SOLV.lig_0>
-97.6888

>  <SCORE.INTRA.VDW>
1.51367

>  <SCORE.INTRA.VDW.0>
-3.9206

>  <SCORE.INTRA.norm>
-0.109146

>  <SCORE.RESTR>
0.00110513

>  <SCORE.RESTR.CAVITY>
0.00110513

>  <SCORE.RESTR.norm>
3.15752e-05

>  <SCORE.SYSTEM>
0

>  <SCORE.SYSTEM.CONST>
0

>  <SCORE.SYSTEM.DIHEDRAL>
0

>  <SCORE.SYSTEM.SOLV>
0

>  <SCORE.SYSTEM.norm>
0

>  <SCORE.heavy>
35

>  <SCORE.norm>
-0.567306

>  <RMSD>
1.750

$$$$
2f4t_lig
 OpenBabel11021811433D
libRbt.so/2013.1/901 2013/11/27
 35 36  0  0  0  0  0  0  0  0999 V2000
    2.9085   -5.2041   26.4204 C   0  0  2  0  0  0  0  0  0  0  0  0
    2.1889   -5.7794   27.5599 O   0  0  0  0  0  0  0  0  0  0  0  0
    3.7101   -8.7599   30.2912 C   0  0  2  0  0  0  0  0  0  0  0  0
    3.9859  -10.0750   30.8887 N   0  0  0  0  0  0  0  0  0  0  0  0
    2.3423   -3.7627   26.2433 C   0  0  2  0  0  0  0  0  0  0  0  0
    2.4882   -3.0043   27.4635 N   0  0  0  0  0  0  0  0  0  0  0  0
    2.1651   -8.6217   30.0313 C   0  0  0  0  0  0  0  0  0  0  0  0
    3.3322  -11.3448   29.8499 C   0  0  0  0  0  0  0  0  0  0  0  0
    3.8793  -12.3151   30.8733 C   0  0  1  0  0  0  0  0  0  0  0  0
    2.7914  -13.3549   31.1512 C   0  0  0  0  0  0  0  0  0  0  0  0
    3.0574  -14.2958   32.3384 C   0  0  0  0  0  0  0  0  0  0  0  0
    1.9713  -15.2784   32.4024 N   0  0  0  0  0  0  0  0  0  0  0  0
    4.9704  -13.0296   30.3544 O   0  0  0  0  0  0  0  0  0  0  0  0
    7.0374   -9.2457   29.7465 C   0  0  0  0  0  0  0  0  0  0  0  0
    7.1379   -8.7437   31.1787 C   0  0  0  0  0  0  0  0  0  0  0  0
    0.8391   -3.8248   25.8085 C   0  0  1  0  0  0  0  0  0  0  0  0
    7.6533   -7.3611   31.2858 N   0  0  0  0  0  0  0  0  0  0  0  0
    0.3069   -2.5256   25.6375 O   0  0  0  0  0  0  0  0  0  0  0  0
    1.8102   -7.2700   29.3961 C   0  0  2  0  0  0  0  0  0  0  0  0
    0.3783   -7.1819   29.1275 N   0  0  0  0  0  0  0  0  0  0  0  0
    9.4817   -5.6671   31.4217 C   0  0  0  0  0  0  0  0  0  0  0  0
    8.5113   -4.4974   31.0585 N   0  0  0  0  0  0  0  0  0  0  0  0
    9.0425   -7.0464   30.8472 C   0  0  0  0  0  0  0  0  0  0  0  0
    2.7993  -11.3560   28.9252 O   0  0  0  0  0  0  0  0  0  0  0  0
    0.7548   -4.6215   24.5024 C   0  0  2  0  0  0  0  0  0  0  0  0
   -0.5849   -4.7057   24.0442 O   0  0  0  0  0  0  0  0  0  0  0  0
    2.5663   -7.0804   28.1048 C   0  0  2  0  0  0  0  0  0  0  0  0
    1.3454   -6.0459   24.7110 C   0  0  2  0  0  0  0  0  0  0  0  0
    2.7101   -5.9800   25.1746 O   0  0  0  0  0  0  0  0  0  0  0  0
    4.1302   -7.1877   28.3650 C   0  0  2  0  0  0  0  0  0  0  0  0
    4.8278   -6.9937   27.0982 O   0  0  0  0  0  0  0  0  0  0  0  0
    1.3128   -6.8473   23.4646 C   0  0  0  0  0  0  0  0  0  0  0  0
    2.0745   -6.2471   22.5236 N   0  0  0  0  0  0  0  0  0  0  0  0
    4.4496   -8.6059   28.9531 C   0  0  1  0  0  0  0  0  0  0  0  0
    5.8185   -8.7419   29.1662 O   0  0  0  0  0  0  0  0  0  0  0  0
  1  2  1  1  0  0  0
  1  5  1  0  0  0  0
  1 29  1  0  0  0  0
  3  4  1  6  0  0  0
  3  7  1  0  0  0  0
  3 34  1  0  0  0  0
  5  6  1  1  0  0  0
  5 16  1  0  0  0  0
  7 19  1  0  0  0  0
  8  4  1  0  0  0  0
  8 24  2  0  0  0  0
  9  8  1  6  0  0  0
  9 10  1  0  0  0  0
  9 13  1  0  0  0  0
 10 11  1  0  0  0  0
 11 12  1  0  0  0  0
 14 15  1  0  0  0  0
 14 35  1  0  0  0  0
 15 17  1  0  0  0  0
 16 18  1  6  0  0  0
 16 25  1  0  0  0  0
 19 20  1  6  0  0  0
 19 27  1  0  0  0  0
 21 22  1  0  0  0  0
 21 23  1  0  0  0  0
 23 17  1  0  0  0  0
 25 26  1  1  0  0  0
 25 28  1  0  0  0  0
 27  2  1  1  0  0  0
 27 30  1  0  0  0  0
 28 29  1  0  0  0  0
 28 32  1  6  0  0  0
 30 31  1  6  0  0  0
 30 34  1  0  0  0  0
 32 33  2  0  0  0  0
 34 35  1  1  0  0  0
M  END
>  <CHROM.1>
-173.34723483,55.17877597,134.46221078,-170.09016747,-176.08128189,-81.35048867
-70.21887776,-64.14931225,-55.32649375,-163.90742245,170.20171818,62.00196126
36.06902279,3.55340940,-7.78573882,28.45338878,-2.00258939,0.54065402,2.65094885

>  <Name>
2f4t_lig

>  <RI>
0

>  <Rbt.Current_Directory>
/home/itssahil/PROJECTS/Mol_Feturizer/New_Systems/rnas/2f4t

>  <Rbt.Executable>
rbdock ($Id: //depot/dev/client3/rdock/2013.1/src/exe/rbdock.cxx#4 $)

>  <Rbt.Library>
libRbt.so (2013.1, Build901 2013/11/27)

>  <Rbt.Parameter_File>
/export/apps/rDock/src/rDock_2013.1_src/data/scripts/dock_solv.prm

>  <Rbt.Receptor>
prm/pocket_docking_3.prm

>  <SCORE>
-19.7505

>  <SCORE.INTER>
-14.0047

>  <SCORE.INTER.CONST>
1

>  <SCORE.INTER.POLAR>
-2.07405

>  <SCORE.INTER.ROT>
13

>  <SCORE.INTER.SOLV>
13.6056

>  <SCORE.INTER.VDW>
-19.2248

>  <SCORE.INTER.norm>
-0.400134

>  <SCORE.INTRA>
-5.75887

>  <SCORE.INTRA.DIHEDRAL>
-13.8645

>  <SCORE.INTRA.DIHEDRAL.0>
23.8882

>  <SCORE.INTRA.POLAR>
0

>  <SCORE.INTRA.POLAR.0>
0

>  <SCORE.INTRA.REPUL>
0

>  <SCORE.INTRA.REPUL.0>
0

>  <SCORE.INTRA.SOLV>
0.627831

>  <SCORE.INTRA.SOLV.lig_0>
-97.6888

>  <SCORE.INTRA.VDW>
0.859448

>  <SCORE.INTRA.VDW.0>
-3.9206

>  <SCORE.INTRA.norm>
-0.164539

>  <SCORE.RESTR>
0.0130298

>  <SCORE.RESTR.CAVITY>
0.0130298

>  <SCORE.RESTR.norm>
0.00037228

>  <SCORE.SYSTEM>
0

>  <SCORE.SYSTEM.CONST>
0

>  <SCORE.SYSTEM.DIHEDRAL>
0

>  <SCORE.SYSTEM.SOLV>
0

>  <SCORE.SYSTEM.norm>
0

>  <SCORE.heavy>
35

>  <SCORE.norm>
-0.564301

>  <RMSD>
1.796

$$$$
2f4t_lig
 OpenBabel11021811433D
libRbt.so/2013.1/901 2013/11/27
 35 36  0  0  0  0  0  0  0  0999 V2000
    2.2869   -5.2943   25.3359 C   0  0  2  0  0  0  0  0  0  0  0  0
    1.7047   -6.2010   26.3290 O   0  0  0  0  0  0  0  0  0  0  0  0
    3.1688   -9.4890   28.7171 C   0  0  2  0  0  0  0  0  0  0  0  0
    3.7435  -10.7975   29.0636 N   0  0  0  0  0  0  0  0  0  0  0  0
    1.3524   -4.0474   25.2984 C   0  0  2  0  0  0  0  0  0  0  0  0
    1.2282   -3.4638   26.6135 N   0  0  0  0  0  0  0  0  0  0  0  0
    1.9796   -9.6950   27.7087 C   0  0  0  0  0  0  0  0  0  0  0  0
    2.4609  -11.8783   29.6167 C   0  0  0  0  0  0  0  0  0  0  0  0
    3.5517  -12.9131   29.7830 C   0  0  1  0  0  0  0  0  0  0  0  0
    3.9544  -12.9260   31.2594 C   0  0  0  0  0  0  0  0  0  0  0  0
    4.4614  -11.5879   31.8229 C   0  0  0  0  0  0  0  0  0  0  0  0
    4.4302  -11.6606   33.2867 N   0  0  0  0  0  0  0  0  0  0  0  0
    3.0680  -14.2011   29.5052 O   0  0  0  0  0  0  0  0  0  0  0  0
    5.9932   -7.9760   30.1121 C   0  0  0  0  0  0  0  0  0  0  0  0
    7.4372   -8.4450   30.0211 C   0  0  0  0  0  0  0  0  0  0  0  0
   -0.0539   -4.4459   24.7364 C   0  0  1  0  0  0  0  0  0  0  0  0
    8.2620   -8.0484   31.1834 N   0  0  0  0  0  0  0  0  0  0  0  0
   -0.9168   -3.3262   24.6895 O   0  0  0  0  0  0  0  0  0  0  0  0
    1.3405   -8.3613   27.2972 C   0  0  2  0  0  0  0  0  0  0  0  0
    0.2676   -8.5753   26.3311 N   0  0  0  0  0  0  0  0  0  0  0  0
    7.9717   -5.6061   31.6105 C   0  0  0  0  0  0  0  0  0  0  0  0
    7.4770   -5.7260   33.0879 N   0  0  0  0  0  0  0  0  0  0  0  0
    8.9612   -6.7321   31.1882 C   0  0  0  0  0  0  0  0  0  0  0  0
    1.4064  -11.7826   29.7506 O   0  0  0  0  0  0  0  0  0  0  0  0
    0.1438   -5.0370   23.3367 C   0  0  2  0  0  0  0  0  0  0  0  0
   -1.0984   -5.4092   22.7622 O   0  0  0  0  0  0  0  0  0  0  0  0
    2.3750   -7.4469   26.6901 C   0  0  2  0  0  0  0  0  0  0  0  0
    1.0957   -6.2657   23.4095 C   0  0  2  0  0  0  0  0  0  0  0  0
    2.3667   -5.9049   23.9890 O   0  0  0  0  0  0  0  0  0  0  0  0
    3.5652   -7.2089   27.7157 C   0  0  2  0  0  0  0  0  0  0  0  0
    4.5413   -6.3173   27.0981 O   0  0  0  0  0  0  0  0  0  0  0  0
    1.3417   -6.8561   22.0724 C   0  0  0  0  0  0  0  0  0  0  0  0
    0.7982   -8.0920   22.0192 N   0  0  0  0  0  0  0  0  0  0  0  0
    4.2250   -8.5905   28.0551 C   0  0  1  0  0  0  0  0  0  0  0  0
    5.2917   -8.4125   28.9317 O   0  0  0  0  0  0  0  0  0  0  0  0
  1  2  1  1  0  0  0
  1  5  1  0  0  0  0
  1 29  1  0  0  0  0
  3  4  1  6  0  0  0
  3  7  1  0  0  0  0
  3 34  1  0  0  0  0
  5  6  1  1  0  0  0
  5 16  1  0  0  0  0
  7 19  1  0  0  0  0
  8  4  1  0  0  0  0
  8 24  2  0  0  0  0
  9  8  1  1  0  0  0
  9 10  1  0  0  0  0
  9 13  1  0  0  0  0
 10 11  1  0  0  0  0
 11 12  1  0  0  0  0
 14 15  1  0  0  0  0
 14 35  1  0  0  0  0
 15 17  1  0  0  0  0
 16 18  1  6  0  0  0
 16 25  1  0  0  0  0
 19 20  1  6  0  0  0
 19 27  1  0  0  0  0
 21 22  1  0  0  0  0
 21 23  1  0  0  0  0
 23 17  1  0  0  0  0
 25 26  1  1  0  0  0
 25 28  1  0  0  0  0
 27  2  1  1  0  0  0
 27 30  1  0  0  0  0
 28 29  1  0  0  0  0
 28 32  1  6  0  0  0
 30 31  1  6  0  0  0
 30 34  1  0  0  0  0
 32 33  2  0  0  0  0
 34 35  1  1  0  0  0
M  END
>  <CHROM.1>
-176.00582149,-52.71655787,98.31238681,-58.60645820,163.82131806,179.79466945
178.83494586,-88.02918926,65.96594489,81.63909514,-159.31025409,-113.58277045
-65.27117829,3.14276573,-7.95843439,27.72487557,-2.31897031,0.72582142,2.70038074

>  <Name>
2f4t_lig

>  <RI>
0

>  <Rbt.Current_Directory>
/home/itssahil/PROJECTS/Mol_Feturizer/New_Systems/rnas/2f4t

>  <Rbt.Executable>
rbdock ($Id: //depot/dev/client3/rdock/2013.1/src/exe/rbdock.cxx#4 $)

>  <Rbt.Library>
libRbt.so (2013.1, Build901 2013/11/27)

>  <Rbt.Parameter_File>
/export/apps/rDock/src/rDock_2013.1_src/data/scripts/dock_solv.prm

>  <Rbt.Receptor>
prm/pocket_docking_4.prm

>  <SCORE>
-23.9634

>  <SCORE.INTER>
-16.5912

>  <SCORE.INTER.CONST>
1

>  <SCORE.INTER.POLAR>
-1.44919

>  <SCORE.INTER.ROT>
13

>  <SCORE.INTER.SOLV>
23.676

>  <SCORE.INTER.VDW>
-26.3888

>  <SCORE.INTER.norm>
-0.474033

>  <SCORE.INTRA>
-7.3722

>  <SCORE.INTRA.DIHEDRAL>
-16.9685

>  <SCORE.INTRA.DIHEDRAL.0>
23.8882

>  <SCORE.INTRA.POLAR>
0

>  <SCORE.INTRA.POLAR.0>
0

>  <SCORE.INTRA.REPUL>
0

>  <SCORE.INTRA.REPUL.0>
0

>  <SCORE.INTRA.SOLV>
1.15561

>  <SCORE.INTRA.SOLV.lig_0>
-97.6888

>  <SCORE.INTRA.VDW>
0.534267

>  <SCORE.INTRA.VDW.0>
-3.9206

>  <SCORE.INTRA.norm>
-0.210634

>  <SCORE.RESTR>
0

>  <SCORE.RESTR.CAVITY>
0

>  <SCORE.RESTR.norm>
0

>  <SCORE.SYSTEM>
0

>  <SCORE.SYSTEM.CONST>
0

>  <SCORE.SYSTEM.DIHEDRAL>
0

>  <SCORE.SYSTEM.SOLV>
0

>  <SCORE.SYSTEM.norm>
0

>  <SCORE.heavy>
35

>  <SCORE.norm>
-0.684668

>  <RMSD>
1.802

$$$$
2f4t_lig
 OpenBabel11021811433D
libRbt.so/2013.1/901 2013/11/27
 35 36  0  0  0  0  0  0  0  0999 V2000
    3.5918   -5.1937   26.4611 C   0  0  2  0  0  0  0  0  0  0  0  0
    2.9549   -5.9547   27.5393 O   0  0  0  0  0  0  0  0  0  0  0  0
    2.9082   -9.9272   29.2346 C   0  0  2  0  0  0  0  0  0  0  0  0
    3.0954  -11.3808   29.3559 N   0  0  0  0  0  0  0  0  0  0  0  0
    3.4481   -3.6930   26.8569 C   0  0  2  0  0  0  0  0  0  0  0  0
    4.0275   -3.4512   28.1574 N   0  0  0  0  0  0  0  0  0  0  0  0
    2.1350   -9.6131   27.9016 C   0  0  0  0  0  0  0  0  0  0  0  0
    1.6174  -12.1166   29.9826 C   0  0  0  0  0  0  0  0  0  0  0  0
    2.3554  -13.4328   29.8771 C   0  0  1  0  0  0  0  0  0  0  0  0
    2.9413  -13.7452   31.2559 C   0  0  0  0  0  0  0  0  0  0  0  0
    3.7917  -15.0237   31.3438 C   0  0  0  0  0  0  0  0  0  0  0  0
    4.8435  -14.9507   30.3253 N   0  0  0  0  0  0  0  0  0  0  0  0
    1.4699  -14.4829   29.5888 O   0  0  0  0  0  0  0  0  0  0  0  0
    5.9923   -9.3694   31.3715 C   0  0  0  0  0  0  0  0  0  0  0  0
    5.9835   -7.9463   31.9084 C   0  0  0  0  0  0  0  0  0  0  0  0
    1.9393   -3.2739   26.8384 C   0  0  1  0  0  0  0  0  0  0  0  0
    7.0341   -7.6887   32.9175 N   0  0  0  0  0  0  0  0  0  0  0  0
    1.7871   -1.9126   27.1905 O   0  0  0  0  0  0  0  0  0  0  0  0
    1.9157   -8.1060   27.7087 C   0  0  2  0  0  0  0  0  0  0  0  0
    1.2332   -7.8374   26.4468 N   0  0  0  0  0  0  0  0  0  0  0  0
    7.5296   -5.2480   33.0888 C   0  0  0  0  0  0  0  0  0  0  0  0
    7.3126   -3.9123   33.8702 N   0  0  0  0  0  0  0  0  0  0  0  0
    6.9382   -6.4968   33.8073 C   0  0  0  0  0  0  0  0  0  0  0  0
    0.6635  -11.7433   30.2825 O   0  0  0  0  0  0  0  0  0  0  0  0
    1.3910   -3.5346   25.4316 C   0  0  2  0  0  0  0  0  0  0  0  0
    0.0251   -3.1631   25.3417 O   0  0  0  0  0  0  0  0  0  0  0  0
    3.2356   -7.3762   27.7201 C   0  0  2  0  0  0  0  0  0  0  0  0
    1.5683   -5.0359   25.0631 C   0  0  2  0  0  0  0  0  0  0  0  0
    2.9534   -5.4314   25.1460 O   0  0  0  0  0  0  0  0  0  0  0  0
    4.0090   -7.6640   29.0780 C   0  0  2  0  0  0  0  0  0  0  0  0
    5.2750   -6.9388   29.0560 O   0  0  0  0  0  0  0  0  0  0  0  0
    1.0781   -5.3327   23.6961 C   0  0  0  0  0  0  0  0  0  0  0  0
    1.8942   -6.2372   23.1118 N   0  0  0  0  0  0  0  0  0  0  0  0
    4.2648   -9.2065   29.1979 C   0  0  1  0  0  0  0  0  0  0  0  0
    4.9671   -9.4890   30.3662 O   0  0  0  0  0  0  0  0  0  0  0  0
  1  2  1  1  0  0  0
  1  5  1  0  0  0  0
  1 29  1  0  0  0  0
  3  4  1  6  0  0  0
  3  7  1  0  0  0  0
  3 34  1  0  0  0  0
  5  6  1  1  0  0  0
  5 16  1  0  0  0  0
  7 19  1  0  0  0  0
  8  4  1  0  0  0  0
  8 24  2  0  0  0  0
  9  8  1  1  0  0  0
  9 10  1  0  0  0  0
  9 13  1  0  0  0  0
 10 11  1  0  0  0  0
 11 12  1  0  0  0  0
 14 15  1  0  0  0  0
 14 35  1  0  0  0  0
 15 17  1  0  0  0  0
 16 18  1  6  0  0  0
 16 25  1  0  0  0  0
 19 20  1  6  0  0  0
 19 27  1  0  0  0  0
 21 22  1  0  0  0  0
 21 23  1  0  0  0  0
 23 17  1  0  0  0  0
 25 26  1  1  0  0  0
 25 28  1  0  0  0  0
 27  2  1  1  0  0  0
 27 30  1  0  0  0  0
 28 29  1  0  0  0  0
 28 32  1  6  0  0  0
 30 31  1  6  0  0  0
 30 34  1  0  0  0  0
 32 33  2  0  0  0  0
 34 35  1  1  0  0  0
M  END
>  <CHROM.1>
-161.59984678,-81.08509211,96.37769415,-177.30887611,54.39031429,-177.83592623
56.90430864,-163.09019339,172.75993464,-84.62092836,-125.15274770,142.37231574
-167.56602468,3.37360951,-7.87621244,28.76702229,1.82992718,-0.88179175,-0.33034854

>  <Name>
2f4t_lig

>  <RI>
0

>  <Rbt.Current_Directory>
/home/itssahil/PROJECTS/Mol_Feturizer/New_Systems/rnas/2f4t

>  <Rbt.Executable>
rbdock ($Id: //depot/dev/client3/rdock/2013.1/src/exe/rbdock.cxx#4 $)

>  <Rbt.Library>
libRbt.so (2013.1, Build901 2013/11/27)

>  <Rbt.Parameter_File>
/export/apps/rDock/src/rDock_2013.1_src/data/scripts/dock_solv.prm

>  <Rbt.Receptor>
prm/pocket_docking_4.prm

>  <SCORE>
-23.4393

>  <SCORE.INTER>
-20.2037

>  <SCORE.INTER.CONST>
1

>  <SCORE.INTER.POLAR>
-2.61179

>  <SCORE.INTER.ROT>
13

>  <SCORE.INTER.SOLV>
17.701

>  <SCORE.INTER.VDW>
-22.9302

>  <SCORE.INTER.norm>
-0.577249

>  <SCORE.INTRA>
-3.23556

>  <SCORE.INTRA.DIHEDRAL>
-10.1869

>  <SCORE.INTRA.DIHEDRAL.0>
23.8882

>  <SCORE.INTRA.POLAR>
0

>  <SCORE.INTRA.POLAR.0>
0

>  <SCORE.INTRA.REPUL>
0

>  <SCORE.INTRA.REPUL.0>
0

>  <SCORE.INTRA.SOLV>
2.95528

>  <SCORE.INTRA.SOLV.lig_0>
-97.6888

>  <SCORE.INTRA.VDW>
0.380237

>  <SCORE.INTRA.VDW.0>
-3.9206

>  <SCORE.INTRA.norm>
-0.0924447

>  <SCORE.RESTR>
0

>  <SCORE.RESTR.CAVITY>
0

>  <SCORE.RESTR.norm>
0

>  <SCORE.SYSTEM>
0

>  <SCORE.SYSTEM.CONST>
0

>  <SCORE.SYSTEM.DIHEDRAL>
0

>  <SCORE.SYSTEM.SOLV>
0

>  <SCORE.SYSTEM.norm>
0

>  <SCORE.heavy>
35

>  <SCORE.norm>
-0.669694

>  <RMSD>
1.813

$$$$
2f4t_lig
 OpenBabel11021811433D
libRbt.so/2013.1/901 2013/11/27
 35 36  0  0  0  0  0  0  0  0999 V2000
    2.7117   -5.4116   25.7316 C   0  0  2  0  0  0  0  0  0  0  0  0
    2.0360   -6.3403   26.6417 O   0  0  0  0  0  0  0  0  0  0  0  0
    3.2806   -9.8110   28.8917 C   0  0  2  0  0  0  0  0  0  0  0  0
    3.7618  -11.1696   29.1839 N   0  0  0  0  0  0  0  0  0  0  0  0
    1.9979   -4.0385   25.9175 C   0  0  2  0  0  0  0  0  0  0  0  0
    2.0381   -3.6264   27.3009 N   0  0  0  0  0  0  0  0  0  0  0  0
    2.0693   -9.8932   27.8920 C   0  0  0  0  0  0  0  0  0  0  0  0
    3.0377  -11.7418   30.6895 C   0  0  0  0  0  0  0  0  0  0  0  0
    3.8171  -13.0168   30.4545 C   0  0  1  0  0  0  0  0  0  0  0  0
    3.8372  -13.7950   31.7720 C   0  0  0  0  0  0  0  0  0  0  0  0
    4.8597  -13.3125   32.8146 C   0  0  0  0  0  0  0  0  0  0  0  0
    4.4512  -11.9851   33.2837 N   0  0  0  0  0  0  0  0  0  0  0  0
    3.1599  -13.8434   29.5298 O   0  0  0  0  0  0  0  0  0  0  0  0
    6.4737   -9.3611   30.0516 C   0  0  0  0  0  0  0  0  0  0  0  0
    5.8070   -9.5889   31.3996 C   0  0  0  0  0  0  0  0  0  0  0  0
    0.5187   -4.1283   25.4112 C   0  0  1  0  0  0  0  0  0  0  0  0
    5.1397   -8.3842   31.9402 N   0  0  0  0  0  0  0  0  0  0  0  0
   -0.1462   -2.8897   25.5668 O   0  0  0  0  0  0  0  0  0  0  0  0
    1.5251   -8.5025   27.5366 C   0  0  2  0  0  0  0  0  0  0  0  0
    0.4296   -8.6026   26.5774 N   0  0  0  0  0  0  0  0  0  0  0  0
    4.4870   -8.3026   34.3482 C   0  0  0  0  0  0  0  0  0  0  0  0
    3.0401   -7.7786   34.0770 N   0  0  0  0  0  0  0  0  0  0  0  0
    5.5262   -7.8541   33.2785 C   0  0  0  0  0  0  0  0  0  0  0  0
    2.3598  -11.3249   31.4007 O   0  0  0  0  0  0  0  0  0  0  0  0
    0.5454   -4.5480   23.9378 C   0  0  2  0  0  0  0  0  0  0  0  0
   -0.7684   -4.6365   23.4108 O   0  0  0  0  0  0  0  0  0  0  0  0
    2.6173   -7.6439   26.9493 C   0  0  2  0  0  0  0  0  0  0  0  0
    1.2811   -5.9108   23.7879 C   0  0  2  0  0  0  0  0  0  0  0  0
    2.6216   -5.8388   24.3163 O   0  0  0  0  0  0  0  0  0  0  0  0
    3.8321   -7.5306   27.9674 C   0  0  2  0  0  0  0  0  0  0  0  0
    4.8643   -6.6901   27.3697 O   0  0  0  0  0  0  0  0  0  0  0  0
    1.3586   -6.3460   22.3731 C   0  0  0  0  0  0  0  0  0  0  0  0
    0.7755   -7.5579   22.2425 N   0  0  0  0  0  0  0  0  0  0  0  0
    4.3928   -8.9679   28.2488 C   0  0  1  0  0  0  0  0  0  0  0  0
    5.4785   -8.8999   29.1174 O   0  0  0  0  0  0  0  0  0  0  0  0
  1  2  1  1  0  0  0
  1  5  1  0  0  0  0
  1 29  1  0  0  0  0
  3  4  1  6  0  0  0
  3  7  1  0  0  0  0
  3 34  1  0  0  0  0
  5  6  1  1  0  0  0
  5 16  1  0  0  0  0
  7 19  1  0  0  0  0
  8  4  1  0  0  0  0
  8 24  2  0  0  0  0
  9  8  1  1  0  0  0
  9 10  1  0  0  0  0
  9 13  1  0  0  0  0
 10 11  1  0  0  0  0
 11 12  1  0  0  0  0
 14 15  1  0  0  0  0
 14 35  1  0  0  0  0
 15 17  1  0  0  0  0
 16 18  1  6  0  0  0
 16 25  1  0  0  0  0
 19 20  1  6  0  0  0
 19 27  1  0  0  0  0
 21 22  1  0  0  0  0
 21 23  1  0  0  0  0
 23 17  1  0  0  0  0
 25 26  1  1  0  0  0
 25 28  1  0  0  0  0
 27  2  1  1  0  0  0
 27 30  1  0  0  0  0
 28 29  1  0  0  0  0
 28 32  1  6  0  0  0
 30 31  1  6  0  0  0
 30 34  1  0  0  0  0
 32 33  2  0  0  0  0
 34 35  1  1  0  0  0
M  END
>  <CHROM.1>
-166.70913869,-96.38006943,164.10707397,-79.42693171,67.65038545,-57.78422607
-74.78788105,-122.70636222,-61.25387993,-100.37277739,-162.76780180,-122.22772871
44.05760423,2.94814607,-8.25527111,28.32552028,-2.49557678,1.14732920,3.13413670

>  <Name>
2f4t_lig

>  <RI>
0

>  <Rbt.Current_Directory>
/home/itssahil/PROJECTS/Mol_Feturizer/New_Systems/rnas/2f4t

>  <Rbt.Executable>
rbdock ($Id: //depot/dev/client3/rdock/2013.1/src/exe/rbdock.cxx#4 $)

>  <Rbt.Library>
libRbt.so (2013.1, Build901 2013/11/27)

>  <Rbt.Parameter_File>
/export/apps/rDock/src/rDock_2013.1_src/data/scripts/dock_solv.prm

>  <Rbt.Receptor>
prm/pocket_docking_5.prm

>  <SCORE>
-21.8244

>  <SCORE.INTER>
-16.8383

>  <SCORE.INTER.CONST>
1

>  <SCORE.INTER.POLAR>
-1.28458

>  <SCORE.INTER.ROT>
13

>  <SCORE.INTER.SOLV>
18.4574

>  <SCORE.INTER.VDW>
-25.3627

>  <SCORE.INTER.norm>
-0.481093

>  <SCORE.INTRA>
-4.9861

>  <SCORE.INTRA.DIHEDRAL>
-13.2256

>  <SCORE.INTRA.DIHEDRAL.0>
23.8882

>  <SCORE.INTRA.POLAR>
0

>  <SCORE.INTRA.POLAR.0>
0

>  <SCORE.INTRA.REPUL>
0

>  <SCORE.INTRA.REPUL.0>
0

>  <SCORE.INTRA.SOLV>
6.85912

>  <SCORE.INTRA.SOLV.lig_0>
-97.6888

>  <SCORE.INTRA.VDW>
-1.80286

>  <SCORE.INTRA.VDW.0>
-3.9206

>  <SCORE.INTRA.norm>
-0.14246

>  <SCORE.RESTR>
0

>  <SCORE.RESTR.CAVITY>
0

>  <SCORE.RESTR.norm>
0

>  <SCORE.SYSTEM>
0

>  <SCORE.SYSTEM.CONST>
0

>  <SCORE.SYSTEM.DIHEDRAL>
0

>  <SCORE.SYSTEM.SOLV>
0

>  <SCORE.SYSTEM.norm>
0

>  <SCORE.heavy>
35

>  <SCORE.norm>
-0.623553

>  <RMSD>
1.847

$$$$
2f4t_lig
 OpenBabel11021811433D
libRbt.so/2013.1/901 2013/11/27
 35 36  0  0  0  0  0  0  0  0999 V2000
    2.9429   -5.8899   26.5095 C   0  0  2  0  0  0  0  0  0  0  0  0
    2.0207   -6.4208   27.5170 O   0  0  0  0  0  0  0  0  0  0  0  0
    2.5073   -8.6425   31.1891 C   0  0  2  0  0  0  0  0  0  0  0  0
    2.8381   -9.7450   32.1043 N   0  0  0  0  0  0  0  0  0  0  0  0
    2.8491   -4.3381   26.6223 C   0  0  2  0  0  0  0  0  0  0  0  0
    3.1489   -3.9059   27.9672 N   0  0  0  0  0  0  0  0  0  0  0  0
    1.5797   -9.1827   30.0397 C   0  0  0  0  0  0  0  0  0  0  0  0
    3.5931  -11.0591   31.1978 C   0  0  0  0  0  0  0  0  0  0  0  0
    3.6879  -11.7773   32.5257 C   0  0  1  0  0  0  0  0  0  0  0  0
    4.2939  -13.1575   32.2619 C   0  0  0  0  0  0  0  0  0  0  0  0
    3.4388  -14.1076   31.4068 C   0  0  0  0  0  0  0  0  0  0  0  0
    4.0580  -15.4362   31.4316 N   0  0  0  0  0  0  0  0  0  0  0  0
    4.5822  -11.1230   33.3873 O   0  0  0  0  0  0  0  0  0  0  0  0
    5.0266   -6.8310   32.7222 C   0  0  0  0  0  0  0  0  0  0  0  0
    6.3974   -7.3178   33.1664 C   0  0  0  0  0  0  0  0  0  0  0  0
    1.4241   -3.8525   26.1912 C   0  0  1  0  0  0  0  0  0  0  0  0
    7.4641   -7.0686   32.1721 N   0  0  0  0  0  0  0  0  0  0  0  0
    1.3195   -2.4449   26.2818 O   0  0  0  0  0  0  0  0  0  0  0  0
    1.2051   -8.0794   29.0403 C   0  0  2  0  0  0  0  0  0  0  0  0
    0.3785   -8.6134   27.9623 N   0  0  0  0  0  0  0  0  0  0  0  0
    8.5041   -4.9570   31.3410 C   0  0  0  0  0  0  0  0  0  0  0  0
    7.2800   -3.9897   31.4308 N   0  0  0  0  0  0  0  0  0  0  0  0
    8.5190   -6.0525   32.4478 C   0  0  0  0  0  0  0  0  0  0  0  0
    3.8428  -11.2148   30.1718 O   0  0  0  0  0  0  0  0  0  0  0  0
    1.1763   -4.3232   24.7543 C   0  0  2  0  0  0  0  0  0  0  0  0
   -0.0985   -3.9039   24.2951 O   0  0  0  0  0  0  0  0  0  0  0  0
    2.4471   -7.4609   28.4488 C   0  0  2  0  0  0  0  0  0  0  0  0
    1.2966   -5.8725   24.6755 C   0  0  2  0  0  0  0  0  0  0  0  0
    2.5894   -6.3176   25.1363 O   0  0  0  0  0  0  0  0  0  0  0  0
    3.3749   -6.8847   29.6029 C   0  0  2  0  0  0  0  0  0  0  0  0
    4.5606   -6.2905   28.9946 O   0  0  0  0  0  0  0  0  0  0  0  0
    1.0932   -6.3748   23.2959 C   0  0  0  0  0  0  0  0  0  0  0  0
    2.1689   -6.0626   22.5402 N   0  0  0  0  0  0  0  0  0  0  0  0
    3.7817   -8.0590   30.5594 C   0  0  1  0  0  0  0  0  0  0  0  0
    4.6198   -7.5909   31.5675 O   0  0  0  0  0  0  0  0  0  0  0  0
  1  2  1  1  0  0  0
  1  5  1  0  0  0  0
  1 29  1  0  0  0  0
  3  4  1  1  0  0  0
  3  7  1  0  0  0  0
  3 34  1  0  0  0  0
  5  6  1  1  0  0  0
  5 16  1  0  0  0  0
  7 19  1  0  0  0  0
  8  4  1  0  0  0  0
  8 24  2  0  0  0  0
  9  8  1  6  0  0  0
  9 10  1  0  0  0  0
  9 13  1  0  0  0  0
 10 11  1  0  0  0  0
 11 12  1  0  0  0  0
 14 15  1  0  0  0  0
 14 35  1  0  0  0  0
 15 17  1  0  0  0  0
 16 18  1  6  0  0  0
 16 25  1  0  0  0  0
 19 20  1  6  0  0  0
 19 27  1  0  0  0  0
 21 22  1  0  0  0  0
 21 23  1  0  0  0  0
 23 17  1  0  0  0  0
 25 26  1  1  0  0  0
 25 28  1  0  0  0  0
 27  2  1  6  0  0  0
 27 30  1  0  0  0  0
 28 29  1  0  0  0  0
 28 32  1  6  0  0  0
 30 31  1  6  0  0  0
 30 34  1  0  0  0  0
 32 33  2  0  0  0  0
 34 35  1  1  0  0  0
M  END
>  <CHROM.1>
-130.88719645,56.65552667,177.63519910,-65.22331056,-171.10314659,64.49672816
171.44929251,110.16898408,72.48533276,-120.94284577,-162.74773959,72.38299717
-55.36860941,3.43659705,-7.53644994,29.17183749,2.06889015,-0.81519749,-0.48996981

>  <Name>
2f4t_lig

>  <RI>
0

>  <Rbt.Current_Directory>
/home/itssahil/PROJECTS/Mol_Feturizer/New_Systems/rnas/2f4t

>  <Rbt.Executable>
rbdock ($Id: //depot/dev/client3/rdock/2013.1/src/exe/rbdock.cxx#4 $)

>  <Rbt.Library>
libRbt.so (2013.1, Build901 2013/11/27)

>  <Rbt.Parameter_File>
/export/apps/rDock/src/rDock_2013.1_src/data/scripts/dock_solv.prm

>  <Rbt.Receptor>
prm/pocket_docking_4.prm

>  <SCORE>
-13.9458

>  <SCORE.INTER>
-11.2608

>  <SCORE.INTER.CONST>
1

>  <SCORE.INTER.POLAR>
-2.05571

>  <SCORE.INTER.ROT>
13

>  <SCORE.INTER.SOLV>
12.0732

>  <SCORE.INTER.VDW>
-16.9459

>  <SCORE.INTER.norm>
-0.321736

>  <SCORE.INTRA>
-2.68505

>  <SCORE.INTRA.DIHEDRAL>
-9.44823

>  <SCORE.INTRA.DIHEDRAL.0>
23.8882

>  <SCORE.INTRA.POLAR>
0

>  <SCORE.INTRA.POLAR.0>
0

>  <SCORE.INTRA.REPUL>
0

>  <SCORE.INTRA.REPUL.0>
0

>  <SCORE.INTRA.SOLV>
3.71242

>  <SCORE.INTRA.SOLV.lig_0>
-97.6888

>  <SCORE.INTRA.VDW>
0.182852

>  <SCORE.INTRA.VDW.0>
-3.9206

>  <SCORE.INTRA.norm>
-0.0767158

>  <SCORE.RESTR>
0

>  <SCORE.RESTR.CAVITY>
0

>  <SCORE.RESTR.norm>
0

>  <SCORE.SYSTEM>
0

>  <SCORE.SYSTEM.CONST>
0

>  <SCORE.SYSTEM.DIHEDRAL>
0

>  <SCORE.SYSTEM.SOLV>
0

>  <SCORE.SYSTEM.norm>
0

>  <SCORE.heavy>
35

>  <SCORE.norm>
-0.398452

>  <RMSD>
1.853

$$$$
2f4t_lig
 OpenBabel11021811433D
libRbt.so/2013.1/901 2013/11/27
 35 36  0  0  0  0  0  0  0  0999 V2000
    2.9680   -5.1718   26.4074 C   0  0  2  0  0  0  0  0  0  0  0  0
    2.2602   -5.7962   27.5282 O   0  0  0  0  0  0  0  0  0  0  0  0
    3.7355   -8.9842   30.0415 C   0  0  2  0  0  0  0  0  0  0  0  0
    3.9862  -10.3418   30.5482 N   0  0  0  0  0  0  0  0  0  0  0  0
    2.5136   -3.6808   26.3945 C   0  0  2  0  0  0  0  0  0  0  0  0
    2.7802   -3.0558   27.6687 N   0  0  0  0  0  0  0  0  0  0  0  0
    2.1920   -8.7947   29.8066 C   0  0  0  0  0  0  0  0  0  0  0  0
    3.1920  -11.5199   29.4993 C   0  0  0  0  0  0  0  0  0  0  0  0
    3.7623  -12.5700   30.4267 C   0  0  1  0  0  0  0  0  0  0  0  0
    2.7962  -13.7569   30.4298 C   0  0  0  0  0  0  0  0  0  0  0  0
    2.8665  -14.6693   31.6657 C   0  0  0  0  0  0  0  0  0  0  0  0
    4.2198  -15.2263   31.7534 N   0  0  0  0  0  0  0  0  0  0  0  0
    4.9795  -13.0664   29.9345 O   0  0  0  0  0  0  0  0  0  0  0  0
    7.2305   -9.0340   28.5563 C   0  0  0  0  0  0  0  0  0  0  0  0
    8.0578   -8.7290   29.7956 C   0  0  0  0  0  0  0  0  0  0  0  0
    0.9910   -3.5856   26.0408 C   0  0  1  0  0  0  0  0  0  0  0  0
    8.0676   -7.2957   30.1618 N   0  0  0  0  0  0  0  0  0  0  0  0
    0.5591   -2.2389   26.0192 O   0  0  0  0  0  0  0  0  0  0  0  0
    1.8628   -7.3964   29.2656 C   0  0  2  0  0  0  0  0  0  0  0  0
    0.4312   -7.2588   29.0175 N   0  0  0  0  0  0  0  0  0  0  0  0
    7.4013   -7.2945   32.5675 C   0  0  0  0  0  0  0  0  0  0  0  0
    7.5455   -6.5786   33.9490 N   0  0  0  0  0  0  0  0  0  0  0  0
    8.4854   -6.8777   31.5301 C   0  0  0  0  0  0  0  0  0  0  0  0
    2.5920  -11.4548   28.6190 O   0  0  0  0  0  0  0  0  0  0  0  0
    0.7785   -4.2452   24.6743 C   0  0  2  0  0  0  0  0  0  0  0  0
   -0.5843   -4.1821   24.2862 O   0  0  0  0  0  0  0  0  0  0  0  0
    2.6123   -7.1385   27.9823 C   0  0  2  0  0  0  0  0  0  0  0  0
    1.2601   -5.7241   24.7186 C   0  0  2  0  0  0  0  0  0  0  0  0
    2.6465   -5.8077   25.1090 O   0  0  0  0  0  0  0  0  0  0  0  0
    4.1754   -7.2976   28.2194 C   0  0  2  0  0  0  0  0  0  0  0  0
    4.8666   -7.0357   26.9613 O   0  0  0  0  0  0  0  0  0  0  0  0
    1.1015   -6.3981   23.4081 C   0  0  0  0  0  0  0  0  0  0  0  0
    2.1845   -6.1483   22.6396 N   0  0  0  0  0  0  0  0  0  0  0  0
    4.4672   -8.7585   28.7093 C   0  0  1  0  0  0  0  0  0  0  0  0
    5.8343   -8.9388   28.8994 O   0  0  0  0  0  0  0  0  0  0  0  0
  1  2  1  1  0  0  0
  1  5  1  0  0  0  0
  1 29  1  0  0  0  0
  3  4  1  6  0  0  0
  3  7  1  0  0  0  0
  3 34  1  0  0  0  0
  5  6  1  1  0  0  0
  5 16  1  0  0  0  0
  7 19  1  0  0  0  0
  8  4  1  0  0  0  0
  8 24  2  0  0  0  0
  9  8  1  6  0  0  0
  9 10  1  0  0  0  0
  9 13  1  0  0  0  0
 10 11  1  0  0  0  0
 11 12  1  0  0  0  0
 14 15  1  0  0  0  0
 14 35  1  0  0  0  0
 15 17  1  0  0  0  0
 16 18  1  6  0  0  0
 16 25  1  0  0  0  0
 19 20  1  6  0  0  0
 19 27  1  0  0  0  0
 21 22  1  0  0  0  0
 21 23  1  0  0  0  0
 23 17  1  0  0  0  0
 25 26  1  1  0  0  0
 25 28  1  0  0  0  0
 27  2  1  1  0  0  0
 27 30  1  0  0  0  0
 28 29  1  0  0  0  0
 28 32  1  6  0  0  0
 30 31  1  6  0  0  0
 30 34  1  0  0  0  0
 32 33  2  0  0  0  0
 34 35  1  1  0  0  0
M  END
>  <CHROM.1>
-169.58600378,50.98191569,149.72681093,-157.02621700,-60.23676316,-73.65847301
155.89096921,162.47095897,-164.35007317,-70.62074903,171.24683441,85.51872706
176.70200363,3.57180022,-7.88201021,28.36368861,-2.06951769,0.64789639,2.78182185

>  <Name>
2f4t_lig

>  <RI>
0

>  <Rbt.Current_Directory>
/home/itssahil/PROJECTS/Mol_Feturizer/New_Systems/rnas/2f4t

>  <Rbt.Executable>
rbdock ($Id: //depot/dev/client3/rdock/2013.1/src/exe/rbdock.cxx#4 $)

>  <Rbt.Library>
libRbt.so (2013.1, Build901 2013/11/27)

>  <Rbt.Parameter_File>
/export/apps/rDock/src/rDock_2013.1_src/data/scripts/dock_solv.prm

>  <Rbt.Receptor>
prm/pocket_docking_3.prm

>  <SCORE>
-20.4873

>  <SCORE.INTER>
-15.4714

>  <SCORE.INTER.CONST>
1

>  <SCORE.INTER.POLAR>
-2.24989

>  <SCORE.INTER.ROT>
13

>  <SCORE.INTER.SOLV>
19.1516

>  <SCORE.INTER.VDW>
-21.4652

>  <SCORE.INTER.norm>
-0.442041

>  <SCORE.INTRA>
-5.01582

>  <SCORE.INTRA.DIHEDRAL>
-13.6956

>  <SCORE.INTRA.DIHEDRAL.0>
23.8882

>  <SCORE.INTRA.POLAR>
0

>  <SCORE.INTRA.POLAR.0>
0

>  <SCORE.INTRA.REPUL>
0

>  <SCORE.INTRA.REPUL.0>
0

>  <SCORE.INTRA.SOLV>
0.991077

>  <SCORE.INTRA.SOLV.lig_0>
-97.6888

>  <SCORE.INTRA.VDW>
1.33644

>  <SCORE.INTRA.VDW.0>
-3.9206

>  <SCORE.INTRA.norm>
-0.143309

>  <SCORE.RESTR>
0

>  <SCORE.RESTR.CAVITY>
0

>  <SCORE.RESTR.norm>
0

>  <SCORE.SYSTEM>
0

>  <SCORE.SYSTEM.CONST>
0

>  <SCORE.SYSTEM.DIHEDRAL>
0

>  <SCORE.SYSTEM.SOLV>
0

>  <SCORE.SYSTEM.norm>
0

>  <SCORE.heavy>
35

>  <SCORE.norm>
-0.58535

>  <RMSD>
1.858

$$$$
2f4t_lig
 OpenBabel11021811433D
libRbt.so/2013.1/901 2013/11/27
 35 36  0  0  0  0  0  0  0  0999 V2000
    2.7337   -5.6939   26.5227 C   0  0  2  0  0  0  0  0  0  0  0  0
    1.9700   -6.4437   27.5236 O   0  0  0  0  0  0  0  0  0  0  0  0
    3.4389   -9.6869   29.9691 C   0  0  2  0  0  0  0  0  0  0  0  0
    3.7431  -11.0555   30.4132 N   0  0  0  0  0  0  0  0  0  0  0  0
    2.1537   -4.2472   26.5408 C   0  0  2  0  0  0  0  0  0  0  0  0
    2.2294   -3.6844   27.8685 N   0  0  0  0  0  0  0  0  0  0  0  0
    1.9147   -9.5898   29.5938 C   0  0  0  0  0  0  0  0  0  0  0  0
    2.9688  -12.2144   29.3286 C   0  0  0  0  0  0  0  0  0  0  0  0
    3.5901  -13.2829   30.2007 C   0  0  1  0  0  0  0  0  0  0  0  0
    2.8983  -14.6075   29.8711 C   0  0  0  0  0  0  0  0  0  0  0  0
    1.4047  -14.6857   30.2294 C   0  0  0  0  0  0  0  0  0  0  0  0
    1.2829  -14.7813   31.6871 N   0  0  0  0  0  0  0  0  0  0  0  0
    4.9445  -13.4666   29.8811 O   0  0  0  0  0  0  0  0  0  0  0  0
    6.8769   -9.0954   29.6879 C   0  0  0  0  0  0  0  0  0  0  0  0
    6.6394   -8.9793   31.1858 C   0  0  0  0  0  0  0  0  0  0  0  0
    0.6742   -4.2543   26.0278 C   0  0  1  0  0  0  0  0  0  0  0  0
    7.6589   -8.1665   31.8847 N   0  0  0  0  0  0  0  0  0  0  0  0
    0.1301   -2.9488   26.0318 O   0  0  0  0  0  0  0  0  0  0  0  0
    1.5328   -8.1838   29.1103 C   0  0  2  0  0  0  0  0  0  0  0  0
    0.1248   -8.1297   28.7298 N   0  0  0  0  0  0  0  0  0  0  0  0
    8.3012   -6.3355   33.4552 C   0  0  0  0  0  0  0  0  0  0  0  0
    8.1282   -5.1564   32.4443 N   0  0  0  0  0  0  0  0  0  0  0  0
    7.3376   -7.5307   33.1939 C   0  0  0  0  0  0  0  0  0  0  0  0
    2.3511  -12.1324   28.4621 O   0  0  0  0  0  0  0  0  0  0  0  0
    0.6648   -4.8413   24.6125 C   0  0  2  0  0  0  0  0  0  0  0  0
   -0.6501   -4.8652   24.0812 O   0  0  0  0  0  0  0  0  0  0  0  0
    2.3787   -7.7863   27.9265 C   0  0  2  0  0  0  0  0  0  0  0  0
    1.2674   -6.2758   24.6293 C   0  0  2  0  0  0  0  0  0  0  0  0
    2.6072   -6.2705   25.1644 O   0  0  0  0  0  0  0  0  0  0  0  0
    3.9199   -7.8519   28.3078 C   0  0  2  0  0  0  0  0  0  0  0  0
    4.7053   -7.4562   27.1435 O   0  0  0  0  0  0  0  0  0  0  0  0
    1.3069   -6.8761   23.2747 C   0  0  0  0  0  0  0  0  0  0  0  0
    0.1041   -7.4214   22.9888 N   0  0  0  0  0  0  0  0  0  0  0  0
    4.2743   -9.3192   28.7329 C   0  0  1  0  0  0  0  0  0  0  0  0
    5.6270   -9.4164   29.0468 O   0  0  0  0  0  0  0  0  0  0  0  0
  1  2  1  1  0  0  0
  1  5  1  0  0  0  0
  1 29  1  0  0  0  0
  3  4  1  6  0  0  0
  3  7  1  0  0  0  0
  3 34  1  0  0  0  0
  5  6  1  1  0  0  0
  5 16  1  0  0  0  0
  7 19  1  0  0  0  0
  8  4  1  0  0  0  0
  8 24  2  0  0  0  0
  9  8  1  6  0  0  0
  9 10  1  0  0  0  0
  9 13  1  0  0  0  0
 10 11  1  0  0  0  0
 11 12  1  0  0  0  0
 14 15  1  0  0  0  0
 14 35  1  0  0  0  0
 15 17  1  0  0  0  0
 16 18  1  6  0  0  0
 16 25  1  0  0  0  0
 19 20  1  6  0  0  0
 19 27  1  0  0  0  0
 21 22  1  0  0  0  0
 21 23  1  0  0  0  0
 23 17  1  0  0  0  0
 25 26  1  1  0  0  0
 25 28  1  0  0  0  0
 27  2  1  1  0  0  0
 27 30  1  0  0  0  0
 28 29  1  0  0  0  0
 28 32  1  6  0  0  0
 30 31  1  6  0  0  0
 30 34  1  0  0  0  0
 32 33  2  0  0  0  0
 34 35  1  1  0  0  0
M  END
>  <CHROM.1>
-170.45060496,43.87132873,165.26086544,-65.29652288,-72.53138614,-157.52567430
49.11012549,157.13560500,65.29196055,-158.39306260,171.05686127,-83.46809701
-66.70959205,3.18481367,-8.35707485,28.43685385,-2.14973385,0.72660854,2.80773991

>  <Name>
2f4t_lig

>  <RI>
0

>  <Rbt.Current_Directory>
/home/itssahil/PROJECTS/Mol_Feturizer/New_Systems/rnas/2f4t

>  <Rbt.Executable>
rbdock ($Id: //depot/dev/client3/rdock/2013.1/src/exe/rbdock.cxx#4 $)

>  <Rbt.Library>
libRbt.so (2013.1, Build901 2013/11/27)

>  <Rbt.Parameter_File>
/export/apps/rDock/src/rDock_2013.1_src/data/scripts/dock_solv.prm

>  <Rbt.Receptor>
prm/pocket_docking_4.prm

>  <SCORE>
-22.4681

>  <SCORE.INTER>
-16.4714

>  <SCORE.INTER.CONST>
1

>  <SCORE.INTER.POLAR>
-1.83301

>  <SCORE.INTER.ROT>
13

>  <SCORE.INTER.SOLV>
15.4409

>  <SCORE.INTER.VDW>
-22.2846

>  <SCORE.INTER.norm>
-0.470612

>  <SCORE.INTRA>
-5.99669

>  <SCORE.INTRA.DIHEDRAL>
-16.3661

>  <SCORE.INTRA.DIHEDRAL.0>
23.8882

>  <SCORE.INTRA.POLAR>
0

>  <SCORE.INTRA.POLAR.0>
0

>  <SCORE.INTRA.REPUL>
0

>  <SCORE.INTRA.REPUL.0>
0

>  <SCORE.INTRA.SOLV>
1.24712

>  <SCORE.INTRA.SOLV.lig_0>
-97.6888

>  <SCORE.INTRA.VDW>
1.56281

>  <SCORE.INTRA.VDW.0>
-3.9206

>  <SCORE.INTRA.norm>
-0.171334

>  <SCORE.RESTR>
0

>  <SCORE.RESTR.CAVITY>
0

>  <SCORE.RESTR.norm>
0

>  <SCORE.SYSTEM>
0

>  <SCORE.SYSTEM.CONST>
0

>  <SCORE.SYSTEM.DIHEDRAL>
0

>  <SCORE.SYSTEM.SOLV>
0

>  <SCORE.SYSTEM.norm>
0

>  <SCORE.heavy>
35

>  <SCORE.norm>
-0.641946

>  <RMSD>
1.878

$$$$
2f4t_lig
 OpenBabel11021811433D
libRbt.so/2013.1/901 2013/11/27
 35 36  0  0  0  0  0  0  0  0999 V2000
    3.2013   -6.0707   26.6087 C   0  0  2  0  0  0  0  0  0  0  0  0
    2.3063   -6.7336   27.5610 O   0  0  0  0  0  0  0  0  0  0  0  0
    3.0859   -9.5184   30.7695 C   0  0  2  0  0  0  0  0  0  0  0  0
    3.3942  -10.7786   31.4619 N   0  0  0  0  0  0  0  0  0  0  0  0
    3.2955   -4.5865   27.0755 C   0  0  2  0  0  0  0  0  0  0  0  0
    3.7477   -4.5106   28.4449 N   0  0  0  0  0  0  0  0  0  0  0  0
    1.8893   -9.7515   29.7759 C   0  0  0  0  0  0  0  0  0  0  0  0
    3.6947  -12.0484   30.2718 C   0  0  0  0  0  0  0  0  0  0  0  0
    3.9311  -12.9561   31.4586 C   0  0  1  0  0  0  0  0  0  0  0  0
    2.7451  -13.9193   31.5465 C   0  0  0  0  0  0  0  0  0  0  0  0
    2.5570  -14.8554   30.3409 C   0  0  0  0  0  0  0  0  0  0  0  0
    3.6238  -15.8606   30.3647 N   0  0  0  0  0  0  0  0  0  0  0  0
    5.0646  -13.7593   31.2579 O   0  0  0  0  0  0  0  0  0  0  0  0
    6.3931   -9.1661   31.7969 C   0  0  0  0  0  0  0  0  0  0  0  0
    7.1700   -7.9044   32.1404 C   0  0  0  0  0  0  0  0  0  0  0  0
    1.9062   -3.8823   26.9132 C   0  0  1  0  0  0  0  0  0  0  0  0
    6.3102   -6.7777   32.5643 N   0  0  0  0  0  0  0  0  0  0  0  0
    1.9713   -2.5315   27.3273 O   0  0  0  0  0  0  0  0  0  0  0  0
    1.5232   -8.4721   29.0107 C   0  0  2  0  0  0  0  0  0  0  0  0
    0.4387   -8.7233   28.0668 N   0  0  0  0  0  0  0  0  0  0  0  0
    4.3259   -5.9623   33.8407 C   0  0  0  0  0  0  0  0  0  0  0  0
    4.5763   -4.4556   33.5104 N   0  0  0  0  0  0  0  0  0  0  0  0
    5.6266   -6.8175   33.8881 C   0  0  0  0  0  0  0  0  0  0  0  0
    3.6939  -12.0910   29.2054 O   0  0  0  0  0  0  0  0  0  0  0  0
    1.4938   -3.9788   25.4407 C   0  0  2  0  0  0  0  0  0  0  0  0
    0.2435   -3.3462   25.2208 O   0  0  0  0  0  0  0  0  0  0  0  0
    2.7205   -7.9482   28.2576 C   0  0  2  0  0  0  0  0  0  0  0  0
    1.4289   -5.4710   25.0047 C   0  0  2  0  0  0  0  0  0  0  0  0
    2.6942   -6.1305   25.2185 O   0  0  0  0  0  0  0  0  0  0  0  0
    3.9240   -7.6806   29.2600 C   0  0  2  0  0  0  0  0  0  0  0  0
    5.0597   -7.1704   28.4990 O   0  0  0  0  0  0  0  0  0  0  0  0
    1.0614   -5.6155   23.5761 C   0  0  0  0  0  0  0  0  0  0  0  0
    2.0052   -6.3437   22.9400 N   0  0  0  0  0  0  0  0  0  0  0  0
    4.3019   -9.0276   29.9685 C   0  0  1  0  0  0  0  0  0  0  0  0
    5.3742   -8.8322   30.8344 O   0  0  0  0  0  0  0  0  0  0  0  0
  1  2  1  1  0  0  0
  1  5  1  0  0  0  0
  1 29  1  0  0  0  0
  3  4  1  6  0  0  0
  3  7  1  0  0  0  0
  3 34  1  0  0  0  0
  5  6  1  1  0  0  0
  5 16  1  0  0  0  0
  7 19  1  0  0  0  0
  8  4  1  0  0  0  0
  8 24  2  0  0  0  0
  9  8  1  6  0  0  0
  9 10  1  0  0  0  0
  9 13  1  0  0  0  0
 10 11  1  0  0  0  0
 11 12  1  0  0  0  0
 14 15  1  0  0  0  0
 14 35  1  0  0  0  0
 15 17  1  0  0  0  0
 16 18  1  6  0  0  0
 16 25  1  0  0  0  0
 19 20  1  6  0  0  0
 19 27  1  0  0  0  0
 21 22  1  0  0  0  0
 21 23  1  0  0  0  0
 23 17  1  0  0  0  0
 25 26  1  1  0  0  0
 25 28  1  0  0  0  0
 27  2  1  1  0  0  0
 27 30  1  0  0  0  0
 28 29  1  0  0  0  0
 28 32  1  6  0  0  0
 30 31  1  6  0  0  0
 30 34  1  0  0  0  0
 32 33  2  0  0  0  0
 34 35  1  1  0  0  0
M  END
>  <CHROM.1>
-126.57254868,54.76430362,108.59472088,62.31075551,71.73105812,52.90241397
-179.49418486,71.17971744,-60.46676925,-152.85687374,-172.60687756,124.47723587
61.36222114,3.35062337,-8.09655716,29.12302904,2.08075843,-1.05618640,-0.17839709

>  <Name>
2f4t_lig

>  <RI>
0

>  <Rbt.Current_Directory>
/home/itssahil/PROJECTS/Mol_Feturizer/New_Systems/rnas/2f4t

>  <Rbt.Executable>
rbdock ($Id: //depot/dev/client3/rdock/2013.1/src/exe/rbdock.cxx#4 $)

>  <Rbt.Library>
libRbt.so (2013.1, Build901 2013/11/27)

>  <Rbt.Parameter_File>
/export/apps/rDock/src/rDock_2013.1_src/data/scripts/dock_solv.prm

>  <Rbt.Receptor>
prm/pocket_docking_4.prm

>  <SCORE>
-16.8251

>  <SCORE.INTER>
-14.7325

>  <SCORE.INTER.CONST>
1

>  <SCORE.INTER.POLAR>
-2.51014

>  <SCORE.INTER.ROT>
13

>  <SCORE.INTER.SOLV>
12.0362

>  <SCORE.INTER.VDW>
-17.7333

>  <SCORE.INTER.norm>
-0.42093

>  <SCORE.INTRA>
-2.09251

>  <SCORE.INTRA.DIHEDRAL>
-12.1653

>  <SCORE.INTRA.DIHEDRAL.0>
23.8882

>  <SCORE.INTRA.POLAR>
0

>  <SCORE.INTRA.POLAR.0>
0

>  <SCORE.INTRA.REPUL>
0

>  <SCORE.INTRA.REPUL.0>
0

>  <SCORE.INTRA.SOLV>
5.21448

>  <SCORE.INTRA.SOLV.lig_0>
-97.6888

>  <SCORE.INTRA.VDW>
1.38289

>  <SCORE.INTRA.VDW.0>
-3.9206

>  <SCORE.INTRA.norm>
-0.059786

>  <SCORE.RESTR>
0

>  <SCORE.RESTR.CAVITY>
0

>  <SCORE.RESTR.norm>
0

>  <SCORE.SYSTEM>
0

>  <SCORE.SYSTEM.CONST>
0

>  <SCORE.SYSTEM.DIHEDRAL>
0

>  <SCORE.SYSTEM.SOLV>
0

>  <SCORE.SYSTEM.norm>
0

>  <SCORE.heavy>
35

>  <SCORE.norm>
-0.480716

>  <RMSD>
1.887

$$$$
2f4t_lig
 OpenBabel11021811433D
libRbt.so/2013.1/901 2013/11/27
 35 36  0  0  0  0  0  0  0  0999 V2000
    3.1653   -5.4400   26.0493 C   0  0  2  0  0  0  0  0  0  0  0  0
    2.5278   -6.2806   27.0662 O   0  0  0  0  0  0  0  0  0  0  0  0
    3.3215  -10.0324   29.0540 C   0  0  2  0  0  0  0  0  0  0  0  0
    3.6547  -11.4518   29.2458 N   0  0  0  0  0  0  0  0  0  0  0  0
    2.7576   -3.9749   26.3913 C   0  0  2  0  0  0  0  0  0  0  0  0
    3.1416   -3.6413   27.7428 N   0  0  0  0  0  0  0  0  0  0  0  0
    2.1577   -9.9099   28.0032 C   0  0  0  0  0  0  0  0  0  0  0  0
    2.3249  -12.2637   30.0772 C   0  0  0  0  0  0  0  0  0  0  0  0
    3.1671  -13.5160   29.9746 C   0  0  1  0  0  0  0  0  0  0  0  0
    3.5872  -13.9073   31.3932 C   0  0  0  0  0  0  0  0  0  0  0  0
    4.4933  -15.1452   31.5016 C   0  0  0  0  0  0  0  0  0  0  0  0
    4.7523  -15.4062   32.9207 N   0  0  0  0  0  0  0  0  0  0  0  0
    2.4088  -14.5921   29.4876 O   0  0  0  0  0  0  0  0  0  0  0  0
    6.2607   -9.3049   30.7159 C   0  0  0  0  0  0  0  0  0  0  0  0
    6.0037   -7.9405   31.3369 C   0  0  0  0  0  0  0  0  0  0  0  0
    1.2158   -3.7854   26.1929 C   0  0  1  0  0  0  0  0  0  0  0  0
    4.5812   -7.6975   31.6625 N   0  0  0  0  0  0  0  0  0  0  0  0
    0.8253   -2.4598   26.4938 O   0  0  0  0  0  0  0  0  0  0  0  0
    1.7680   -8.4472   27.7486 C   0  0  2  0  0  0  0  0  0  0  0  0
    0.7157   -8.3574   26.7413 N   0  0  0  0  0  0  0  0  0  0  0  0
    4.2150   -7.1484   34.0699 C   0  0  0  0  0  0  0  0  0  0  0  0
    3.1621   -8.2735   34.3294 N   0  0  0  0  0  0  0  0  0  0  0  0
    4.2075   -6.6086   32.6091 C   0  0  0  0  0  0  0  0  0  0  0  0
    1.3769  -11.9525   30.4562 O   0  0  0  0  0  0  0  0  0  0  0  0
    0.8774   -4.1338   24.7397 C   0  0  2  0  0  0  0  0  0  0  0  0
   -0.5089   -3.9705   24.4878 O   0  0  0  0  0  0  0  0  0  0  0  0
    2.9651   -7.6568   27.2824 C   0  0  2  0  0  0  0  0  0  0  0  0
    1.3151   -5.5942   24.4286 C   0  0  2  0  0  0  0  0  0  0  0  0
    2.7244   -5.7783   24.6765 O   0  0  0  0  0  0  0  0  0  0  0  0
    4.1344   -7.7503   28.3542 C   0  0  2  0  0  0  0  0  0  0  0  0
    5.2706   -6.9710   27.8735 O   0  0  0  0  0  0  0  0  0  0  0  0
    1.0343   -5.9692   23.0224 C   0  0  0  0  0  0  0  0  0  0  0  0
    2.1993   -6.1863   22.3734 N   0  0  0  0  0  0  0  0  0  0  0  0
    4.5396   -9.2548   28.5317 C   0  0  1  0  0  0  0  0  0  0  0  0
    5.5835   -9.3679   29.4457 O   0  0  0  0  0  0  0  0  0  0  0  0
  1  2  1  1  0  0  0
  1  5  1  0  0  0  0
  1 29  1  0  0  0  0
  3  4  1  6  0  0  0
  3  7  1  0  0  0  0
  3 34  1  0  0  0  0
  5  6  1  1  0  0  0
  5 16  1  0  0  0  0
  7 19  1  0  0  0  0
  8  4  1  0  0  0  0
  8 24  2  0  0  0  0
  9  8  1  1  0  0  0
  9 10  1  0  0  0  0
  9 13  1  0  0  0  0
 10 11  1  0  0  0  0
 11 12  1  0  0  0  0
 14 15  1  0  0  0  0
 14 35  1  0  0  0  0
 15 17  1  0  0  0  0
 16 18  1  6  0  0  0
 16 25  1  0  0  0  0
 19 20  1  6  0  0  0
 19 27  1  0  0  0  0
 21 22  1  0  0  0  0
 21 23  1  0  0  0  0
 23 17  1  0  0  0  0
 25 26  1  1  0  0  0
 25 28  1  0  0  0  0
 27  2  1  1  0  0  0
 27 30  1  0  0  0  0
 28 29  1  0  0  0  0
 28 32  1  6  0  0  0
 30 31  1  6  0  0  0
 30 34  1  0  0  0  0
 32 33  2  0  0  0  0
 34 35  1  1  0  0  0
M  END
>  <CHROM.1>
-163.48936961,-69.10517775,112.79902861,-178.26860428,-177.77343760,64.16867348
-49.83346337,162.55076137,-63.13505503,-88.16632483,-149.56092164,114.65783980
-53.16997754,3.02566240,-8.28287416,28.47357217,-2.14317407,1.13729225,2.99685636

>  <Name>
2f4t_lig

>  <RI>
0

>  <Rbt.Current_Directory>
/home/itssahil/PROJECTS/Mol_Feturizer/New_Systems/rnas/2f4t

>  <Rbt.Executable>
rbdock ($Id: //depot/dev/client3/rdock/2013.1/src/exe/rbdock.cxx#4 $)

>  <Rbt.Library>
libRbt.so (2013.1, Build901 2013/11/27)

>  <Rbt.Parameter_File>
/export/apps/rDock/src/rDock_2013.1_src/data/scripts/dock_solv.prm

>  <Rbt.Receptor>
prm/pocket_docking_5.prm

>  <SCORE>
-20.8382

>  <SCORE.INTER>
-15.166

>  <SCORE.INTER.CONST>
1

>  <SCORE.INTER.POLAR>
-1.32889

>  <SCORE.INTER.ROT>
13

>  <SCORE.INTER.SOLV>
13.6737

>  <SCORE.INTER.VDW>
-22.5056

>  <SCORE.INTER.norm>
-0.433313

>  <SCORE.INTRA>
-5.67227

>  <SCORE.INTRA.DIHEDRAL>
-14.0124

>  <SCORE.INTRA.DIHEDRAL.0>
23.8882

>  <SCORE.INTRA.POLAR>
0

>  <SCORE.INTRA.POLAR.0>
0

>  <SCORE.INTRA.REPUL>
0

>  <SCORE.INTRA.REPUL.0>
0

>  <SCORE.INTRA.SOLV>
2.39824

>  <SCORE.INTRA.SOLV.lig_0>
-97.6888

>  <SCORE.INTRA.VDW>
0.134809

>  <SCORE.INTRA.VDW.0>
-3.9206

>  <SCORE.INTRA.norm>
-0.162065

>  <SCORE.RESTR>
0

>  <SCORE.RESTR.CAVITY>
0

>  <SCORE.RESTR.norm>
0

>  <SCORE.SYSTEM>
0

>  <SCORE.SYSTEM.CONST>
0

>  <SCORE.SYSTEM.DIHEDRAL>
0

>  <SCORE.SYSTEM.SOLV>
0

>  <SCORE.SYSTEM.norm>
0

>  <SCORE.heavy>
35

>  <SCORE.norm>
-0.595378

>  <RMSD>
1.923

$$$$
2f4t_lig
 OpenBabel11021811433D
libRbt.so/2013.1/901 2013/11/27
 35 36  0  0  0  0  0  0  0  0999 V2000
    2.7508   -5.4069   25.8630 C   0  0  2  0  0  0  0  0  0  0  0  0
    2.0693   -6.3579   26.7454 O   0  0  0  0  0  0  0  0  0  0  0  0
    3.2918   -9.9138   28.8709 C   0  0  2  0  0  0  0  0  0  0  0  0
    3.7584  -11.2870   29.1147 N   0  0  0  0  0  0  0  0  0  0  0  0
    1.9896   -4.0563   26.0240 C   0  0  2  0  0  0  0  0  0  0  0  0
    1.9652   -3.6470   27.4087 N   0  0  0  0  0  0  0  0  0  0  0  0
    2.0695   -9.9489   27.8819 C   0  0  0  0  0  0  0  0  0  0  0  0
    2.9488  -11.9416   30.5412 C   0  0  0  0  0  0  0  0  0  0  0  0
    3.7437  -13.2021   30.2817 C   0  0  1  0  0  0  0  0  0  0  0  0
    3.6556  -14.0704   31.5388 C   0  0  0  0  0  0  0  0  0  0  0  0
    4.3216  -13.4892   32.7973 C   0  0  0  0  0  0  0  0  0  0  0  0
    4.1889  -14.4647   33.8835 N   0  0  0  0  0  0  0  0  0  0  0  0
    3.1635  -13.9579   29.2510 O   0  0  0  0  0  0  0  0  0  0  0  0
    6.5501   -9.5501   29.9497 C   0  0  0  0  0  0  0  0  0  0  0  0
    7.5189   -8.4200   30.2626 C   0  0  0  0  0  0  0  0  0  0  0  0
    0.5340   -4.1887   25.4619 C   0  0  1  0  0  0  0  0  0  0  0  0
    8.3103   -7.9790   29.0931 N   0  0  0  0  0  0  0  0  0  0  0  0
   -0.1731   -2.9710   25.5943 O   0  0  0  0  0  0  0  0  0  0  0  0
    1.5397   -8.5409   27.5766 C   0  0  2  0  0  0  0  0  0  0  0  0
    0.4333   -8.5966   26.6263 N   0  0  0  0  0  0  0  0  0  0  0  0
    9.9773   -6.1574   29.4597 C   0  0  0  0  0  0  0  0  0  0  0  0
   10.0732   -6.3107   31.0119 N   0  0  0  0  0  0  0  0  0  0  0  0
    8.5810   -6.5290   28.8789 C   0  0  0  0  0  0  0  0  0  0  0  0
    2.2296  -11.5643   31.2336 O   0  0  0  0  0  0  0  0  0  0  0  0
    0.6291   -4.6033   23.9899 C   0  0  2  0  0  0  0  0  0  0  0  0
   -0.6607   -4.7296   23.4134 O   0  0  0  0  0  0  0  0  0  0  0  0
    2.6368   -7.6779   27.0053 C   0  0  2  0  0  0  0  0  0  0  0  0
    1.4103   -5.9432   23.8657 C   0  0  2  0  0  0  0  0  0  0  0  0
    2.7272   -5.8327   24.4447 O   0  0  0  0  0  0  0  0  0  0  0  0
    3.8632   -7.6123   28.0136 C   0  0  2  0  0  0  0  0  0  0  0  0
    4.9000   -6.7663   27.4319 O   0  0  0  0  0  0  0  0  0  0  0  0
    1.5543   -6.3720   22.4542 C   0  0  0  0  0  0  0  0  0  0  0  0
    0.7682   -7.4475   22.2281 N   0  0  0  0  0  0  0  0  0  0  0  0
    4.4082   -9.0647   28.2433 C   0  0  1  0  0  0  0  0  0  0  0  0
    5.5034   -9.0381   29.1021 O   0  0  0  0  0  0  0  0  0  0  0  0
  1  2  1  1  0  0  0
  1  5  1  0  0  0  0
  1 29  1  0  0  0  0
  3  4  1  6  0  0  0
  3  7  1  0  0  0  0
  3 34  1  0  0  0  0
  5  6  1  1  0  0  0
  5 16  1  0  0  0  0
  7 19  1  0  0  0  0
  8  4  1  0  0  0  0
  8 24  2  0  0  0  0
  9  8  1  1  0  0  0
  9 10  1  0  0  0  0
  9 13  1  0  0  0  0
 10 11  1  0  0  0  0
 11 12  1  0  0  0  0
 14 15  1  0  0  0  0
 14 35  1  0  0  0  0
 15 17  1  0  0  0  0
 16 18  1  6  0  0  0
 16 25  1  0  0  0  0
 19 20  1  6  0  0  0
 19 27  1  0  0  0  0
 21 22  1  0  0  0  0
 21 23  1  0  0  0  0
 23 17  1  0  0  0  0
 25 26  1  1  0  0  0
 25 28  1  0  0  0  0
 27  2  1  1  0  0  0
 27 30  1  0  0  0  0
 28 29  1  0  0  0  0
 28 32  1  6  0  0  0
 30 31  1  6  0  0  0
 30 34  1  0  0  0  0
 32 33  2  0  0  0  0
 34 35  1  1  0  0  0
M  END
>  <CHROM.1>
-170.61322592,-92.12872620,165.68381255,-65.35956177,-177.85614550,-69.08103918
167.67732841,140.10227525,-64.95751945,95.99882406,-163.05831268,-108.82197242
52.37853905,3.51779157,-8.20942404,27.87289798,-2.02689741,0.44618045,2.58044250

>  <Name>
2f4t_lig

>  <RI>
0

>  <Rbt.Current_Directory>
/home/itssahil/PROJECTS/Mol_Feturizer/New_Systems/rnas/2f4t

>  <Rbt.Executable>
rbdock ($Id: //depot/dev/client3/rdock/2013.1/src/exe/rbdock.cxx#4 $)

>  <Rbt.Library>
libRbt.so (2013.1, Build901 2013/11/27)

>  <Rbt.Parameter_File>
/export/apps/rDock/src/rDock_2013.1_src/data/scripts/dock_solv.prm

>  <Rbt.Receptor>
prm/pocket_docking_5.prm

>  <SCORE>
-23.067

>  <SCORE.INTER>
-15.2054

>  <SCORE.INTER.CONST>
1

>  <SCORE.INTER.POLAR>
-0.938083

>  <SCORE.INTER.ROT>
13

>  <SCORE.INTER.SOLV>
20.5177

>  <SCORE.INTER.VDW>
-26.1159

>  <SCORE.INTER.norm>
-0.43444

>  <SCORE.INTRA>
-7.86154

>  <SCORE.INTRA.DIHEDRAL>
-16.3823

>  <SCORE.INTRA.DIHEDRAL.0>
23.8882

>  <SCORE.INTRA.POLAR>
0

>  <SCORE.INTRA.POLAR.0>
0

>  <SCORE.INTRA.REPUL>
0

>  <SCORE.INTRA.REPUL.0>
0

>  <SCORE.INTRA.SOLV>
1.52201

>  <SCORE.INTRA.SOLV.lig_0>
-97.6888

>  <SCORE.INTRA.VDW>
-0.431381

>  <SCORE.INTRA.VDW.0>
-3.9206

>  <SCORE.INTRA.norm>
-0.224615

>  <SCORE.RESTR>
0

>  <SCORE.RESTR.CAVITY>
0

>  <SCORE.RESTR.norm>
0

>  <SCORE.SYSTEM>
0

>  <SCORE.SYSTEM.CONST>
0

>  <SCORE.SYSTEM.DIHEDRAL>
0

>  <SCORE.SYSTEM.SOLV>
0

>  <SCORE.SYSTEM.norm>
0

>  <SCORE.heavy>
35

>  <SCORE.norm>
-0.659056

>  <RMSD>
1.938

$$$$
2f4t_lig
 OpenBabel11021811433D
libRbt.so/2013.1/901 2013/11/27
 35 36  0  0  0  0  0  0  0  0999 V2000
    3.4080   -5.7666   26.4021 C   0  0  2  0  0  0  0  0  0  0  0  0
    2.6600   -6.5306   27.4042 O   0  0  0  0  0  0  0  0  0  0  0  0
    3.4650   -9.9313   29.9427 C   0  0  2  0  0  0  0  0  0  0  0  0
    3.8152  -11.3003   30.3499 N   0  0  0  0  0  0  0  0  0  0  0  0
    3.5433   -4.3252   26.9796 C   0  0  2  0  0  0  0  0  0  0  0  0
    4.1758   -4.3535   28.2776 N   0  0  0  0  0  0  0  0  0  0  0  0
    2.3238   -9.9873   28.8619 C   0  0  0  0  0  0  0  0  0  0  0  0
    4.4121  -11.2878   32.0120 C   0  0  0  0  0  0  0  0  0  0  0  0
    4.5667  -12.7843   31.8542 C   0  0  1  0  0  0  0  0  0  0  0  0
    5.1057  -13.3346   33.1765 C   0  0  0  0  0  0  0  0  0  0  0  0
    5.2824  -14.8610   33.2397 C   0  0  0  0  0  0  0  0  0  0  0  0
    6.1692  -15.2699   32.1464 N   0  0  0  0  0  0  0  0  0  0  0  0
    3.3201  -13.3999   31.6613 O   0  0  0  0  0  0  0  0  0  0  0  0
    6.9119   -8.7176   30.9219 C   0  0  0  0  0  0  0  0  0  0  0  0
    7.9847   -8.5180   29.8623 C   0  0  0  0  0  0  0  0  0  0  0  0
    2.1349   -3.6461   27.0666 C   0  0  1  0  0  0  0  0  0  0  0  0
    8.8175   -7.3155   30.0834 N   0  0  0  0  0  0  0  0  0  0  0  0
    2.2362   -2.3339   27.5844 O   0  0  0  0  0  0  0  0  0  0  0  0
    1.9178   -8.5858   28.3851 C   0  0  2  0  0  0  0  0  0  0  0  0
    0.8875   -8.6656   27.3544 N   0  0  0  0  0  0  0  0  0  0  0  0
    9.4372   -4.9065   29.8726 C   0  0  0  0  0  0  0  0  0  0  0  0
    9.2584   -4.5452   31.3823 N   0  0  0  0  0  0  0  0  0  0  0  0
    8.4890   -6.0411   29.3838 C   0  0  0  0  0  0  0  0  0  0  0  0
    4.5692  -10.5291   32.7460 O   0  0  0  0  0  0  0  0  0  0  0  0
    1.5282   -3.6286   25.6598 C   0  0  2  0  0  0  0  0  0  0  0  0
    0.2506   -3.0124   25.6651 O   0  0  0  0  0  0  0  0  0  0  0  0
    3.1131   -7.8513   27.8311 C   0  0  2  0  0  0  0  0  0  0  0  0
    1.4262   -5.0799   25.1081 C   0  0  2  0  0  0  0  0  0  0  0  0
    2.7181   -5.7220   25.0923 O   0  0  0  0  0  0  0  0  0  0  0  0
    4.2589   -7.7634   28.9285 C   0  0  2  0  0  0  0  0  0  0  0  0
    5.3938   -7.0432   28.3607 O   0  0  0  0  0  0  0  0  0  0  0  0
    0.8706   -5.1128   23.7343 C   0  0  0  0  0  0  0  0  0  0  0  0
    0.1170   -6.2236   23.5801 N   0  0  0  0  0  0  0  0  0  0  0  0
    4.6827   -9.2174   29.3357 C   0  0  1  0  0  0  0  0  0  0  0  0
    5.7071   -9.1747   30.2773 O   0  0  0  0  0  0  0  0  0  0  0  0
  1  2  1  1  0  0  0
  1  5  1  0  0  0  0
  1 29  1  0  0  0  0
  3  4  1  6  0  0  0
  3  7  1  0  0  0  0
  3 34  1  0  0  0  0
  5  6  1  1  0  0  0
  5 16  1  0  0  0  0
  7 19  1  0  0  0  0
  8  4  1  0  0  0  0
  8 24  2  0  0  0  0
  9  8  1  1  0  0  0
  9 10  1  0  0  0  0
  9 13  1  0  0  0  0
 10 11  1  0  0  0  0
 11 12  1  0  0  0  0
 14 15  1  0  0  0  0
 14 35  1  0  0  0  0
 15 17  1  0  0  0  0
 16 18  1  6  0  0  0
 16 25  1  0  0  0  0
 19 20  1  6  0  0  0
 19 27  1  0  0  0  0
 21 22  1  0  0  0  0
 21 23  1  0  0  0  0
 23 17  1  0  0  0  0
 25 26  1  1  0  0  0
 25 28  1  0  0  0  0
 27  2  1  1  0  0  0
 27 30  1  0  0  0  0
 28 29  1  0  0  0  0
 28 32  1  6  0  0  0
 30 31  1  6  0  0  0
 30 34  1  0  0  0  0
 32 33  2  0  0  0  0
 34 35  1  1  0  0  0
M  END
>  <CHROM.1>
-132.80795339,-151.50488365,-179.45210978,177.70402941,56.85460943,140.23552370
-46.20383537,-96.04984495,-64.69650992,175.36838745,-157.25309971,-145.33910232
-158.11452671,4.14547797,-7.89449752,28.88164433,1.95808670,-0.48956668,-0.47244422

>  <Name>
2f4t_lig

>  <RI>
0

>  <Rbt.Current_Directory>
/home/itssahil/PROJECTS/Mol_Feturizer/New_Systems/rnas/2f4t

>  <Rbt.Executable>
rbdock ($Id: //depot/dev/client3/rdock/2013.1/src/exe/rbdock.cxx#4 $)

>  <Rbt.Library>
libRbt.so (2013.1, Build901 2013/11/27)

>  <Rbt.Parameter_File>
/export/apps/rDock/src/rDock_2013.1_src/data/scripts/dock_solv.prm

>  <Rbt.Receptor>
prm/pocket_docking_5.prm

>  <SCORE>
-12.9587

>  <SCORE.INTER>
-12.1727

>  <SCORE.INTER.CONST>
1

>  <SCORE.INTER.POLAR>
-1.58348

>  <SCORE.INTER.ROT>
13

>  <SCORE.INTER.SOLV>
17.1331

>  <SCORE.INTER.VDW>
-20.8146

>  <SCORE.INTER.norm>
-0.347792

>  <SCORE.INTRA>
-0.786013

>  <SCORE.INTRA.DIHEDRAL>
-4.51409

>  <SCORE.INTRA.DIHEDRAL.0>
23.8882

>  <SCORE.INTRA.POLAR>
0

>  <SCORE.INTRA.POLAR.0>
0

>  <SCORE.INTRA.REPUL>
0

>  <SCORE.INTRA.REPUL.0>
0

>  <SCORE.INTRA.SOLV>
3.79959

>  <SCORE.INTRA.SOLV.lig_0>
-97.6888

>  <SCORE.INTRA.VDW>
-0.428763

>  <SCORE.INTRA.VDW.0>
-3.9206

>  <SCORE.INTRA.norm>
-0.0224575

>  <SCORE.RESTR>
0

>  <SCORE.RESTR.CAVITY>
0

>  <SCORE.RESTR.norm>
0

>  <SCORE.SYSTEM>
0

>  <SCORE.SYSTEM.CONST>
0

>  <SCORE.SYSTEM.DIHEDRAL>
0

>  <SCORE.SYSTEM.SOLV>
0

>  <SCORE.SYSTEM.norm>
0

>  <SCORE.heavy>
35

>  <SCORE.norm>
-0.37025

>  <RMSD>
1.948

$$$$
2f4t_lig
 OpenBabel11021811433D
libRbt.so/2013.1/901 2013/11/27
 35 36  0  0  0  0  0  0  0  0999 V2000
    3.0768   -6.3269   26.5268 C   0  0  2  0  0  0  0  0  0  0  0  0
    2.1325   -7.0062   27.4179 O   0  0  0  0  0  0  0  0  0  0  0  0
    3.0103  -10.1473   30.2498 C   0  0  2  0  0  0  0  0  0  0  0  0
    3.1952  -11.4968   30.8043 N   0  0  0  0  0  0  0  0  0  0  0  0
    3.2152   -4.8760   27.0794 C   0  0  2  0  0  0  0  0  0  0  0  0
    3.6336   -4.8948   28.4615 N   0  0  0  0  0  0  0  0  0  0  0  0
    1.6000  -10.0587   29.5593 C   0  0  0  0  0  0  0  0  0  0  0  0
    4.0593  -11.3909   32.3408 C   0  0  0  0  0  0  0  0  0  0  0  0
    3.9372  -12.8979   32.3905 C   0  0  1  0  0  0  0  0  0  0  0  0
    5.2871  -13.4555   32.8474 C   0  0  0  0  0  0  0  0  0  0  0  0
    5.4561  -14.9787   32.7191 C   0  0  0  0  0  0  0  0  0  0  0  0
    5.4632  -15.3251   31.2947 N   0  0  0  0  0  0  0  0  0  0  0  0
    3.0079  -13.2941   33.3650 O   0  0  0  0  0  0  0  0  0  0  0  0
    6.7831   -9.8844   29.8999 C   0  0  0  0  0  0  0  0  0  0  0  0
    7.2523   -8.4791   29.5557 C   0  0  0  0  0  0  0  0  0  0  0  0
    1.8585   -4.1095   26.9239 C   0  0  1  0  0  0  0  0  0  0  0  0
    8.6719   -8.2312   29.8902 N   0  0  0  0  0  0  0  0  0  0  0  0
    1.9640   -2.7876   27.4157 O   0  0  0  0  0  0  0  0  0  0  0  0
    1.3479   -8.6732   28.9484 C   0  0  2  0  0  0  0  0  0  0  0  0
    0.0517   -8.6283   28.2791 N   0  0  0  0  0  0  0  0  0  0  0  0
    8.5581   -6.2525   31.4079 C   0  0  0  0  0  0  0  0  0  0  0  0
    8.6002   -4.6920   31.4772 N   0  0  0  0  0  0  0  0  0  0  0  0
    9.1581   -6.8373   30.0951 C   0  0  0  0  0  0  0  0  0  0  0  0
    4.4609  -10.5901   32.9209 O   0  0  0  0  0  0  0  0  0  0  0  0
    1.4817   -4.1071   25.4387 C   0  0  2  0  0  0  0  0  0  0  0  0
    0.2626   -3.4144   25.2250 O   0  0  0  0  0  0  0  0  0  0  0  0
    2.4286   -8.3321   27.9530 C   0  0  2  0  0  0  0  0  0  0  0  0
    1.3715   -5.5689   24.9171 C   0  0  2  0  0  0  0  0  0  0  0  0
    2.6047   -6.2888   25.1236 O   0  0  0  0  0  0  0  0  0  0  0  0
    3.8546   -8.3891   28.6517 C   0  0  2  0  0  0  0  0  0  0  0  0
    4.8720   -8.0485   27.6627 O   0  0  0  0  0  0  0  0  0  0  0  0
    1.0366   -5.6186   23.4741 C   0  0  0  0  0  0  0  0  0  0  0  0
    2.0431   -6.2159   22.7988 N   0  0  0  0  0  0  0  0  0  0  0  0
    4.0912   -9.8382   29.2023 C   0  0  1  0  0  0  0  0  0  0  0  0
    5.3466   -9.9287   29.7969 O   0  0  0  0  0  0  0  0  0  0  0  0
  1  2  1  1  0  0  0
  1  5  1  0  0  0  0
  1 29  1  0  0  0  0
  3  4  1  6  0  0  0
  3  7  1  0  0  0  0
  3 34  1  0  0  0  0
  5  6  1  1  0  0  0
  5 16  1  0  0  0  0
  7 19  1  0  0  0  0
  8  4  1  0  0  0  0
  8 24  2  0  0  0  0
  9  8  1  1  0  0  0
  9 10  1  0  0  0  0
  9 13  1  0  0  0  0
 10 11  1  0  0  0  0
 11 12  1  0  0  0  0
 14 15  1  0  0  0  0
 14 35  1  0  0  0  0
 15 17  1  0  0  0  0
 16 18  1  6  0  0  0
 16 25  1  0  0  0  0
 19 20  1  6  0  0  0
 19 27  1  0  0  0  0
 21 22  1  0  0  0  0
 21 23  1  0  0  0  0
 23 17  1  0  0  0  0
 25 26  1  1  0  0  0
 25 28  1  0  0  0  0
 27  2  1  1  0  0  0
 27 30  1  0  0  0  0
 28 29  1  0  0  0  0
 28 32  1  6  0  0  0
 30 31  1  6  0  0  0
 30 34  1  0  0  0  0
 32 33  2  0  0  0  0
 34 35  1  1  0  0  0
M  END
>  <CHROM.1>
-132.44017233,-142.62822140,136.58340273,-169.29281814,66.84614889,168.20156668
60.33228947,-157.58240854,-160.57603426,69.33391613,173.47346662,117.62877517
-179.53274440,3.86810926,-8.30510571,28.92507543,1.94342824,-0.46457468,-0.53762536

>  <Name>
2f4t_lig

>  <RI>
0

>  <Rbt.Current_Directory>
/home/itssahil/PROJECTS/Mol_Feturizer/New_Systems/rnas/2f4t

>  <Rbt.Executable>
rbdock ($Id: //depot/dev/client3/rdock/2013.1/src/exe/rbdock.cxx#4 $)

>  <Rbt.Library>
libRbt.so (2013.1, Build901 2013/11/27)

>  <Rbt.Parameter_File>
/export/apps/rDock/src/rDock_2013.1_src/data/scripts/dock_solv.prm

>  <Rbt.Receptor>
prm/pocket_docking_3.prm

>  <SCORE>
-17.9348

>  <SCORE.INTER>
-14.9472

>  <SCORE.INTER.CONST>
1

>  <SCORE.INTER.POLAR>
-2.5677

>  <SCORE.INTER.ROT>
13

>  <SCORE.INTER.SOLV>
19.116

>  <SCORE.INTER.VDW>
-20.0445

>  <SCORE.INTER.norm>
-0.427064

>  <SCORE.INTRA>
-3.14072

>  <SCORE.INTRA.DIHEDRAL>
-10.5949

>  <SCORE.INTRA.DIHEDRAL.0>
23.8882

>  <SCORE.INTRA.POLAR>
0

>  <SCORE.INTRA.POLAR.0>
0

>  <SCORE.INTRA.REPUL>
0

>  <SCORE.INTRA.REPUL.0>
0

>  <SCORE.INTRA.SOLV>
1.35868

>  <SCORE.INTRA.SOLV.lig_0>
-97.6888

>  <SCORE.INTRA.VDW>
1.47739

>  <SCORE.INTRA.VDW.0>
-3.9206

>  <SCORE.INTRA.norm>
-0.0897349

>  <SCORE.RESTR>
0.153106

>  <SCORE.RESTR.CAVITY>
0.153106

>  <SCORE.RESTR.norm>
0.00437445

>  <SCORE.SYSTEM>
0

>  <SCORE.SYSTEM.CONST>
0

>  <SCORE.SYSTEM.DIHEDRAL>
0

>  <SCORE.SYSTEM.SOLV>
0

>  <SCORE.SYSTEM.norm>
0

>  <SCORE.heavy>
35

>  <SCORE.norm>
-0.512424

>  <RMSD>
2.037

$$$$
2f4t_lig
 OpenBabel11021811433D
libRbt.so/2013.1/901 2013/11/27
 35 36  0  0  0  0  0  0  0  0999 V2000
    3.2116   -5.1665   26.3485 C   0  0  2  0  0  0  0  0  0  0  0  0
    2.6068   -5.7277   27.5595 O   0  0  0  0  0  0  0  0  0  0  0  0
    3.8458   -9.1206   29.9282 C   0  0  2  0  0  0  0  0  0  0  0  0
    3.9991  -10.5137   30.3734 N   0  0  0  0  0  0  0  0  0  0  0  0
    2.6305   -3.7267   26.2105 C   0  0  2  0  0  0  0  0  0  0  0  0
    2.8947   -2.9542   27.4017 N   0  0  0  0  0  0  0  0  0  0  0  0
    2.3203   -8.8134   29.7004 C   0  0  0  0  0  0  0  0  0  0  0  0
    3.2530  -11.5963   29.1943 C   0  0  0  0  0  0  0  0  0  0  0  0
    3.7003  -12.7199   30.1029 C   0  0  1  0  0  0  0  0  0  0  0  0
    2.4987  -13.1280   30.9582 C   0  0  0  0  0  0  0  0  0  0  0  0
    1.8976  -12.0168   31.8351 C   0  0  0  0  0  0  0  0  0  0  0  0
    0.7209  -12.5560   32.5234 N   0  0  0  0  0  0  0  0  0  0  0  0
    4.0473  -13.8587   29.3592 O   0  0  0  0  0  0  0  0  0  0  0  0
    7.2580   -9.1065   29.3871 C   0  0  0  0  0  0  0  0  0  0  0  0
    7.7260   -7.6593   29.3780 C   0  0  0  0  0  0  0  0  0  0  0  0
    1.0921   -3.7926   25.9253 C   0  0  1  0  0  0  0  0  0  0  0  0
    6.8282   -6.7430   30.1148 N   0  0  0  0  0  0  0  0  0  0  0  0
    0.5454   -2.4950   25.7919 O   0  0  0  0  0  0  0  0  0  0  0  0
    2.0917   -7.3726   29.2226 C   0  0  2  0  0  0  0  0  0  0  0  0
    0.6741   -7.1244   28.9795 N   0  0  0  0  0  0  0  0  0  0  0  0
    8.0579   -5.0614   31.4901 C   0  0  0  0  0  0  0  0  0  0  0  0
    9.4491   -5.7695   31.4190 N   0  0  0  0  0  0  0  0  0  0  0  0
    7.1704   -5.2971   30.2323 C   0  0  0  0  0  0  0  0  0  0  0  0
    2.7340  -11.4565   28.2723 O   0  0  0  0  0  0  0  0  0  0  0  0
    0.8809   -4.6045   24.6432 C   0  0  2  0  0  0  0  0  0  0  0  0
   -0.4972   -4.6927   24.3190 O   0  0  0  0  0  0  0  0  0  0  0  0
    2.8626   -7.1104   27.9530 C   0  0  2  0  0  0  0  0  0  0  0  0
    1.4893   -6.0268   24.8099 C   0  0  2  0  0  0  0  0  0  0  0  0
    2.8927   -5.9568   25.1372 O   0  0  0  0  0  0  0  0  0  0  0  0
    4.4099   -7.3887   28.1843 C   0  0  2  0  0  0  0  0  0  0  0  0
    5.1229   -7.1195   26.9400 O   0  0  0  0  0  0  0  0  0  0  0  0
    1.3353   -6.8428   23.5821 C   0  0  0  0  0  0  0  0  0  0  0  0
    0.6226   -7.9548   23.8671 N   0  0  0  0  0  0  0  0  0  0  0  0
    4.5970   -8.8869   28.6082 C   0  0  1  0  0  0  0  0  0  0  0  0
    5.9475   -9.1706   28.7915 O   0  0  0  0  0  0  0  0  0  0  0  0
  1  2  1  1  0  0  0
  1  5  1  0  0  0  0
  1 29  1  0  0  0  0
  3  4  1  6  0  0  0
  3  7  1  0  0  0  0
  3 34  1  0  0  0  0
  5  6  1  1  0  0  0
  5 16  1  0  0  0  0
  7 19  1  0  0  0  0
  8  4  1  0  0  0  0
  8 24  2  0  0  0  0
  9  8  1  6  0  0  0
  9 10  1  0  0  0  0
  9 13  1  0  0  0  0
 10 11  1  0  0  0  0
 11 12  1  0  0  0  0
 14 15  1  0  0  0  0
 14 35  1  0  0  0  0
 15 17  1  0  0  0  0
 16 18  1  6  0  0  0
 16 25  1  0  0  0  0
 19 20  1  6  0  0  0
 19 27  1  0  0  0  0
 21 22  1  0  0  0  0
 21 23  1  0  0  0  0
 23 17  1  0  0  0  0
 25 26  1  1  0  0  0
 25 28  1  0  0  0  0
 27  2  1  1  0  0  0
 27 30  1  0  0  0  0
 28 29  1  0  0  0  0
 28 32  1  6  0  0  0
 30 31  1  6  0  0  0
 30 34  1  0  0  0  0
 32 33  2  0  0  0  0
 34 35  1  1  0  0  0
M  END
>  <CHROM.1>
176.01872286,56.02433244,98.66953050,-59.17592312,176.88241338,59.07429238
-56.98923034,178.19376859,64.09020939,-88.52776226,-179.55644851,-120.52006963
-53.43299350,3.45762641,-7.70017673,28.22818836,-1.94541081,0.53810228,2.67759450

>  <Name>
2f4t_lig

>  <RI>
0

>  <Rbt.Current_Directory>
/home/itssahil/PROJECTS/Mol_Feturizer/New_Systems/rnas/2f4t

>  <Rbt.Executable>
rbdock ($Id: //depot/dev/client3/rdock/2013.1/src/exe/rbdock.cxx#4 $)

>  <Rbt.Library>
libRbt.so (2013.1, Build901 2013/11/27)

>  <Rbt.Parameter_File>
/export/apps/rDock/src/rDock_2013.1_src/data/scripts/dock_solv.prm

>  <Rbt.Receptor>
prm/pocket_docking_3.prm

>  <SCORE>
-17.9797

>  <SCORE.INTER>
-9.09684

>  <SCORE.INTER.CONST>
1

>  <SCORE.INTER.POLAR>
-0.938083

>  <SCORE.INTER.ROT>
13

>  <SCORE.INTER.SOLV>
13.4248

>  <SCORE.INTER.VDW>
-19.6792

>  <SCORE.INTER.norm>
-0.25991

>  <SCORE.INTRA>
-8.88285

>  <SCORE.INTRA.DIHEDRAL>
-20.0861

>  <SCORE.INTRA.DIHEDRAL.0>
23.8882

>  <SCORE.INTRA.POLAR>
0

>  <SCORE.INTRA.POLAR.0>
0

>  <SCORE.INTRA.REPUL>
0

>  <SCORE.INTRA.REPUL.0>
0

>  <SCORE.INTRA.SOLV>
3.18073

>  <SCORE.INTRA.SOLV.lig_0>
-97.6888

>  <SCORE.INTRA.VDW>
-0.430142

>  <SCORE.INTRA.VDW.0>
-3.9206

>  <SCORE.INTRA.norm>
-0.253796

>  <SCORE.RESTR>
0

>  <SCORE.RESTR.CAVITY>
0

>  <SCORE.RESTR.norm>
0

>  <SCORE.SYSTEM>
0

>  <SCORE.SYSTEM.CONST>
0

>  <SCORE.SYSTEM.DIHEDRAL>
0

>  <SCORE.SYSTEM.SOLV>
0

>  <SCORE.SYSTEM.norm>
0

>  <SCORE.heavy>
35

>  <SCORE.norm>
-0.513705

>  <RMSD>
2.038

$$$$
2f4t_lig
 OpenBabel11021811433D
libRbt.so/2013.1/901 2013/11/27
 35 36  0  0  0  0  0  0  0  0999 V2000
    3.2117   -5.7050   26.5191 C   0  0  2  0  0  0  0  0  0  0  0  0
    2.3940   -6.2424   27.6099 O   0  0  0  0  0  0  0  0  0  0  0  0
    3.6448   -9.2750   30.4198 C   0  0  2  0  0  0  0  0  0  0  0  0
    3.8224  -10.5970   31.0391 N   0  0  0  0  0  0  0  0  0  0  0  0
    3.2008   -4.1570   26.7017 C   0  0  2  0  0  0  0  0  0  0  0  0
    3.6778   -3.7955   28.0159 N   0  0  0  0  0  0  0  0  0  0  0  0
    2.1202   -9.0493   30.1065 C   0  0  0  0  0  0  0  0  0  0  0  0
    3.2106  -11.8462   29.9510 C   0  0  0  0  0  0  0  0  0  0  0  0
    3.6359  -12.8318   31.0167 C   0  0  1  0  0  0  0  0  0  0  0  0
    2.9838  -14.1767   30.6882 C   0  0  0  0  0  0  0  0  0  0  0  0
    3.5129  -14.8832   29.4288 C   0  0  0  0  0  0  0  0  0  0  0  0
    4.9579  -15.0785   29.5804 N   0  0  0  0  0  0  0  0  0  0  0  0
    5.0209  -13.0545   30.9702 O   0  0  0  0  0  0  0  0  0  0  0  0
    7.1112   -9.1228   29.8656 C   0  0  0  0  0  0  0  0  0  0  0  0
    7.6990   -7.9617   29.0783 C   0  0  0  0  0  0  0  0  0  0  0  0
    1.7573   -3.5977   26.4653 C   0  0  1  0  0  0  0  0  0  0  0  0
    6.9190   -6.7105   29.1990 N   0  0  0  0  0  0  0  0  0  0  0  0
    1.7265   -2.1924   26.6218 O   0  0  0  0  0  0  0  0  0  0  0  0
    1.8671   -7.6867   29.4465 C   0  0  2  0  0  0  0  0  0  0  0  0
    0.4526   -7.5178   29.1287 N   0  0  0  0  0  0  0  0  0  0  0  0
    7.0314   -5.6951   31.4766 C   0  0  0  0  0  0  0  0  0  0  0  0
    7.6047   -4.5683   32.3951 N   0  0  0  0  0  0  0  0  0  0  0  0
    7.4608   -5.5660   29.9852 C   0  0  0  0  0  0  0  0  0  0  0  0
    2.7555  -11.8415   28.9856 O   0  0  0  0  0  0  0  0  0  0  0  0
    1.3190   -3.9957   25.0521 C   0  0  2  0  0  0  0  0  0  0  0  0
    0.0183   -3.5072   24.7671 O   0  0  0  0  0  0  0  0  0  0  0  0
    2.6756   -7.5569   28.1799 C   0  0  2  0  0  0  0  0  0  0  0  0
    1.3606   -5.5437   24.9001 C   0  0  2  0  0  0  0  0  0  0  0  0
    2.6782   -6.0586   25.1835 O   0  0  0  0  0  0  0  0  0  0  0  0
    4.2209   -7.7527   28.4939 C   0  0  2  0  0  0  0  0  0  0  0  0
    4.9705   -7.6148   27.2496 O   0  0  0  0  0  0  0  0  0  0  0  0
    0.9718   -5.9774   23.5372 C   0  0  0  0  0  0  0  0  0  0  0  0
   -0.3695   -6.1291   23.4786 N   0  0  0  0  0  0  0  0  0  0  0  0
    4.4362   -9.1803   29.1062 C   0  0  1  0  0  0  0  0  0  0  0  0
    5.7869   -9.3940   29.3669 O   0  0  0  0  0  0  0  0  0  0  0  0
  1  2  1  1  0  0  0
  1  5  1  0  0  0  0
  1 29  1  0  0  0  0
  3  4  1  6  0  0  0
  3  7  1  0  0  0  0
  3 34  1  0  0  0  0
  5  6  1  1  0  0  0
  5 16  1  0  0  0  0
  7 19  1  0  0  0  0
  8  4  1  0  0  0  0
  8 24  2  0  0  0  0
  9  8  1  6  0  0  0
  9 10  1  0  0  0  0
  9 13  1  0  0  0  0
 10 11  1  0  0  0  0
 11 12  1  0  0  0  0
 14 15  1  0  0  0  0
 14 35  1  0  0  0  0
 15 17  1  0  0  0  0
 16 18  1  6  0  0  0
 16 25  1  0  0  0  0
 19 20  1  6  0  0  0
 19 27  1  0  0  0  0
 21 22  1  0  0  0  0
 21 23  1  0  0  0  0
 23 17  1  0  0  0  0
 25 26  1  1  0  0  0
 25 28  1  0  0  0  0
 27  2  1  1  0  0  0
 27 30  1  0  0  0  0
 28 29  1  0  0  0  0
 28 32  1  6  0  0  0
 30 31  1  6  0  0  0
 30 34  1  0  0  0  0
 32 33  2  0  0  0  0
 34 35  1  1  0  0  0
M  END
>  <CHROM.1>
-149.23778105,58.29650674,166.00540414,68.74971461,57.33318895,60.71020234
-67.44045293,108.62697312,177.56182177,-88.76220046,168.17545103,-87.70066526
-70.56970164,3.60565946,-7.87616250,28.39038920,1.94422786,-0.65511841,-0.29034385

>  <Name>
2f4t_lig

>  <RI>
0

>  <Rbt.Current_Directory>
/home/itssahil/PROJECTS/Mol_Feturizer/New_Systems/rnas/2f4t

>  <Rbt.Executable>
rbdock ($Id: //depot/dev/client3/rdock/2013.1/src/exe/rbdock.cxx#4 $)

>  <Rbt.Library>
libRbt.so (2013.1, Build901 2013/11/27)

>  <Rbt.Parameter_File>
/export/apps/rDock/src/rDock_2013.1_src/data/scripts/dock_solv.prm

>  <Rbt.Receptor>
prm/pocket_docking_5.prm

>  <SCORE>
-15.483

>  <SCORE.INTER>
-12.2457

>  <SCORE.INTER.CONST>
1

>  <SCORE.INTER.POLAR>
-2.3483

>  <SCORE.INTER.ROT>
13

>  <SCORE.INTER.SOLV>
15.5937

>  <SCORE.INTER.VDW>
-17.8007

>  <SCORE.INTER.norm>
-0.349877

>  <SCORE.INTRA>
-3.23731

>  <SCORE.INTRA.DIHEDRAL>
-14.3402

>  <SCORE.INTRA.DIHEDRAL.0>
23.8882

>  <SCORE.INTRA.POLAR>
0

>  <SCORE.INTRA.POLAR.0>
0

>  <SCORE.INTRA.REPUL>
0

>  <SCORE.INTRA.REPUL.0>
0

>  <SCORE.INTRA.SOLV>
4.8054

>  <SCORE.INTRA.SOLV.lig_0>
-97.6888

>  <SCORE.INTRA.VDW>
1.5301

>  <SCORE.INTRA.VDW.0>
-3.9206

>  <SCORE.INTRA.norm>
-0.0924946

>  <SCORE.RESTR>
0

>  <SCORE.RESTR.CAVITY>
0

>  <SCORE.RESTR.norm>
0

>  <SCORE.SYSTEM>
0

>  <SCORE.SYSTEM.CONST>
0

>  <SCORE.SYSTEM.DIHEDRAL>
0

>  <SCORE.SYSTEM.SOLV>
0

>  <SCORE.SYSTEM.norm>
0

>  <SCORE.heavy>
35

>  <SCORE.norm>
-0.442372

>  <RMSD>
2.084

$$$$
2f4t_lig
 OpenBabel11021811433D
libRbt.so/2013.1/901 2013/11/27
 35 36  0  0  0  0  0  0  0  0999 V2000
    2.0530   -6.1508   26.2079 C   0  0  2  0  0  0  0  0  0  0  0  0
    2.0062   -6.4354   27.6445 O   0  0  0  0  0  0  0  0  0  0  0  0
    3.5111   -9.3659   30.4381 C   0  0  2  0  0  0  0  0  0  0  0  0
    4.3051  -10.4784   30.9809 N   0  0  0  0  0  0  0  0  0  0  0  0
    3.2290   -5.1469   26.0109 C   0  0  2  0  0  0  0  0  0  0  0  0
    4.4590   -5.6940   26.5337 N   0  0  0  0  0  0  0  0  0  0  0  0
    2.8505   -9.8127   29.0826 C   0  0  0  0  0  0  0  0  0  0  0  0
    3.2277  -11.6726   31.7102 C   0  0  0  0  0  0  0  0  0  0  0  0
    4.4835  -12.4543   32.0267 C   0  0  1  0  0  0  0  0  0  0  0  0
    4.1023  -13.5602   33.0135 C   0  0  0  0  0  0  0  0  0  0  0  0
    3.1425  -14.6333   32.4726 C   0  0  0  0  0  0  0  0  0  0  0  0
    2.8137  -15.5532   33.5656 N   0  0  0  0  0  0  0  0  0  0  0  0
    4.9683  -13.1092   30.8838 O   0  0  0  0  0  0  0  0  0  0  0  0
    5.8270   -7.8444   32.5413 C   0  0  0  0  0  0  0  0  0  0  0  0
    5.8483   -6.4901   33.2334 C   0  0  0  0  0  0  0  0  0  0  0  0
    2.8935   -3.7829   26.7031 C   0  0  1  0  0  0  0  0  0  0  0  0
    6.9302   -6.3541   34.2331 N   0  0  0  0  0  0  0  0  0  0  0  0
    3.9472   -2.8551   26.5318 O   0  0  0  0  0  0  0  0  0  0  0  0
    2.0132   -8.6889   28.4562 C   0  0  2  0  0  0  0  0  0  0  0  0
    1.4445   -9.1135   27.1808 N   0  0  0  0  0  0  0  0  0  0  0  0
    8.7122   -6.0123   32.5187 C   0  0  0  0  0  0  0  0  0  0  0  0
    8.5096   -4.4629   32.5222 N   0  0  0  0  0  0  0  0  0  0  0  0
    8.3335   -6.6963   33.8656 C   0  0  0  0  0  0  0  0  0  0  0  0
    2.1708  -11.7491   31.8378 O   0  0  0  0  0  0  0  0  0  0  0  0
    1.5945   -3.2469   26.0922 C   0  0  2  0  0  0  0  0  0  0  0  0
    1.2383   -2.0009   26.6687 O   0  0  0  0  0  0  0  0  0  0  0  0
    2.8616   -7.4619   28.2333 C   0  0  2  0  0  0  0  0  0  0  0  0
    0.4491   -4.2814   26.2900 C   0  0  2  0  0  0  0  0  0  0  0  0
    0.7929   -5.5554   25.7067 O   0  0  0  0  0  0  0  0  0  0  0  0
    3.5076   -6.9860   29.6048 C   0  0  2  0  0  0  0  0  0  0  0  0
    4.3143   -5.7967   29.3521 O   0  0  0  0  0  0  0  0  0  0  0  0
   -0.8245   -3.8197   25.6886 C   0  0  0  0  0  0  0  0  0  0  0  0
   -0.7483   -3.9175   24.3431 N   0  0  0  0  0  0  0  0  0  0  0  0
    4.4021   -8.1427   30.1715 C   0  0  1  0  0  0  0  0  0  0  0  0
    5.0061   -7.7459   31.3613 O   0  0  0  0  0  0  0  0  0  0  0  0
  1  2  1  1  0  0  0
  1  5  1  0  0  0  0
  1 29  1  0  0  0  0
  3  4  1  6  0  0  0
  3  7  1  0  0  0  0
  3 34  1  0  0  0  0
  5  6  1  1  0  0  0
  5 16  1  0  0  0  0
  7 19  1  0  0  0  0
  8  4  1  0  0  0  0
  8 24  2  0  0  0  0
  9  8  1  6  0  0  0
  9 10  1  0  0  0  0
  9 13  1  0  0  0  0
 10 11  1  0  0  0  0
 11 12  1  0  0  0  0
 14 15  1  0  0  0  0
 14 35  1  0  0  0  0
 15 17  1  0  0  0  0
 16 18  1  6  0  0  0
 16 25  1  0  0  0  0
 19 20  1  6  0  0  0
 19 27  1  0  0  0  0
 21 22  1  0  0  0  0
 21 23  1  0  0  0  0
 23 17  1  0  0  0  0
 25 26  1  1  0  0  0
 25 28  1  0  0  0  0
 27  2  1  1  0  0  0
 27 30  1  0  0  0  0
 28 29  1  0  0  0  0
 28 32  1  6  0  0  0
 30 31  1  6  0  0  0
 30 34  1  0  0  0  0
 32 33  2  0  0  0  0
 34 35  1  1  0  0  0
M  END
>  <CHROM.1>
-84.54822030,-76.82339996,167.40771004,65.11615842,-176.17111490,-164.27865954
174.49957230,50.60765679,55.49437719,48.67560769,-101.69922807,73.76162841
60.69979168,3.56436996,-7.61539735,29.53813927,1.98139647,-0.72847720,-0.42833940

>  <Name>
2f4t_lig

>  <RI>
0

>  <Rbt.Current_Directory>
/home/itssahil/PROJECTS/Mol_Feturizer/New_Systems/rnas/2f4t

>  <Rbt.Executable>
rbdock ($Id: //depot/dev/client3/rdock/2013.1/src/exe/rbdock.cxx#4 $)

>  <Rbt.Library>
libRbt.so (2013.1, Build901 2013/11/27)

>  <Rbt.Parameter_File>
/export/apps/rDock/src/rDock_2013.1_src/data/scripts/dock_solv.prm

>  <Rbt.Receptor>
prm/pocket_docking_3.prm

>  <SCORE>
-9.66254

>  <SCORE.INTER>
-8.70232

>  <SCORE.INTER.CONST>
1

>  <SCORE.INTER.POLAR>
-0.916515

>  <SCORE.INTER.ROT>
13

>  <SCORE.INTER.SOLV>
15.5436

>  <SCORE.INTER.VDW>
-20.1944

>  <SCORE.INTER.norm>
-0.248638

>  <SCORE.INTRA>
-0.960212

>  <SCORE.INTRA.DIHEDRAL>
-11.2355

>  <SCORE.INTRA.DIHEDRAL.0>
23.8882

>  <SCORE.INTRA.POLAR>
0

>  <SCORE.INTRA.POLAR.0>
0

>  <SCORE.INTRA.REPUL>
0

>  <SCORE.INTRA.REPUL.0>
0

>  <SCORE.INTRA.SOLV>
4.59077

>  <SCORE.INTRA.SOLV.lig_0>
-97.6888

>  <SCORE.INTRA.VDW>
2.36217

>  <SCORE.INTRA.VDW.0>
-3.9206

>  <SCORE.INTRA.norm>
-0.0274346

>  <SCORE.RESTR>
0

>  <SCORE.RESTR.CAVITY>
0

>  <SCORE.RESTR.norm>
0

>  <SCORE.SYSTEM>
0

>  <SCORE.SYSTEM.CONST>
0

>  <SCORE.SYSTEM.DIHEDRAL>
0

>  <SCORE.SYSTEM.SOLV>
0

>  <SCORE.SYSTEM.norm>
0

>  <SCORE.heavy>
35

>  <SCORE.norm>
-0.276072

>  <RMSD>
2.139

$$$$
2f4t_lig
 OpenBabel11021811433D
libRbt.so/2013.1/901 2013/11/27
 35 36  0  0  0  0  0  0  0  0999 V2000
    3.3165   -5.4463   25.9060 C   0  0  2  0  0  0  0  0  0  0  0  0
    2.9956   -6.0626   27.1961 O   0  0  0  0  0  0  0  0  0  0  0  0
    2.8619   -9.9497   29.0750 C   0  0  2  0  0  0  0  0  0  0  0  0
    2.9608  -11.4070   29.2451 N   0  0  0  0  0  0  0  0  0  0  0  0
    3.1955   -3.9081   26.1273 C   0  0  2  0  0  0  0  0  0  0  0  0
    4.0561   -3.4790   27.2045 N   0  0  0  0  0  0  0  0  0  0  0  0
    1.9706   -9.6332   27.8184 C   0  0  0  0  0  0  0  0  0  0  0  0
    1.3746  -12.0623   29.6615 C   0  0  0  0  0  0  0  0  0  0  0  0
    2.0573  -13.4119   29.6853 C   0  0  1  0  0  0  0  0  0  0  0  0
    1.0289  -14.4411   30.1597 C   0  0  0  0  0  0  0  0  0  0  0  0
    0.5935  -14.3184   31.6296 C   0  0  0  0  0  0  0  0  0  0  0  0
    1.7169  -14.7231   32.4802 N   0  0  0  0  0  0  0  0  0  0  0  0
    2.4296  -13.8088   28.3914 O   0  0  0  0  0  0  0  0  0  0  0  0
    6.2525   -9.6745   30.7620 C   0  0  0  0  0  0  0  0  0  0  0  0
    6.7248   -8.2538   31.0300 C   0  0  0  0  0  0  0  0  0  0  0  0
    1.7068   -3.5227   26.4232 C   0  0  1  0  0  0  0  0  0  0  0  0
    6.0006   -7.5887   32.1353 N   0  0  0  0  0  0  0  0  0  0  0  0
    1.5742   -2.1287   26.6227 O   0  0  0  0  0  0  0  0  0  0  0  0
    1.8357   -8.1231   27.5780 C   0  0  2  0  0  0  0  0  0  0  0  0
    1.0390   -7.8559   26.3846 N   0  0  0  0  0  0  0  0  0  0  0  0
    4.5400   -5.8160   33.1130 C   0  0  0  0  0  0  0  0  0  0  0  0
    3.3987   -4.7717   32.8923 N   0  0  0  0  0  0  0  0  0  0  0  0
    4.8968   -6.6330   31.8361 C   0  0  0  0  0  0  0  0  0  0  0  0
    0.4061  -11.6404   29.8133 O   0  0  0  0  0  0  0  0  0  0  0  0
    0.8518   -3.9847   25.2386 C   0  0  2  0  0  0  0  0  0  0  0  0
   -0.5130   -3.6536   25.4374 O   0  0  0  0  0  0  0  0  0  0  0  0
    3.1959   -7.4925   27.4138 C   0  0  2  0  0  0  0  0  0  0  0  0
    1.0120   -5.5190   25.0355 C   0  0  2  0  0  0  0  0  0  0  0  0
    2.3949   -5.8744   24.8285 O   0  0  0  0  0  0  0  0  0  0  0  0
    4.0919   -7.7817   28.6938 C   0  0  2  0  0  0  0  0  0  0  0  0
    5.3947   -7.1531   28.5024 O   0  0  0  0  0  0  0  0  0  0  0  0
    0.2247   -6.0101   23.8797 C   0  0  0  0  0  0  0  0  0  0  0  0
    0.1317   -5.0333   22.9507 N   0  0  0  0  0  0  0  0  0  0  0  0
    4.2527   -9.3328   28.8595 C   0  0  1  0  0  0  0  0  0  0  0  0
    5.0577   -9.6190   29.9585 O   0  0  0  0  0  0  0  0  0  0  0  0
  1  2  1  1  0  0  0
  1  5  1  0  0  0  0
  1 29  1  0  0  0  0
  3  4  1  6  0  0  0
  3  7  1  0  0  0  0
  3 34  1  0  0  0  0
  5  6  1  1  0  0  0
  5 16  1  0  0  0  0
  7 19  1  0  0  0  0
  8  4  1  0  0  0  0
  8 24  2  0  0  0  0
  9  8  1  6  0  0  0
  9 10  1  0  0  0  0
  9 13  1  0  0  0  0
 10 11  1  0  0  0  0
 11 12  1  0  0  0  0
 14 15  1  0  0  0  0
 14 35  1  0  0  0  0
 15 17  1  0  0  0  0
 16 18  1  6  0  0  0
 16 25  1  0  0  0  0
 19 20  1  6  0  0  0
 19 27  1  0  0  0  0
 21 22  1  0  0  0  0
 21 23  1  0  0  0  0
 23 17  1  0  0  0  0
 25 26  1  1  0  0  0
 25 28  1  0  0  0  0
 27  2  1  1  0  0  0
 27 30  1  0  0  0  0
 28 29  1  0  0  0  0
 28 32  1  6  0  0  0
 30 31  1  6  0  0  0
 30 34  1  0  0  0  0
 32 33  2  0  0  0  0
 34 35  1  1  0  0  0
M  END
>  <CHROM.1>
-171.08307350,-66.38280416,175.06212729,-68.54081836,-70.45949308,81.09867391
61.28340738,-99.68230146,179.34903405,-166.07665797,-112.58486914,30.34475852
174.07721004,2.72077340,-7.99397619,28.40248991,1.71226453,-0.85566836,-0.43923777

>  <Name>
2f4t_lig

>  <RI>
0

>  <Rbt.Current_Directory>
/home/itssahil/PROJECTS/Mol_Feturizer/New_Systems/rnas/2f4t

>  <Rbt.Executable>
rbdock ($Id: //depot/dev/client3/rdock/2013.1/src/exe/rbdock.cxx#4 $)

>  <Rbt.Library>
libRbt.so (2013.1, Build901 2013/11/27)

>  <Rbt.Parameter_File>
/export/apps/rDock/src/rDock_2013.1_src/data/scripts/dock_solv.prm

>  <Rbt.Receptor>
prm/pocket_docking_4.prm

>  <SCORE>
-14.3221

>  <SCORE.INTER>
-12.0457

>  <SCORE.INTER.CONST>
1

>  <SCORE.INTER.POLAR>
-0.938083

>  <SCORE.INTER.ROT>
13

>  <SCORE.INTER.SOLV>
11.4897

>  <SCORE.INTER.VDW>
-21.0001

>  <SCORE.INTER.norm>
-0.344163

>  <SCORE.INTRA>
-2.27769

>  <SCORE.INTRA.DIHEDRAL>
-11.025

>  <SCORE.INTRA.DIHEDRAL.0>
23.8882

>  <SCORE.INTRA.POLAR>
0

>  <SCORE.INTRA.POLAR.0>
0

>  <SCORE.INTRA.REPUL>
0

>  <SCORE.INTRA.REPUL.0>
0

>  <SCORE.INTRA.SOLV>
4.60935

>  <SCORE.INTRA.SOLV.lig_0>
-97.6888

>  <SCORE.INTRA.VDW>
0.930142

>  <SCORE.INTRA.VDW.0>
-3.9206

>  <SCORE.INTRA.norm>
-0.0650767

>  <SCORE.RESTR>
0.00128081

>  <SCORE.RESTR.CAVITY>
0.00128081

>  <SCORE.RESTR.norm>
3.65946e-05

>  <SCORE.SYSTEM>
0

>  <SCORE.SYSTEM.CONST>
0

>  <SCORE.SYSTEM.DIHEDRAL>
0

>  <SCORE.SYSTEM.SOLV>
0

>  <SCORE.SYSTEM.norm>
0

>  <SCORE.heavy>
35

>  <SCORE.norm>
-0.409203

>  <RMSD>
2.166

$$$$
2f4t_lig
 OpenBabel11021811433D
libRbt.so/2013.1/901 2013/11/27
 35 36  0  0  0  0  0  0  0  0999 V2000
    2.7053   -7.1189   26.5281 C   0  0  2  0  0  0  0  0  0  0  0  0
    2.7509   -7.2955   27.9821 O   0  0  0  0  0  0  0  0  0  0  0  0
    3.8830  -10.3206   30.8498 C   0  0  2  0  0  0  0  0  0  0  0  0
    4.4912  -11.5376   31.4082 N   0  0  0  0  0  0  0  0  0  0  0  0
    3.9447   -6.2456   26.1664 C   0  0  2  0  0  0  0  0  0  0  0  0
    5.1606   -6.8667   26.6369 N   0  0  0  0  0  0  0  0  0  0  0  0
    3.0479  -10.6974   29.5715 C   0  0  0  0  0  0  0  0  0  0  0  0
    3.4285  -12.2148   32.6456 C   0  0  0  0  0  0  0  0  0  0  0  0
    4.4724  -13.2991   32.7963 C   0  0  1  0  0  0  0  0  0  0  0  0
    4.1208  -14.1078   34.0470 C   0  0  0  0  0  0  0  0  0  0  0  0
    5.1286  -15.2018   34.4375 C   0  0  0  0  0  0  0  0  0  0  0  0
    4.5521  -15.9942   35.5279 N   0  0  0  0  0  0  0  0  0  0  0  0
    4.4144  -14.2038   31.7246 O   0  0  0  0  0  0  0  0  0  0  0  0
    6.7564   -8.3352   32.3423 C   0  0  0  0  0  0  0  0  0  0  0  0
    6.4817   -6.8395   32.3739 C   0  0  0  0  0  0  0  0  0  0  0  0
    3.7873   -4.8107   26.7734 C   0  0  1  0  0  0  0  0  0  0  0  0
    7.5415   -6.0579   33.0481 N   0  0  0  0  0  0  0  0  0  0  0  0
    4.9007   -3.9997   26.4524 O   0  0  0  0  0  0  0  0  0  0  0  0
    2.3932   -9.4651   28.9319 C   0  0  2  0  0  0  0  0  0  0  0  0
    1.6583   -9.8339   27.7260 N   0  0  0  0  0  0  0  0  0  0  0  0
    6.6598   -3.7227   33.0774 C   0  0  0  0  0  0  0  0  0  0  0  0
    6.2907   -2.4588   33.9190 N   0  0  0  0  0  0  0  0  0  0  0  0
    7.1777   -4.9158   33.9339 C   0  0  0  0  0  0  0  0  0  0  0  0
    2.4841  -11.9352   33.0569 O   0  0  0  0  0  0  0  0  0  0  0  0
    2.4949   -4.2004   26.2215 C   0  0  2  0  0  0  0  0  0  0  0  0
    2.2971   -2.8889   26.7242 O   0  0  0  0  0  0  0  0  0  0  0  0
    3.4390   -8.4378   28.5768 C   0  0  2  0  0  0  0  0  0  0  0  0
    1.2833   -5.1068   26.5841 C   0  0  2  0  0  0  0  0  0  0  0  0
    1.4656   -6.4454   26.0776 O   0  0  0  0  0  0  0  0  0  0  0  0
    4.2665   -8.0290   29.8702 C   0  0  2  0  0  0  0  0  0  0  0  0
    5.2621   -7.0321   29.4906 O   0  0  0  0  0  0  0  0  0  0  0  0
    0.0102   -4.5720   26.0453 C   0  0  0  0  0  0  0  0  0  0  0  0
   -0.6184   -3.8560   27.0034 N   0  0  0  0  0  0  0  0  0  0  0  0
    4.9665   -9.3076   30.4486 C   0  0  1  0  0  0  0  0  0  0  0  0
    5.7240   -8.9770   31.5688 O   0  0  0  0  0  0  0  0  0  0  0  0
  1  2  1  1  0  0  0
  1  5  1  0  0  0  0
  1 29  1  0  0  0  0
  3  4  1  6  0  0  0
  3  7  1  0  0  0  0
  3 34  1  0  0  0  0
  5  6  1  1  0  0  0
  5 16  1  0  0  0  0
  7 19  1  0  0  0  0
  8  4  1  0  0  0  0
  8 24  2  0  0  0  0
  9  8  1  6  0  0  0
  9 10  1  0  0  0  0
  9 13  1  0  0  0  0
 10 11  1  0  0  0  0
 11 12  1  0  0  0  0
 14 15  1  0  0  0  0
 14 35  1  0  0  0  0
 15 17  1  0  0  0  0
 16 18  1  6  0  0  0
 16 25  1  0  0  0  0
 19 20  1  6  0  0  0
 19 27  1  0  0  0  0
 21 22  1  0  0  0  0
 21 23  1  0  0  0  0
 23 17  1  0  0  0  0
 25 26  1  1  0  0  0
 25 28  1  0  0  0  0
 27  2  1  1  0  0  0
 27 30  1  0  0  0  0
 28 29  1  0  0  0  0
 28 32  1  6  0  0  0
 30 31  1  6  0  0  0
 30 34  1  0  0  0  0
 32 33  2  0  0  0  0
 34 35  1  1  0  0  0
M  END
>  <CHROM.1>
-91.24895896,-93.07633622,169.39583668,-175.57225589,-172.08336315,-175.18276554
65.86602320,-140.22489603,-178.34841633,-71.73204372,-99.79469952,-96.18803530
179.05242819,3.97913367,-8.16857295,30.01876683,1.86208721,-0.89685677,-0.41519324

>  <Name>
2f4t_lig

>  <RI>
0

>  <Rbt.Current_Directory>
/home/itssahil/PROJECTS/Mol_Feturizer/New_Systems/rnas/2f4t

>  <Rbt.Executable>
rbdock ($Id: //depot/dev/client3/rdock/2013.1/src/exe/rbdock.cxx#4 $)

>  <Rbt.Library>
libRbt.so (2013.1, Build901 2013/11/27)

>  <Rbt.Parameter_File>
/export/apps/rDock/src/rDock_2013.1_src/data/scripts/dock_solv.prm

>  <Rbt.Receptor>
prm/pocket_docking_2.prm

>  <SCORE>
-4.52134

>  <SCORE.INTER>
-0.694446

>  <SCORE.INTER.CONST>
1

>  <SCORE.INTER.POLAR>
-0.0105468

>  <SCORE.INTER.ROT>
13

>  <SCORE.INTER.SOLV>
16.257

>  <SCORE.INTER.VDW>
-18.1135

>  <SCORE.INTER.norm>
-0.0198413

>  <SCORE.INTRA>
-4.21363

>  <SCORE.INTRA.DIHEDRAL>
-10.3862

>  <SCORE.INTRA.DIHEDRAL.0>
23.8882

>  <SCORE.INTRA.POLAR>
0

>  <SCORE.INTRA.POLAR.0>
0

>  <SCORE.INTRA.REPUL>
0

>  <SCORE.INTRA.REPUL.0>
0

>  <SCORE.INTRA.SOLV>
1.43907

>  <SCORE.INTRA.SOLV.lig_0>
-97.6888

>  <SCORE.INTRA.VDW>
0.259913

>  <SCORE.INTRA.VDW.0>
-3.9206

>  <SCORE.INTRA.norm>
-0.12039

>  <SCORE.RESTR>
0.386739

>  <SCORE.RESTR.CAVITY>
0.386739

>  <SCORE.RESTR.norm>
0.0110497

>  <SCORE.SYSTEM>
0

>  <SCORE.SYSTEM.CONST>
0

>  <SCORE.SYSTEM.DIHEDRAL>
0

>  <SCORE.SYSTEM.SOLV>
0

>  <SCORE.SYSTEM.norm>
0

>  <SCORE.heavy>
35

>  <SCORE.norm>
-0.129181

>  <RMSD>
2.319

$$$$
2f4t_lig
 OpenBabel11021811433D
libRbt.so/2013.1/901 2013/11/27
 35 36  0  0  0  0  0  0  0  0999 V2000
    2.9986   -5.0651   26.4687 C   0  0  2  0  0  0  0  0  0  0  0  0
    2.2722   -5.7496   27.5416 O   0  0  0  0  0  0  0  0  0  0  0  0
    2.4293   -9.6440   29.4035 C   0  0  2  0  0  0  0  0  0  0  0  0
    2.9744  -10.9083   29.9201 N   0  0  0  0  0  0  0  0  0  0  0  0
    2.4867   -3.5929   26.4801 C   0  0  2  0  0  0  0  0  0  0  0  0
    2.6781   -2.9969   27.7814 N   0  0  0  0  0  0  0  0  0  0  0  0
    2.9017   -9.4442   27.9167 C   0  0  0  0  0  0  0  0  0  0  0  0
    2.4914  -12.2365   28.8612 C   0  0  0  0  0  0  0  0  0  0  0  0
    3.2692  -13.1285   29.8033 C   0  0  1  0  0  0  0  0  0  0  0  0
    3.1964  -14.5550   29.2540 C   0  0  0  0  0  0  0  0  0  0  0  0
    3.7639  -15.6513   30.1711 C   0  0  0  0  0  0  0  0  0  0  0  0
    5.0990  -15.2386   30.6142 N   0  0  0  0  0  0  0  0  0  0  0  0
    4.6308  -12.7873   29.8079 O   0  0  0  0  0  0  0  0  0  0  0  0
    2.4440   -8.3686   32.9791 C   0  0  0  0  0  0  0  0  0  0  0  0
    3.7936   -8.6734   33.6109 C   0  0  0  0  0  0  0  0  0  0  0  0
    0.9767   -3.5452   26.0678 C   0  0  1  0  0  0  0  0  0  0  0  0
    4.8693   -7.7539   33.1798 N   0  0  0  0  0  0  0  0  0  0  0  0
    0.4934   -2.2160   26.0672 O   0  0  0  0  0  0  0  0  0  0  0  0
    2.3735   -8.1324   27.3197 C   0  0  2  0  0  0  0  0  0  0  0  0
    2.8580   -7.9501   25.9550 N   0  0  0  0  0  0  0  0  0  0  0  0
    6.6712   -6.9490   31.6512 C   0  0  0  0  0  0  0  0  0  0  0  0
    7.5986   -7.2541   30.4311 N   0  0  0  0  0  0  0  0  0  0  0  0
    5.8279   -8.1722   32.1180 C   0  0  0  0  0  0  0  0  0  0  0  0
    1.9095  -12.3102   27.9695 O   0  0  0  0  0  0  0  0  0  0  0  0
    0.8444   -4.1710   24.6755 C   0  0  2  0  0  0  0  0  0  0  0  0
   -0.5035   -4.1482   24.2343 O   0  0  0  0  0  0  0  0  0  0  0  0
    2.8112   -6.9581   28.1589 C   0  0  2  0  0  0  0  0  0  0  0  0
    1.3817   -5.6311   24.6970 C   0  0  2  0  0  0  0  0  0  0  0  0
    2.7538   -5.6735   25.1407 O   0  0  0  0  0  0  0  0  0  0  0  0
    2.3104   -7.1379   29.6562 C   0  0  2  0  0  0  0  0  0  0  0  0
    2.7459   -5.9834   30.4351 O   0  0  0  0  0  0  0  0  0  0  0  0
    1.3016   -6.2708   23.3623 C   0  0  0  0  0  0  0  0  0  0  0  0
    0.3513   -7.2312   23.3799 N   0  0  0  0  0  0  0  0  0  0  0  0
    2.9266   -8.4558   30.2414 C   0  0  1  0  0  0  0  0  0  0  0  0
    2.5286   -8.6277   31.5642 O   0  0  0  0  0  0  0  0  0  0  0  0
  1  2  1  1  0  0  0
  1  5  1  0  0  0  0
  1 29  1  0  0  0  0
  3  4  1  1  0  0  0
  3  7  1  0  0  0  0
  3 34  1  0  0  0  0
  5  6  1  1  0  0  0
  5 16  1  0  0  0  0
  7 19  1  0  0  0  0
  8  4  1  0  0  0  0
  8 24  2  0  0  0  0
  9  8  1  6  0  0  0
  9 10  1  0  0  0  0
  9 13  1  0  0  0  0
 10 11  1  0  0  0  0
 11 12  1  0  0  0  0
 14 15  1  0  0  0  0
 14 35  1  0  0  0  0
 15 17  1  0  0  0  0
 16 18  1  6  0  0  0
 16 25  1  0  0  0  0
 19 20  1  6  0  0  0
 19 27  1  0  0  0  0
 21 22  1  0  0  0  0
 21 23  1  0  0  0  0
 23 17  1  0  0  0  0
 25 26  1  1  0  0  0
 25 28  1  0  0  0  0
 27  2  1  6  0  0  0
 27 30  1  0  0  0  0
 28 29  1  0  0  0  0
 28 32  1  6  0  0  0
 30 31  1  1  0  0  0
 30 34  1  0  0  0  0
 32 33  2  0  0  0  0
 34 35  1  1  0  0  0
M  END
>  <CHROM.1>
-156.94216611,-55.83424784,-178.25488589,-171.93259041,-49.90426235,66.61271234
-68.28876669,-99.49418801,-173.77160911,168.89855978,-86.16354661,-110.04831785
172.26796435,2.86405711,-8.06006061,28.49296220,-2.24240212,1.11017815,-3.12049056

>  <Name>
2f4t_lig

>  <RI>
0

>  <Rbt.Current_Directory>
/home/itssahil/PROJECTS/Mol_Feturizer/New_Systems/rnas/2f4t

>  <Rbt.Executable>
rbdock ($Id: //depot/dev/client3/rdock/2013.1/src/exe/rbdock.cxx#4 $)

>  <Rbt.Library>
libRbt.so (2013.1, Build901 2013/11/27)

>  <Rbt.Parameter_File>
/export/apps/rDock/src/rDock_2013.1_src/data/scripts/dock_solv.prm

>  <Rbt.Receptor>
prm/pocket_docking_5.prm

>  <SCORE>
-21.6911

>  <SCORE.INTER>
-18.5635

>  <SCORE.INTER.CONST>
1

>  <SCORE.INTER.POLAR>
-2.43628

>  <SCORE.INTER.ROT>
13

>  <SCORE.INTER.SOLV>
16.9837

>  <SCORE.INTER.VDW>
-22.1827

>  <SCORE.INTER.norm>
-0.530386

>  <SCORE.INTRA>
-3.12757

>  <SCORE.INTRA.DIHEDRAL>
-14.5107

>  <SCORE.INTRA.DIHEDRAL.0>
23.8882

>  <SCORE.INTRA.POLAR>
0

>  <SCORE.INTRA.POLAR.0>
0

>  <SCORE.INTRA.REPUL>
0

>  <SCORE.INTRA.REPUL.0>
0

>  <SCORE.INTRA.SOLV>
5.61549

>  <SCORE.INTRA.SOLV.lig_0>
-97.6888

>  <SCORE.INTRA.VDW>
1.32002

>  <SCORE.INTRA.VDW.0>
-3.9206

>  <SCORE.INTRA.norm>
-0.0893591

>  <SCORE.RESTR>
0

>  <SCORE.RESTR.CAVITY>
0

>  <SCORE.RESTR.norm>
0

>  <SCORE.SYSTEM>
0

>  <SCORE.SYSTEM.CONST>
0

>  <SCORE.SYSTEM.DIHEDRAL>
0

>  <SCORE.SYSTEM.SOLV>
0

>  <SCORE.SYSTEM.norm>
0

>  <SCORE.heavy>
35

>  <SCORE.norm>
-0.619746

>  <RMSD>
2.624

$$$$
2f4t_lig
 OpenBabel11021811433D
libRbt.so/2013.1/901 2013/11/27
 35 36  0  0  0  0  0  0  0  0999 V2000
    1.9335   -5.9885   26.4829 C   0  0  2  0  0  0  0  0  0  0  0  0
    1.6061   -6.2415   27.8886 O   0  0  0  0  0  0  0  0  0  0  0  0
    2.5887   -9.5715   30.4581 C   0  0  2  0  0  0  0  0  0  0  0  0
    3.3884  -10.5825   31.1660 N   0  0  0  0  0  0  0  0  0  0  0  0
    3.0765   -4.9288   26.4961 C   0  0  2  0  0  0  0  0  0  0  0  0
    4.1972   -5.3977   27.2769 N   0  0  0  0  0  0  0  0  0  0  0  0
    2.9483   -9.6040   28.9274 C   0  0  0  0  0  0  0  0  0  0  0  0
    2.7197  -12.1875   30.8565 C   0  0  0  0  0  0  0  0  0  0  0  0
    3.8397  -12.7053   31.7315 C   0  0  1  0  0  0  0  0  0  0  0  0
    3.2646  -13.8234   32.6038 C   0  0  0  0  0  0  0  0  0  0  0  0
    2.1833  -13.3938   33.6094 C   0  0  0  0  0  0  0  0  0  0  0  0
    1.7242  -14.5839   34.3319 N   0  0  0  0  0  0  0  0  0  0  0  0
    4.8469  -13.3016   30.9568 O   0  0  0  0  0  0  0  0  0  0  0  0
    2.6353   -8.5014   33.7529 C   0  0  0  0  0  0  0  0  0  0  0  0
    4.0737   -8.3927   34.2353 C   0  0  0  0  0  0  0  0  0  0  0  0
    2.5424   -3.5685   27.0589 C   0  0  1  0  0  0  0  0  0  0  0  0
    4.6637   -7.0505   34.0375 N   0  0  0  0  0  0  0  0  0  0  0  0
    3.5641   -2.5906   27.0749 O   0  0  0  0  0  0  0  0  0  0  0  0
    2.1526   -8.5609   28.1303 C   0  0  2  0  0  0  0  0  0  0  0  0
    2.5328   -8.5827   26.7214 N   0  0  0  0  0  0  0  0  0  0  0  0
    6.4295   -5.4407   33.3152 C   0  0  0  0  0  0  0  0  0  0  0  0
    7.8996   -5.2242   32.8315 N   0  0  0  0  0  0  0  0  0  0  0  0
    6.1121   -6.9121   33.7147 C   0  0  0  0  0  0  0  0  0  0  0  0
    1.8923  -12.5586   30.2937 O   0  0  0  0  0  0  0  0  0  0  0  0
    1.3729   -3.1165   26.1783 C   0  0  2  0  0  0  0  0  0  0  0  0
    0.8478   -1.8778   26.6276 O   0  0  0  0  0  0  0  0  0  0  0  0
    2.3935   -7.1789   28.6844 C   0  0  2  0  0  0  0  0  0  0  0  0
    0.2611   -4.2051   26.1732 C   0  0  2  0  0  0  0  0  0  0  0  0
    0.7767   -5.4724   25.7155 O   0  0  0  0  0  0  0  0  0  0  0  0
    2.0027   -7.1302   30.2238 C   0  0  2  0  0  0  0  0  0  0  0  0
    2.2425   -5.7802   30.7230 O   0  0  0  0  0  0  0  0  0  0  0  0
   -0.8821   -3.8256   25.3094 C   0  0  0  0  0  0  0  0  0  0  0  0
   -0.5283   -3.9552   24.0118 N   0  0  0  0  0  0  0  0  0  0  0  0
    2.8853   -8.1658   31.0034 C   0  0  1  0  0  0  0  0  0  0  0  0
    2.5861   -8.1273   32.3623 O   0  0  0  0  0  0  0  0  0  0  0  0
  1  2  1  1  0  0  0
  1  5  1  0  0  0  0
  1 29  1  0  0  0  0
  3  4  1  1  0  0  0
  3  7  1  0  0  0  0
  3 34  1  0  0  0  0
  5  6  1  1  0  0  0
  5 16  1  0  0  0  0
  7 19  1  0  0  0  0
  8  4  1  0  0  0  0
  8 24  2  0  0  0  0
  9  8  1  6  0  0  0
  9 10  1  0  0  0  0
  9 13  1  0  0  0  0
 10 11  1  0  0  0  0
 11 12  1  0  0  0  0
 14 15  1  0  0  0  0
 14 35  1  0  0  0  0
 15 17  1  0  0  0  0
 16 18  1  6  0  0  0
 16 25  1  0  0  0  0
 19 20  1  6  0  0  0
 19 27  1  0  0  0  0
 21 22  1  0  0  0  0
 21 23  1  0  0  0  0
 23 17  1  0  0  0  0
 25 26  1  1  0  0  0
 25 28  1  0  0  0  0
 27  2  1  6  0  0  0
 27 30  1  0  0  0  0
 28 29  1  0  0  0  0
 28 32  1  6  0  0  0
 30 31  1  1  0  0  0
 30 34  1  0  0  0  0
 32 33  2  0  0  0  0
 34 35  1  1  0  0  0
M  END
>  <CHROM.1>
-82.78635762,-76.13350557,139.91824022,-64.60576944,178.63094086,56.55177812
57.83966590,-145.88612759,-174.67129203,170.23339212,-67.47182134,73.97794465
56.45210782,2.76834992,-7.65879299,29.75082373,1.91770501,-0.94113289,-0.41666115

>  <Name>
2f4t_lig

>  <RI>
0

>  <Rbt.Current_Directory>
/home/itssahil/PROJECTS/Mol_Feturizer/New_Systems/rnas/2f4t

>  <Rbt.Executable>
rbdock ($Id: //depot/dev/client3/rdock/2013.1/src/exe/rbdock.cxx#4 $)

>  <Rbt.Library>
libRbt.so (2013.1, Build901 2013/11/27)

>  <Rbt.Parameter_File>
/export/apps/rDock/src/rDock_2013.1_src/data/scripts/dock_solv.prm

>  <Rbt.Receptor>
prm/pocket_docking_4.prm

>  <SCORE>
-11.4148

>  <SCORE.INTER>
-5.5491

>  <SCORE.INTER.CONST>
1

>  <SCORE.INTER.POLAR>
-0.916515

>  <SCORE.INTER.ROT>
13

>  <SCORE.INTER.SOLV>
11.1583

>  <SCORE.INTER.VDW>
-16.6304

>  <SCORE.INTER.norm>
-0.158546

>  <SCORE.INTRA>
-5.86569

>  <SCORE.INTRA.DIHEDRAL>
-16.1947

>  <SCORE.INTRA.DIHEDRAL.0>
23.8882

>  <SCORE.INTRA.POLAR>
0

>  <SCORE.INTRA.POLAR.0>
0

>  <SCORE.INTRA.REPUL>
0

>  <SCORE.INTRA.REPUL.0>
0

>  <SCORE.INTRA.SOLV>
3.10631

>  <SCORE.INTRA.SOLV.lig_0>
-97.6888

>  <SCORE.INTRA.VDW>
0.678512

>  <SCORE.INTRA.VDW.0>
-3.9206

>  <SCORE.INTRA.norm>
-0.167591

>  <SCORE.RESTR>
0

>  <SCORE.RESTR.CAVITY>
0

>  <SCORE.RESTR.norm>
0

>  <SCORE.SYSTEM>
0

>  <SCORE.SYSTEM.CONST>
0

>  <SCORE.SYSTEM.DIHEDRAL>
0

>  <SCORE.SYSTEM.SOLV>
0

>  <SCORE.SYSTEM.norm>
0

>  <SCORE.heavy>
35

>  <SCORE.norm>
-0.326137

>  <RMSD>
2.630

$$$$
2f4t_lig
 OpenBabel11021811433D
libRbt.so/2013.1/901 2013/11/27
 35 36  0  0  0  0  0  0  0  0999 V2000
    2.0301   -7.2110   27.5737 C   0  0  2  0  0  0  0  0  0  0  0  0
    3.1329   -8.0826   27.1598 O   0  0  0  0  0  0  0  0  0  0  0  0
    3.7907  -10.4016   30.7441 C   0  0  2  0  0  0  0  0  0  0  0  0
    4.2175  -11.5046   31.6182 N   0  0  0  0  0  0  0  0  0  0  0  0
    1.1292   -7.0369   26.3137 C   0  0  2  0  0  0  0  0  0  0  0  0
    0.6969   -8.3214   25.8149 N   0  0  0  0  0  0  0  0  0  0  0  0
    2.9358  -10.9807   29.5577 C   0  0  0  0  0  0  0  0  0  0  0  0
    2.8097  -12.1894   32.4355 C   0  0  0  0  0  0  0  0  0  0  0  0
    3.7852  -13.1478   33.0820 C   0  0  1  0  0  0  0  0  0  0  0  0
    4.2847  -14.1015   31.9945 C   0  0  0  0  0  0  0  0  0  0  0  0
    5.2510  -15.2012   32.4659 C   0  0  0  0  0  0  0  0  0  0  0  0
    4.5802  -15.9943   33.5003 N   0  0  0  0  0  0  0  0  0  0  0  0
    4.9213  -12.4683   33.5489 O   0  0  0  0  0  0  0  0  0  0  0  0
    6.0960   -8.4260   32.3988 C   0  0  0  0  0  0  0  0  0  0  0  0
    5.7552   -6.9615   32.1700 C   0  0  0  0  0  0  0  0  0  0  0  0
    1.9022   -6.2460   25.2049 C   0  0  1  0  0  0  0  0  0  0  0  0
    6.0125   -6.1037   33.3476 N   0  0  0  0  0  0  0  0  0  0  0  0
    1.0996   -6.0728   24.0533 O   0  0  0  0  0  0  0  0  0  0  0  0
    2.4664   -9.8776   28.5988 C   0  0  2  0  0  0  0  0  0  0  0  0
    1.7107  -10.4435   27.4857 N   0  0  0  0  0  0  0  0  0  0  0  0
    7.8596   -4.5589   32.6893 C   0  0  0  0  0  0  0  0  0  0  0  0
    6.9857   -3.2655   32.7617 N   0  0  0  0  0  0  0  0  0  0  0  0
    7.4037   -5.6783   33.6714 C   0  0  0  0  0  0  0  0  0  0  0  0
    1.7639  -11.9763   32.4315 O   0  0  0  0  0  0  0  0  0  0  0  0
    2.3137   -4.8901   25.7880 C   0  0  2  0  0  0  0  0  0  0  0  0
    3.0107   -4.1142   24.8267 O   0  0  0  0  0  0  0  0  0  0  0  0
    3.6484   -9.1149   28.0547 C   0  0  2  0  0  0  0  0  0  0  0  0
    3.1942   -5.1021   27.0532 C   0  0  2  0  0  0  0  0  0  0  0  0
    2.4996   -5.8875   28.0442 O   0  0  0  0  0  0  0  0  0  0  0  0
    4.4998   -8.5003   29.2473 C   0  0  2  0  0  0  0  0  0  0  0  0
    5.6284   -7.7664   28.6843 O   0  0  0  0  0  0  0  0  0  0  0  0
    3.5943   -3.8159   27.6717 C   0  0  0  0  0  0  0  0  0  0  0  0
    4.0830   -2.9913   26.7195 N   0  0  0  0  0  0  0  0  0  0  0  0
    5.0088   -9.6688   30.1608 C   0  0  1  0  0  0  0  0  0  0  0  0
    5.7834   -9.1643   31.2016 O   0  0  0  0  0  0  0  0  0  0  0  0
  1  2  1  6  0  0  0
  1  5  1  0  0  0  0
  1 29  1  0  0  0  0
  3  4  1  1  0  0  0
  3  7  1  0  0  0  0
  3 34  1  0  0  0  0
  5  6  1  6  0  0  0
  5 16  1  0  0  0  0
  7 19  1  0  0  0  0
  8  4  1  0  0  0  0
  8 24  2  0  0  0  0
  9  8  1  6  0  0  0
  9 10  1  0  0  0  0
  9 13  1  0  0  0  0
 10 11  1  0  0  0  0
 11 12  1  0  0  0  0
 14 15  1  0  0  0  0
 14 35  1  0  0  0  0
 15 17  1  0  0  0  0
 16 18  1  6  0  0  0
 16 25  1  0  0  0  0
 19 20  1  6  0  0  0
 19 27  1  0  0  0  0
 21 22  1  0  0  0  0
 21 23  1  0  0  0  0
 23 17  1  0  0  0  0
 25 26  1  6  0  0  0
 25 28  1  0  0  0  0
 27  2  1  6  0  0  0
 27 30  1  0  0  0  0
 28 29  1  0  0  0  0
 28 32  1  1  0  0  0
 30 31  1  6  0  0  0
 30 34  1  0  0  0  0
 32 33  2  0  0  0  0
 34 35  1  1  0  0  0
M  END
>  <CHROM.1>
-140.62693986,-67.71864272,-69.94679705,-177.53248912,58.23824887,178.94144359
-58.51432599,77.83644742,61.32165573,75.39106406,48.16080242,-48.79800558
-54.36119474,3.89275849,-8.48270405,29.65201540,1.86529324,-0.91822771,-0.46785915

>  <Name>
2f4t_lig

>  <RI>
0

>  <Rbt.Current_Directory>
/home/itssahil/PROJECTS/Mol_Feturizer/New_Systems/rnas/2f4t

>  <Rbt.Executable>
rbdock ($Id: //depot/dev/client3/rdock/2013.1/src/exe/rbdock.cxx#4 $)

>  <Rbt.Library>
libRbt.so (2013.1, Build901 2013/11/27)

>  <Rbt.Parameter_File>
/export/apps/rDock/src/rDock_2013.1_src/data/scripts/dock_solv.prm

>  <Rbt.Receptor>
prm/pocket_docking_2.prm

>  <SCORE>
5.43528

>  <SCORE.INTER>
3.71017

>  <SCORE.INTER.CONST>
1

>  <SCORE.INTER.POLAR>
-0.113404

>  <SCORE.INTER.ROT>
13

>  <SCORE.INTER.SOLV>
14.8853

>  <SCORE.INTER.VDW>
-14.377

>  <SCORE.INTER.norm>
0.106005

>  <SCORE.INTRA>
1.3243

>  <SCORE.INTRA.DIHEDRAL>
-14.5056

>  <SCORE.INTRA.DIHEDRAL.0>
23.8882

>  <SCORE.INTRA.POLAR>
0

>  <SCORE.INTRA.POLAR.0>
0

>  <SCORE.INTRA.REPUL>
0

>  <SCORE.INTRA.REPUL.0>
0

>  <SCORE.INTRA.SOLV>
5.33278

>  <SCORE.INTRA.SOLV.lig_0>
-97.6888

>  <SCORE.INTRA.VDW>
5.91073

>  <SCORE.INTRA.VDW.0>
-3.9206

>  <SCORE.INTRA.norm>
0.0378371

>  <SCORE.RESTR>
0.400812

>  <SCORE.RESTR.CAVITY>
0.400812

>  <SCORE.RESTR.norm>
0.0114518

>  <SCORE.SYSTEM>
0

>  <SCORE.SYSTEM.CONST>
0

>  <SCORE.SYSTEM.DIHEDRAL>
0

>  <SCORE.SYSTEM.SOLV>
0

>  <SCORE.SYSTEM.norm>
0

>  <SCORE.heavy>
35

>  <SCORE.norm>
0.155294

>  <RMSD>
2.746

$$$$
2f4t_lig
 OpenBabel11021811433D
libRbt.so/2013.1/901 2013/11/27
 35 36  0  0  0  0  0  0  0  0999 V2000
    2.6625   -5.7201   26.3223 C   0  0  2  0  0  0  0  0  0  0  0  0
    1.7492   -6.3817   27.2579 O   0  0  0  0  0  0  0  0  0  0  0  0
    4.0231   -6.6407   30.9212 C   0  0  2  0  0  0  0  0  0  0  0  0
    4.4239   -7.0589   32.2729 N   0  0  0  0  0  0  0  0  0  0  0  0
    2.4366   -4.1902   26.5170 C   0  0  2  0  0  0  0  0  0  0  0  0
    2.6474   -3.8153   27.8956 N   0  0  0  0  0  0  0  0  0  0  0  0
    2.5144   -6.1967   30.9413 C   0  0  0  0  0  0  0  0  0  0  0  0
    3.4343   -8.4289   32.7852 C   0  0  0  0  0  0  0  0  0  0  0  0
    4.2376   -8.3924   34.0665 C   0  0  1  0  0  0  0  0  0  0  0  0
    3.2582   -8.1578   35.2188 C   0  0  0  0  0  0  0  0  0  0  0  0
    2.4128   -9.3742   35.6320 C   0  0  0  0  0  0  0  0  0  0  0  0
    1.4637   -9.6659   34.5535 N   0  0  0  0  0  0  0  0  0  0  0  0
    4.8370   -9.6363   34.3186 O   0  0  0  0  0  0  0  0  0  0  0  0
    6.9403   -8.1124   29.7621 C   0  0  0  0  0  0  0  0  0  0  0  0
    7.4850   -7.2490   30.8897 C   0  0  0  0  0  0  0  0  0  0  0  0
    0.9940   -3.7961   26.0522 C   0  0  1  0  0  0  0  0  0  0  0  0
    6.9070   -5.8876   30.9239 N   0  0  0  0  0  0  0  0  0  0  0  0
    0.7699   -2.4093   26.2163 O   0  0  0  0  0  0  0  0  0  0  0  0
    2.0288   -5.7567   29.5532 C   0  0  2  0  0  0  0  0  0  0  0  0
    0.6169   -5.3886   29.5890 N   0  0  0  0  0  0  0  0  0  0  0  0
    6.3203   -4.0848   32.5478 C   0  0  0  0  0  0  0  0  0  0  0  0
    6.8169   -2.9480   33.4981 N   0  0  0  0  0  0  0  0  0  0  0  0
    7.4727   -4.8594   31.8427 C   0  0  0  0  0  0  0  0  0  0  0  0
    2.6401   -8.9869   32.3415 O   0  0  0  0  0  0  0  0  0  0  0  0
    0.8416   -4.1997   24.5820 C   0  0  2  0  0  0  0  0  0  0  0  0
   -0.4448   -3.8578   24.0921 O   0  0  0  0  0  0  0  0  0  0  0  0
    2.2232   -6.8670   28.5510 C   0  0  2  0  0  0  0  0  0  0  0  0
    1.0925   -5.7271   24.4226 C   0  0  2  0  0  0  0  0  0  0  0  0
    2.3989   -6.0932   24.9135 O   0  0  0  0  0  0  0  0  0  0  0  0
    3.7514   -7.2997   28.5025 C   0  0  2  0  0  0  0  0  0  0  0  0
    3.9022   -8.3685   27.5206 O   0  0  0  0  0  0  0  0  0  0  0  0
    0.9848   -6.1619   23.0097 C   0  0  0  0  0  0  0  0  0  0  0  0
    2.1927   -6.0575   22.4134 N   0  0  0  0  0  0  0  0  0  0  0  0
    4.1814   -7.7999   29.9252 C   0  0  1  0  0  0  0  0  0  0  0  0
    5.5105   -8.2137   29.9089 O   0  0  0  0  0  0  0  0  0  0  0  0
  1  2  1  1  0  0  0
  1  5  1  0  0  0  0
  1 29  1  0  0  0  0
  3  4  1  1  0  0  0
  3  7  1  0  0  0  0
  3 34  1  0  0  0  0
  5  6  1  1  0  0  0
  5 16  1  0  0  0  0
  7 19  1  0  0  0  0
  8  4  1  0  0  0  0
  8 24  2  0  0  0  0
  9  8  1  6  0  0  0
  9 10  1  0  0  0  0
  9 13  1  0  0  0  0
 10 11  1  0  0  0  0
 11 12  1  0  0  0  0
 14 15  1  0  0  0  0
 14 35  1  0  0  0  0
 15 17  1  0  0  0  0
 16 18  1  6  0  0  0
 16 25  1  0  0  0  0
 19 20  1  1  0  0  0
 19 27  1  0  0  0  0
 21 22  1  0  0  0  0
 21 23  1  0  0  0  0
 23 17  1  0  0  0  0
 25 26  1  1  0  0  0
 25 28  1  0  0  0  0
 27  2  1  6  0  0  0
 27 30  1  0  0  0  0
 28 29  1  0  0  0  0
 28 32  1  6  0  0  0
 30 31  1  6  0  0  0
 30 34  1  0  0  0  0
 32 33  2  0  0  0  0
 34 35  1  6  0  0  0
M  END
>  <CHROM.1>
-98.53302168,60.90414040,120.27149645,75.57868201,-68.98453950,-58.55546291
68.08003044,-171.33065103,-178.01496055,-136.11426094,91.21247147,89.28352785
-57.17554861,3.30641882,-6.40540353,29.41472198,-1.97401831,0.50801038,2.09971493

>  <Name>
2f4t_lig

>  <RI>
0

>  <Rbt.Current_Directory>
/home/itssahil/PROJECTS/Mol_Feturizer/New_Systems/rnas/2f4t

>  <Rbt.Executable>
rbdock ($Id: //depot/dev/client3/rdock/2013.1/src/exe/rbdock.cxx#4 $)

>  <Rbt.Library>
libRbt.so (2013.1, Build901 2013/11/27)

>  <Rbt.Parameter_File>
/export/apps/rDock/src/rDock_2013.1_src/data/scripts/dock_solv.prm

>  <Rbt.Receptor>
prm/pocket_docking_7.prm

>  <SCORE>
-11.7233

>  <SCORE.INTER>
-13.685

>  <SCORE.INTER.CONST>
1

>  <SCORE.INTER.POLAR>
-2.18042

>  <SCORE.INTER.ROT>
13

>  <SCORE.INTER.SOLV>
9.66056

>  <SCORE.INTER.VDW>
-17.3421

>  <SCORE.INTER.norm>
-0.391

>  <SCORE.INTRA>
1.95483

>  <SCORE.INTRA.DIHEDRAL>
-8.49716

>  <SCORE.INTRA.DIHEDRAL.0>
23.8882

>  <SCORE.INTRA.POLAR>
0

>  <SCORE.INTRA.POLAR.0>
0

>  <SCORE.INTRA.REPUL>
0

>  <SCORE.INTRA.REPUL.0>
0

>  <SCORE.INTRA.SOLV>
10.2192

>  <SCORE.INTRA.SOLV.lig_0>
-97.6888

>  <SCORE.INTRA.VDW>
1.09382

>  <SCORE.INTRA.VDW.0>
-3.9206

>  <SCORE.INTRA.norm>
0.0558524

>  <SCORE.RESTR>
0.00683296

>  <SCORE.RESTR.CAVITY>
0.00683296

>  <SCORE.RESTR.norm>
0.000195228

>  <SCORE.SYSTEM>
0

>  <SCORE.SYSTEM.CONST>
0

>  <SCORE.SYSTEM.DIHEDRAL>
0

>  <SCORE.SYSTEM.SOLV>
0

>  <SCORE.SYSTEM.norm>
0

>  <SCORE.heavy>
35

>  <SCORE.norm>
-0.334953

>  <RMSD>
2.824

$$$$
2f4t_lig
 OpenBabel11021811433D
libRbt.so/2013.1/901 2013/11/27
 35 36  0  0  0  0  0  0  0  0999 V2000
    1.9050   -7.6069   27.5689 C   0  0  2  0  0  0  0  0  0  0  0  0
    2.8039   -8.7095   27.2176 O   0  0  0  0  0  0  0  0  0  0  0  0
    3.9800  -10.1498   31.1163 C   0  0  2  0  0  0  0  0  0  0  0  0
    4.4590  -11.0604   32.1671 N   0  0  0  0  0  0  0  0  0  0  0  0
    1.0076   -7.3737   26.3160 C   0  0  2  0  0  0  0  0  0  0  0  0
    0.3186   -8.5887   25.9494 N   0  0  0  0  0  0  0  0  0  0  0  0
    2.8122  -10.8421   30.3223 C   0  0  0  0  0  0  0  0  0  0  0  0
    4.3780  -12.7264   31.5871 C   0  0  0  0  0  0  0  0  0  0  0  0
    4.9385  -13.1109   32.9384 C   0  0  1  0  0  0  0  0  0  0  0  0
    4.5099  -14.5522   33.2228 C   0  0  0  0  0  0  0  0  0  0  0  0
    3.0534  -14.7355   33.6814 C   0  0  0  0  0  0  0  0  0  0  0  0
    2.9174  -14.1700   35.0271 N   0  0  0  0  0  0  0  0  0  0  0  0
    6.3418  -13.1249   32.9140 O   0  0  0  0  0  0  0  0  0  0  0  0
    7.4311   -8.5668   31.0282 C   0  0  0  0  0  0  0  0  0  0  0  0
    7.5202   -8.1123   32.4769 C   0  0  0  0  0  0  0  0  0  0  0  0
    1.8756   -6.8498   25.1225 C   0  0  1  0  0  0  0  0  0  0  0  0
    7.0159   -6.7392   32.6978 N   0  0  0  0  0  0  0  0  0  0  0  0
    1.0785   -6.6270   23.9756 O   0  0  0  0  0  0  0  0  0  0  0  0
    2.2727   -9.9448   29.1997 C   0  0  2  0  0  0  0  0  0  0  0  0
    1.2189  -10.6241   28.4525 N   0  0  0  0  0  0  0  0  0  0  0  0
    7.0205   -4.4845   33.7691 C   0  0  0  0  0  0  0  0  0  0  0  0
    7.8125   -3.7293   32.6537 N   0  0  0  0  0  0  0  0  0  0  0  0
    7.4207   -5.9824   33.9163 C   0  0  0  0  0  0  0  0  0  0  0  0
    4.0638  -13.1888   30.6778 O   0  0  0  0  0  0  0  0  0  0  0  0
    2.5611   -5.5535   25.5667 C   0  0  2  0  0  0  0  0  0  0  0  0
    3.3574   -5.0165   24.5229 O   0  0  0  0  0  0  0  0  0  0  0  0
    3.3819   -9.5635   28.2514 C   0  0  2  0  0  0  0  0  0  0  0  0
    3.4316   -5.8193   26.8287 C   0  0  2  0  0  0  0  0  0  0  0  0
    2.6369   -6.3635   27.9030 O   0  0  0  0  0  0  0  0  0  0  0  0
    4.5521   -8.8351   29.0420 C   0  0  2  0  0  0  0  0  0  0  0  0
    5.6019   -8.4765   28.0941 O   0  0  0  0  0  0  0  0  0  0  0  0
    4.0938   -4.5856   27.3150 C   0  0  0  0  0  0  0  0  0  0  0  0
    3.1556   -3.6677   27.6358 N   0  0  0  0  0  0  0  0  0  0  0  0
    5.1116   -9.8131   30.1327 C   0  0  1  0  0  0  0  0  0  0  0  0
    6.1595   -9.2134   30.8255 O   0  0  0  0  0  0  0  0  0  0  0  0
  1  2  1  6  0  0  0
  1  5  1  0  0  0  0
  1 29  1  0  0  0  0
  3  4  1  1  0  0  0
  3  7  1  0  0  0  0
  3 34  1  0  0  0  0
  5  6  1  6  0  0  0
  5 16  1  0  0  0  0
  7 19  1  0  0  0  0
  8  4  1  0  0  0  0
  8 24  2  0  0  0  0
  9  8  1  6  0  0  0
  9 10  1  0  0  0  0
  9 13  1  0  0  0  0
 10 11  1  0  0  0  0
 11 12  1  0  0  0  0
 14 15  1  0  0  0  0
 14 35  1  0  0  0  0
 15 17  1  0  0  0  0
 16 18  1  6  0  0  0
 16 25  1  0  0  0  0
 19 20  1  6  0  0  0
 19 27  1  0  0  0  0
 21 22  1  0  0  0  0
 21 23  1  0  0  0  0
 23 17  1  0  0  0  0
 25 26  1  6  0  0  0
 25 28  1  0  0  0  0
 27  2  1  6  0  0  0
 27 30  1  0  0  0  0
 28 29  1  0  0  0  0
 28 32  1  1  0  0  0
 30 31  1  6  0  0  0
 30 34  1  0  0  0  0
 32 33  2  0  0  0  0
 34 35  1  1  0  0  0
M  END
>  <CHROM.1>
-154.36105996,35.35678870,154.95664099,-77.58583933,-69.22545845,-90.58374709
171.92028780,-160.13543752,-66.89442628,167.81041257,46.18072869,60.05949518
-176.79444821,4.07950623,-8.81288652,29.69841546,1.96702153,-0.85095243,-0.53662765

>  <Name>
2f4t_lig

>  <RI>
0

>  <Rbt.Current_Directory>
/home/itssahil/PROJECTS/Mol_Feturizer/New_Systems/rnas/2f4t

>  <Rbt.Executable>
rbdock ($Id: //depot/dev/client3/rdock/2013.1/src/exe/rbdock.cxx#4 $)

>  <Rbt.Library>
libRbt.so (2013.1, Build901 2013/11/27)

>  <Rbt.Parameter_File>
/export/apps/rDock/src/rDock_2013.1_src/data/scripts/dock_solv.prm

>  <Rbt.Receptor>
prm/pocket_docking_2.prm

>  <SCORE>
0.909222

>  <SCORE.INTER>
1.78782

>  <SCORE.INTER.CONST>
1

>  <SCORE.INTER.POLAR>
-0.421168

>  <SCORE.INTER.ROT>
13

>  <SCORE.INTER.SOLV>
18.3024

>  <SCORE.INTER.VDW>
-15.7717

>  <SCORE.INTER.norm>
0.0510806

>  <SCORE.INTRA>
-1.18761

>  <SCORE.INTRA.DIHEDRAL>
-11.3373

>  <SCORE.INTRA.DIHEDRAL.0>
23.8882

>  <SCORE.INTRA.POLAR>
0

>  <SCORE.INTRA.POLAR.0>
0

>  <SCORE.INTRA.REPUL>
0

>  <SCORE.INTRA.REPUL.0>
0

>  <SCORE.INTRA.SOLV>
3.92528

>  <SCORE.INTRA.SOLV.lig_0>
-97.6888

>  <SCORE.INTRA.VDW>
2.51838

>  <SCORE.INTRA.VDW.0>
-3.9206

>  <SCORE.INTRA.norm>
-0.0339316

>  <SCORE.RESTR>
0.309007

>  <SCORE.RESTR.CAVITY>
0.309007

>  <SCORE.RESTR.norm>
0.00882877

>  <SCORE.SYSTEM>
0

>  <SCORE.SYSTEM.CONST>
0

>  <SCORE.SYSTEM.DIHEDRAL>
0

>  <SCORE.SYSTEM.SOLV>
0

>  <SCORE.SYSTEM.norm>
0

>  <SCORE.heavy>
35

>  <SCORE.norm>
0.0259778

>  <RMSD>
2.866

$$$$
2f4t_lig
 OpenBabel11021811433D
libRbt.so/2013.1/901 2013/11/27
 35 36  0  0  0  0  0  0  0  0999 V2000
    2.1249   -6.5288   27.8101 C   0  0  2  0  0  0  0  0  0  0  0  0
    2.6595   -7.7895   27.2885 O   0  0  0  0  0  0  0  0  0  0  0  0
    4.0920   -9.6806   30.8981 C   0  0  2  0  0  0  0  0  0  0  0  0
    4.5167  -10.7344   31.8317 N   0  0  0  0  0  0  0  0  0  0  0  0
    1.7109   -5.6929   26.5613 C   0  0  2  0  0  0  0  0  0  0  0  0
    0.7725   -6.4267   25.7451 N   0  0  0  0  0  0  0  0  0  0  0  0
    2.6869  -10.0541   30.2982 C   0  0  0  0  0  0  0  0  0  0  0  0
    4.4852  -12.2982   31.0116 C   0  0  0  0  0  0  0  0  0  0  0  0
    4.9688  -12.8753   32.3236 C   0  0  1  0  0  0  0  0  0  0  0  0
    4.6697  -14.3760   32.3058 C   0  0  0  0  0  0  0  0  0  0  0  0
    3.1923  -14.7626   32.4882 C   0  0  0  0  0  0  0  0  0  0  0  0
    2.4592  -14.3716   31.2804 N   0  0  0  0  0  0  0  0  0  0  0  0
    6.3632  -12.7626   32.4376 O   0  0  0  0  0  0  0  0  0  0  0  0
    7.3501   -8.4744   30.9802 C   0  0  0  0  0  0  0  0  0  0  0  0
    6.9726   -8.4452   32.4534 C   0  0  0  0  0  0  0  0  0  0  0  0
    2.9796   -5.3041   25.7297 C   0  0  1  0  0  0  0  0  0  0  0  0
    5.9124   -7.4641   32.7726 N   0  0  0  0  0  0  0  0  0  0  0  0
    2.6260   -4.5401   24.5931 O   0  0  0  0  0  0  0  0  0  0  0  0
    2.1895   -8.9957   29.3037 C   0  0  2  0  0  0  0  0  0  0  0  0
    0.9046   -9.3841   28.7308 N   0  0  0  0  0  0  0  0  0  0  0  0
    6.8025   -5.1335   32.6886 C   0  0  0  0  0  0  0  0  0  0  0  0
    7.2040   -3.8419   33.4713 N   0  0  0  0  0  0  0  0  0  0  0  0
    6.2303   -6.2628   33.5955 C   0  0  0  0  0  0  0  0  0  0  0  0
    4.2292  -12.6231   30.0277 O   0  0  0  0  0  0  0  0  0  0  0  0
    3.9223   -4.5133   26.6427 C   0  0  2  0  0  0  0  0  0  0  0  0
    5.0919   -4.1174   25.9447 O   0  0  0  0  0  0  0  0  0  0  0  0
    3.1893   -8.8086   28.1900 C   0  0  2  0  0  0  0  0  0  0  0  0
    4.2985   -5.3697   27.8861 C   0  0  2  0  0  0  0  0  0  0  0  0
    3.1201   -5.7793   28.6109 O   0  0  0  0  0  0  0  0  0  0  0  0
    4.6042   -8.4004   28.7869 C   0  0  2  0  0  0  0  0  0  0  0  0
    5.5419   -8.2225   27.6831 O   0  0  0  0  0  0  0  0  0  0  0  0
    5.1882   -4.6350   28.8164 C   0  0  0  0  0  0  0  0  0  0  0  0
    6.2942   -5.3726   29.0582 N   0  0  0  0  0  0  0  0  0  0  0  0
    5.0976   -9.5398   29.7448 C   0  0  1  0  0  0  0  0  0  0  0  0
    6.3504   -9.2245   30.2632 O   0  0  0  0  0  0  0  0  0  0  0  0
  1  2  1  6  0  0  0
  1  5  1  0  0  0  0
  1 29  1  0  0  0  0
  3  4  1  1  0  0  0
  3  7  1  0  0  0  0
  3 34  1  0  0  0  0
  5  6  1  6  0  0  0
  5 16  1  0  0  0  0
  7 19  1  0  0  0  0
  8  4  1  0  0  0  0
  8 24  2  0  0  0  0
  9  8  1  6  0  0  0
  9 10  1  0  0  0  0
  9 13  1  0  0  0  0
 10 11  1  0  0  0  0
 11 12  1  0  0  0  0
 14 15  1  0  0  0  0
 14 35  1  0  0  0  0
 15 17  1  0  0  0  0
 16 18  1  6  0  0  0
 16 25  1  0  0  0  0
 19 20  1  6  0  0  0
 19 27  1  0  0  0  0
 21 22  1  0  0  0  0
 21 23  1  0  0  0  0
 23 17  1  0  0  0  0
 25 26  1  6  0  0  0
 25 28  1  0  0  0  0
 27  2  1  6  0  0  0
 27 30  1  0  0  0  0
 28 29  1  0  0  0  0
 28 32  1  1  0  0  0
 30 31  1  6  0  0  0
 30 34  1  0  0  0  0
 32 33  2  0  0  0  0
 34 35  1  1  0  0  0
M  END
>  <CHROM.1>
177.97822526,54.72514876,160.86161577,-73.85866837,70.11715855,-78.55268285
64.03264274,-111.98943320,-178.40255919,84.42230685,47.49097364,-126.22547372
-59.65648005,4.32904640,-8.36289130,29.64392143,1.75234369,-0.83939170,-0.45701044

>  <Name>
2f4t_lig

>  <RI>
0

>  <Rbt.Current_Directory>
/home/itssahil/PROJECTS/Mol_Feturizer/New_Systems/rnas/2f4t

>  <Rbt.Executable>
rbdock ($Id: //depot/dev/client3/rdock/2013.1/src/exe/rbdock.cxx#4 $)

>  <Rbt.Library>
libRbt.so (2013.1, Build901 2013/11/27)

>  <Rbt.Parameter_File>
/export/apps/rDock/src/rDock_2013.1_src/data/scripts/dock_solv.prm

>  <Rbt.Receptor>
prm/pocket_docking_3.prm

>  <SCORE>
-4.44066

>  <SCORE.INTER>
2.66667

>  <SCORE.INTER.CONST>
1

>  <SCORE.INTER.POLAR>
-0.226389

>  <SCORE.INTER.ROT>
13

>  <SCORE.INTER.SOLV>
14.2171

>  <SCORE.INTER.VDW>
-14.4733

>  <SCORE.INTER.norm>
0.0761906

>  <SCORE.INTRA>
-7.10734

>  <SCORE.INTRA.DIHEDRAL>
-17.1713

>  <SCORE.INTRA.DIHEDRAL.0>
23.8882

>  <SCORE.INTRA.POLAR>
0

>  <SCORE.INTRA.POLAR.0>
0

>  <SCORE.INTRA.REPUL>
0.0251038

>  <SCORE.INTRA.REPUL.0>
0

>  <SCORE.INTRA.SOLV>
5.29031

>  <SCORE.INTRA.SOLV.lig_0>
-97.6888

>  <SCORE.INTRA.VDW>
-1.29236

>  <SCORE.INTRA.VDW.0>
-3.9206

>  <SCORE.INTRA.norm>
-0.203067

>  <SCORE.RESTR>
0

>  <SCORE.RESTR.CAVITY>
0

>  <SCORE.RESTR.norm>
0

>  <SCORE.SYSTEM>
0

>  <SCORE.SYSTEM.CONST>
0

>  <SCORE.SYSTEM.DIHEDRAL>
0

>  <SCORE.SYSTEM.SOLV>
0

>  <SCORE.SYSTEM.norm>
0

>  <SCORE.heavy>
35

>  <SCORE.norm>
-0.126876

>  <RMSD>
3.133

$$$$
2f4t_lig
 OpenBabel11021811433D
libRbt.so/2013.1/901 2013/11/27
 35 36  0  0  0  0  0  0  0  0999 V2000
    3.2000   -4.4573   27.5315 C   0  0  2  0  0  0  0  0  0  0  0  0
    2.5040   -4.8673   28.7541 O   0  0  0  0  0  0  0  0  0  0  0  0
    2.2460   -8.2324   31.4498 C   0  0  2  0  0  0  0  0  0  0  0  0
    2.5029   -9.5557   32.0376 N   0  0  0  0  0  0  0  0  0  0  0  0
    2.9415   -2.9269   27.3875 C   0  0  2  0  0  0  0  0  0  0  0  0
    3.3815   -2.2223   28.5688 N   0  0  0  0  0  0  0  0  0  0  0  0
    1.9125   -8.3991   29.9219 C   0  0  0  0  0  0  0  0  0  0  0  0
    3.9227  -10.2761   31.2733 C   0  0  0  0  0  0  0  0  0  0  0  0
    3.6919  -11.4505   32.1985 C   0  0  1  0  0  0  0  0  0  0  0  0
    4.3373  -12.6794   31.5542 C   0  0  0  0  0  0  0  0  0  0  0  0
    3.6723  -13.1796   30.2608 C   0  0  0  0  0  0  0  0  0  0  0  0
    4.5414  -14.1934   29.6558 N   0  0  0  0  0  0  0  0  0  0  0  0
    4.3557  -11.2641   33.4211 O   0  0  0  0  0  0  0  0  0  0  0  0
    4.4981   -6.7087   34.1012 C   0  0  0  0  0  0  0  0  0  0  0  0
    3.9939   -7.4705   35.3174 C   0  0  0  0  0  0  0  0  0  0  0  0
    1.4216   -2.6608   27.1201 C   0  0  1  0  0  0  0  0  0  0  0  0
    2.5188   -7.5539   35.3929 N   0  0  0  0  0  0  0  0  0  0  0  0
    1.1662   -1.2767   26.9814 O   0  0  0  0  0  0  0  0  0  0  0  0
    1.6436   -7.0483   29.2441 C   0  0  2  0  0  0  0  0  0  0  0  0
    1.3770   -7.2252   27.8201 N   0  0  0  0  0  0  0  0  0  0  0  0
    0.4103   -6.5328   34.5310 C   0  0  0  0  0  0  0  0  0  0  0  0
   -0.5491   -7.6153   35.1224 N   0  0  0  0  0  0  0  0  0  0  0  0
    1.6990   -6.3093   35.3764 C   0  0  0  0  0  0  0  0  0  0  0  0
    4.5981   -9.9682   30.5064 O   0  0  0  0  0  0  0  0  0  0  0  0
    1.0238   -3.4159   25.8476 C   0  0  2  0  0  0  0  0  0  0  0  0
   -0.3449   -3.2066   25.5397 O   0  0  0  0  0  0  0  0  0  0  0  0
    2.8277   -6.1294   29.4132 C   0  0  2  0  0  0  0  0  0  0  0  0
    1.3130   -4.9350   26.0200 C   0  0  2  0  0  0  0  0  0  0  0  0
    2.7025   -5.1675   26.3309 O   0  0  0  0  0  0  0  0  0  0  0  0
    3.1513   -5.9312   30.9562 C   0  0  2  0  0  0  0  0  0  0  0  0
    4.2954   -5.0342   31.0810 O   0  0  0  0  0  0  0  0  0  0  0  0
    0.9709   -5.7060   24.8012 C   0  0  0  0  0  0  0  0  0  0  0  0
    2.0495   -6.4131   24.3983 N   0  0  0  0  0  0  0  0  0  0  0  0
    3.4807   -7.3282   31.5880 C   0  0  1  0  0  0  0  0  0  0  0  0
    3.7968   -7.1848   32.9361 O   0  0  0  0  0  0  0  0  0  0  0  0
  1  2  1  1  0  0  0
  1  5  1  0  0  0  0
  1 29  1  0  0  0  0
  3  4  1  6  0  0  0
  3  7  1  0  0  0  0
  3 34  1  0  0  0  0
  5  6  1  1  0  0  0
  5 16  1  0  0  0  0
  7 19  1  0  0  0  0
  8  4  1  0  0  0  0
  8 24  2  0  0  0  0
  9  8  1  6  0  0  0
  9 10  1  0  0  0  0
  9 13  1  0  0  0  0
 10 11  1  0  0  0  0
 11 12  1  0  0  0  0
 14 15  1  0  0  0  0
 14 35  1  0  0  0  0
 15 17  1  0  0  0  0
 16 18  1  6  0  0  0
 16 25  1  0  0  0  0
 19 20  1  6  0  0  0
 19 27  1  0  0  0  0
 21 22  1  0  0  0  0
 21 23  1  0  0  0  0
 23 17  1  0  0  0  0
 25 26  1  1  0  0  0
 25 28  1  0  0  0  0
 27  2  1  1  0  0  0
 27 30  1  0  0  0  0
 28 29  1  0  0  0  0
 28 32  1  6  0  0  0
 30 31  1  6  0  0  0
 30 34  1  0  0  0  0
 32 33  2  0  0  0  0
 34 35  1  1  0  0  0
M  END
>  <CHROM.1>
-162.39127807,63.02270959,156.19326271,-67.67744405,170.04221662,-47.17308002
-172.57007438,-55.90030103,63.63717726,141.25316044,-111.11973807,125.00933429
-176.97063523,2.61775628,-6.96888087,30.13696734,-2.47926501,-1.32282564
1.45142796

>  <Name>
2f4t_lig

>  <RI>
0

>  <Rbt.Current_Directory>
/home/itssahil/PROJECTS/Mol_Feturizer/New_Systems/rnas/2f4t

>  <Rbt.Executable>
rbdock ($Id: //depot/dev/client3/rdock/2013.1/src/exe/rbdock.cxx#4 $)

>  <Rbt.Library>
libRbt.so (2013.1, Build901 2013/11/27)

>  <Rbt.Parameter_File>
/export/apps/rDock/src/rDock_2013.1_src/data/scripts/dock_solv.prm

>  <Rbt.Receptor>
prm/pocket_docking_6.prm

>  <SCORE>
-11.1622

>  <SCORE.INTER>
-8.4257

>  <SCORE.INTER.CONST>
1

>  <SCORE.INTER.POLAR>
-2.09632

>  <SCORE.INTER.ROT>
13

>  <SCORE.INTER.SOLV>
14.971

>  <SCORE.INTER.VDW>
-15.8864

>  <SCORE.INTER.norm>
-0.240734

>  <SCORE.INTRA>
-2.74413

>  <SCORE.INTRA.DIHEDRAL>
-11.0614

>  <SCORE.INTRA.DIHEDRAL.0>
23.8882

>  <SCORE.INTRA.POLAR>
0

>  <SCORE.INTRA.POLAR.0>
0

>  <SCORE.INTRA.REPUL>
0

>  <SCORE.INTRA.REPUL.0>
0

>  <SCORE.INTRA.SOLV>
5.05432

>  <SCORE.INTRA.SOLV.lig_0>
-97.6888

>  <SCORE.INTRA.VDW>
0.259423

>  <SCORE.INTRA.VDW.0>
-3.9206

>  <SCORE.INTRA.norm>
-0.0784038

>  <SCORE.RESTR>
0.00761663

>  <SCORE.RESTR.CAVITY>
0.00761663

>  <SCORE.RESTR.norm>
0.000217618

>  <SCORE.SYSTEM>
0

>  <SCORE.SYSTEM.CONST>
0

>  <SCORE.SYSTEM.DIHEDRAL>
0

>  <SCORE.SYSTEM.SOLV>
0

>  <SCORE.SYSTEM.norm>
0

>  <SCORE.heavy>
35

>  <SCORE.norm>
-0.318921

>  <RMSD>
3.534

$$$$
2f4t_lig
 OpenBabel11021811433D
libRbt.so/2013.1/901 2013/11/27
 35 36  0  0  0  0  0  0  0  0999 V2000
    2.2142   -7.7705   28.3492 C   0  0  2  0  0  0  0  0  0  0  0  0
    2.7353   -9.1232   28.1354 O   0  0  0  0  0  0  0  0  0  0  0  0
    3.7093  -10.2990   32.1760 C   0  0  2  0  0  0  0  0  0  0  0  0
    4.0537  -11.1537   33.3221 N   0  0  0  0  0  0  0  0  0  0  0  0
    1.8293   -7.2346   26.9370 C   0  0  2  0  0  0  0  0  0  0  0  0
    0.8896   -8.1226   26.2936 N   0  0  0  0  0  0  0  0  0  0  0  0
    2.4455  -10.8896   31.4495 C   0  0  0  0  0  0  0  0  0  0  0  0
    4.3432  -12.8036   32.7629 C   0  0  0  0  0  0  0  0  0  0  0  0
    4.6229  -13.1317   34.2128 C   0  0  1  0  0  0  0  0  0  0  0  0
    3.2858  -13.4708   34.8755 C   0  0  0  0  0  0  0  0  0  0  0  0
    3.3396  -13.7249   36.3914 C   0  0  0  0  0  0  0  0  0  0  0  0
    4.0490  -14.9865   36.6242 N   0  0  0  0  0  0  0  0  0  0  0  0
    5.4106  -14.2882   34.3227 O   0  0  0  0  0  0  0  0  0  0  0  0
    6.8108   -8.8112   32.5608 C   0  0  0  0  0  0  0  0  0  0  0  0
    6.5075   -7.3991   32.0839 C   0  0  0  0  0  0  0  0  0  0  0  0
    3.1143   -7.0606   26.0590 C   0  0  1  0  0  0  0  0  0  0  0  0
    5.2253   -6.8655   32.5938 N   0  0  0  0  0  0  0  0  0  0  0  0
    2.7870   -6.5701   24.7734 O   0  0  0  0  0  0  0  0  0  0  0  0
    2.0387  -10.0466   30.2328 C   0  0  2  0  0  0  0  0  0  0  0  0
    0.8901  -10.6364   29.5525 N   0  0  0  0  0  0  0  0  0  0  0  0
    5.2083   -4.4241   32.0733 C   0  0  0  0  0  0  0  0  0  0  0  0
    5.2876   -2.9595   32.6122 N   0  0  0  0  0  0  0  0  0  0  0  0
    5.1705   -5.5031   33.1957 C   0  0  0  0  0  0  0  0  0  0  0  0
    4.3164  -13.2880   31.8122 O   0  0  0  0  0  0  0  0  0  0  0  0
    4.0578   -6.0951   26.7837 C   0  0  2  0  0  0  0  0  0  0  0  0
    5.2422   -5.8827   26.0328 O   0  0  0  0  0  0  0  0  0  0  0  0
    3.1860   -9.9388   29.2596 C   0  0  2  0  0  0  0  0  0  0  0  0
    4.4047   -6.6517   28.1947 C   0  0  2  0  0  0  0  0  0  0  0  0
    3.2111   -6.8714   28.9748 O   0  0  0  0  0  0  0  0  0  0  0  0
    4.4575   -9.3136   29.9788 C   0  0  2  0  0  0  0  0  0  0  0  0
    5.5426   -9.2191   29.0079 O   0  0  0  0  0  0  0  0  0  0  0  0
    5.2943   -5.7364   28.9482 C   0  0  0  0  0  0  0  0  0  0  0  0
    6.5755   -6.1451   28.8176 N   0  0  0  0  0  0  0  0  0  0  0  0
    4.8717  -10.2423   31.1726 C   0  0  1  0  0  0  0  0  0  0  0  0
    6.0024   -9.7356   31.8073 O   0  0  0  0  0  0  0  0  0  0  0  0
  1  2  1  6  0  0  0
  1  5  1  0  0  0  0
  1 29  1  0  0  0  0
  3  4  1  1  0  0  0
  3  7  1  0  0  0  0
  3 34  1  0  0  0  0
  5  6  1  6  0  0  0
  5 16  1  0  0  0  0
  7 19  1  0  0  0  0
  8  4  1  0  0  0  0
  8 24  2  0  0  0  0
  9  8  1  6  0  0  0
  9 10  1  0  0  0  0
  9 13  1  0  0  0  0
 10 11  1  0  0  0  0
 11 12  1  0  0  0  0
 14 15  1  0  0  0  0
 14 35  1  0  0  0  0
 15 17  1  0  0  0  0
 16 18  1  6  0  0  0
 16 25  1  0  0  0  0
 19 20  1  6  0  0  0
 19 27  1  0  0  0  0
 21 22  1  0  0  0  0
 21 23  1  0  0  0  0
 23 17  1  0  0  0  0
 25 26  1  6  0  0  0
 25 28  1  0  0  0  0
 27  2  1  6  0  0  0
 27 30  1  0  0  0  0
 28 29  1  0  0  0  0
 28 32  1  1  0  0  0
 30 31  1  6  0  0  0
 30 34  1  0  0  0  0
 32 33  2  0  0  0  0
 34 35  1  1  0  0  0
M  END
>  <CHROM.1>
-179.45412136,57.66964224,86.86437821,-175.23558025,-69.47072288,76.52632398
-41.81214500,131.83286312,-174.68084565,76.45594794,56.33748686,-97.05580886
-55.50040852,4.10940380,-9.04534885,30.62091172,1.65124619,-0.99344311,-0.72465626

>  <Name>
2f4t_lig

>  <RI>
0

>  <Rbt.Current_Directory>
/home/itssahil/PROJECTS/Mol_Feturizer/New_Systems/rnas/2f4t

>  <Rbt.Executable>
rbdock ($Id: //depot/dev/client3/rdock/2013.1/src/exe/rbdock.cxx#4 $)

>  <Rbt.Library>
libRbt.so (2013.1, Build901 2013/11/27)

>  <Rbt.Parameter_File>
/export/apps/rDock/src/rDock_2013.1_src/data/scripts/dock_solv.prm

>  <Rbt.Receptor>
prm/pocket_docking_3.prm

>  <SCORE>
-9.81496

>  <SCORE.INTER>
-2.25973

>  <SCORE.INTER.CONST>
1

>  <SCORE.INTER.POLAR>
-1.69736

>  <SCORE.INTER.ROT>
13

>  <SCORE.INTER.SOLV>
14.7584

>  <SCORE.INTER.VDW>
-13.0347

>  <SCORE.INTER.norm>
-0.0645637

>  <SCORE.INTRA>
-7.55523

>  <SCORE.INTRA.DIHEDRAL>
-16.8382

>  <SCORE.INTRA.DIHEDRAL.0>
23.8882

>  <SCORE.INTRA.POLAR>
0

>  <SCORE.INTRA.POLAR.0>
0

>  <SCORE.INTRA.REPUL>
0

>  <SCORE.INTRA.REPUL.0>
0

>  <SCORE.INTRA.SOLV>
4.22853

>  <SCORE.INTRA.SOLV.lig_0>
-97.6888

>  <SCORE.INTRA.VDW>
-1.25038

>  <SCORE.INTRA.VDW.0>
-3.9206

>  <SCORE.INTRA.norm>
-0.215864

>  <SCORE.RESTR>
0

>  <SCORE.RESTR.CAVITY>
0

>  <SCORE.RESTR.norm>
0

>  <SCORE.SYSTEM>
0

>  <SCORE.SYSTEM.CONST>
0

>  <SCORE.SYSTEM.DIHEDRAL>
0

>  <SCORE.SYSTEM.SOLV>
0

>  <SCORE.SYSTEM.norm>
0

>  <SCORE.heavy>
35

>  <SCORE.norm>
-0.280427

>  <RMSD>
3.705

$$$$
2f4t_lig
 OpenBabel11021811433D
libRbt.so/2013.1/901 2013/11/27
 35 36  0  0  0  0  0  0  0  0999 V2000
    1.9935   -4.7075   26.6678 C   0  0  2  0  0  0  0  0  0  0  0  0
    2.2462   -5.3776   27.9463 O   0  0  0  0  0  0  0  0  0  0  0  0
    2.2294   -9.5759   28.9617 C   0  0  2  0  0  0  0  0  0  0  0  0
    2.5523  -11.0100   28.9185 N   0  0  0  0  0  0  0  0  0  0  0  0
    3.3739   -4.6296   25.9480 C   0  0  2  0  0  0  0  0  0  0  0  0
    3.9507   -5.9461   25.8081 N   0  0  0  0  0  0  0  0  0  0  0  0
    1.8098   -9.0949   27.5243 C   0  0  0  0  0  0  0  0  0  0  0  0
    1.2141  -11.9378   29.6021 C   0  0  0  0  0  0  0  0  0  0  0  0
    2.0482  -13.1623   29.2970 C   0  0  1  0  0  0  0  0  0  0  0  0
    1.4657  -14.3288   30.0981 C   0  0  0  0  0  0  0  0  0  0  0  0
    2.3699  -15.5663   30.2253 C   0  0  0  0  0  0  0  0  0  0  0  0
    3.5040  -15.2239   31.0888 N   0  0  0  0  0  0  0  0  0  0  0  0
    1.9299  -13.5262   27.9465 O   0  0  0  0  0  0  0  0  0  0  0  0
    4.6304   -9.2510   31.8864 C   0  0  0  0  0  0  0  0  0  0  0  0
    5.9958   -9.8254   31.5409 C   0  0  0  0  0  0  0  0  0  0  0  0
    4.3404   -3.6847   26.7387 C   0  0  1  0  0  0  0  0  0  0  0  0
    6.7886   -8.9628   30.6376 N   0  0  0  0  0  0  0  0  0  0  0  0
    5.5986   -3.5964   26.0988 O   0  0  0  0  0  0  0  0  0  0  0  0
    1.4689   -7.5984   27.4983 C   0  0  2  0  0  0  0  0  0  0  0  0
    1.1223   -7.1676   26.1476 N   0  0  0  0  0  0  0  0  0  0  0  0
    8.3174   -7.0812   30.0427 C   0  0  0  0  0  0  0  0  0  0  0  0
    9.1715   -5.8663   30.5291 N   0  0  0  0  0  0  0  0  0  0  0  0
    7.5906   -7.8366   31.1944 C   0  0  0  0  0  0  0  0  0  0  0  0
    0.2670  -11.6862   30.0248 O   0  0  0  0  0  0  0  0  0  0  0  0
    3.6825   -2.3042   26.8342 C   0  0  2  0  0  0  0  0  0  0  0  0
    4.5151   -1.3918   27.5315 O   0  0  0  0  0  0  0  0  0  0  0  0
    2.6386   -6.7833   27.9906 C   0  0  2  0  0  0  0  0  0  0  0  0
    2.3007   -2.4229   27.5396 C   0  0  2  0  0  0  0  0  0  0  0  0
    1.4385   -3.3455   26.8418 O   0  0  0  0  0  0  0  0  0  0  0  0
    3.0485   -7.2428   29.4555 C   0  0  2  0  0  0  0  0  0  0  0  0
    4.1762   -6.4306   29.9001 O   0  0  0  0  0  0  0  0  0  0  0  0
    1.6105   -1.1143   27.6300 C   0  0  0  0  0  0  0  0  0  0  0  0
    1.3414   -0.8358   28.9245 N   0  0  0  0  0  0  0  0  0  0  0  0
    3.4482   -8.7587   29.4175 C   0  0  1  0  0  0  0  0  0  0  0  0
    3.8404   -9.1853   30.6832 O   0  0  0  0  0  0  0  0  0  0  0  0
  1  2  1  1  0  0  0
  1  5  1  0  0  0  0
  1 29  1  0  0  0  0
  3  4  1  6  0  0  0
  3  7  1  0  0  0  0
  3 34  1  0  0  0  0
  5  6  1  1  0  0  0
  5 16  1  0  0  0  0
  7 19  1  0  0  0  0
  8  4  1  0  0  0  0
  8 24  2  0  0  0  0
  9  8  1  6  0  0  0
  9 10  1  0  0  0  0
  9 13  1  0  0  0  0
 10 11  1  0  0  0  0
 11 12  1  0  0  0  0
 14 15  1  0  0  0  0
 14 35  1  0  0  0  0
 15 17  1  0  0  0  0
 16 18  1  6  0  0  0
 16 25  1  0  0  0  0
 19 20  1  6  0  0  0
 19 27  1  0  0  0  0
 21 22  1  0  0  0  0
 21 23  1  0  0  0  0
 23 17  1  0  0  0  0
 25 26  1  1  0  0  0
 25 28  1  0  0  0  0
 27  2  1  1  0  0  0
 27 30  1  0  0  0  0
 28 29  1  0  0  0  0
 28 32  1  6  0  0  0
 30 31  1  6  0  0  0
 30 34  1  0  0  0  0
 32 33  2  0  0  0  0
 34 35  1  1  0  0  0
M  END
>  <CHROM.1>
-67.50057389,-103.11447165,163.70089826,-164.52592853,69.40770399,64.76140470
-67.64962520,83.67966006,179.20523477,-179.51120237,-66.50099053,-122.58083026
177.40169742,3.38570694,-7.60949807,28.72472733,1.49852267,-0.44907447,-0.29479780

>  <Name>
2f4t_lig

>  <RI>
0

>  <Rbt.Current_Directory>
/home/itssahil/PROJECTS/Mol_Feturizer/New_Systems/rnas/2f4t

>  <Rbt.Executable>
rbdock ($Id: //depot/dev/client3/rdock/2013.1/src/exe/rbdock.cxx#4 $)

>  <Rbt.Library>
libRbt.so (2013.1, Build901 2013/11/27)

>  <Rbt.Parameter_File>
/export/apps/rDock/src/rDock_2013.1_src/data/scripts/dock_solv.prm

>  <Rbt.Receptor>
prm/pocket_docking_4.prm

>  <SCORE>
-9.82893

>  <SCORE.INTER>
-4.61125

>  <SCORE.INTER.CONST>
1

>  <SCORE.INTER.POLAR>
-0.167601

>  <SCORE.INTER.ROT>
13

>  <SCORE.INTER.SOLV>
12.0235

>  <SCORE.INTER.VDW>
-18.79

>  <SCORE.INTER.norm>
-0.13175

>  <SCORE.INTRA>
-5.28184

>  <SCORE.INTRA.DIHEDRAL>
-18.5987

>  <SCORE.INTRA.DIHEDRAL.0>
23.8882

>  <SCORE.INTRA.POLAR>
0

>  <SCORE.INTRA.POLAR.0>
0

>  <SCORE.INTRA.REPUL>
0

>  <SCORE.INTRA.REPUL.0>
0

>  <SCORE.INTRA.SOLV>
5.53212

>  <SCORE.INTRA.SOLV.lig_0>
-97.6888

>  <SCORE.INTRA.VDW>
1.25146

>  <SCORE.INTRA.VDW.0>
-3.9206

>  <SCORE.INTRA.norm>
-0.15091

>  <SCORE.RESTR>
0.0641566

>  <SCORE.RESTR.CAVITY>
0.0641566

>  <SCORE.RESTR.norm>
0.00183305

>  <SCORE.SYSTEM>
0

>  <SCORE.SYSTEM.CONST>
0

>  <SCORE.SYSTEM.DIHEDRAL>
0

>  <SCORE.SYSTEM.SOLV>
0

>  <SCORE.SYSTEM.norm>
0

>  <SCORE.heavy>
35

>  <SCORE.norm>
-0.280827

>  <RMSD>
3.841

$$$$
2f4t_lig
 OpenBabel11021811433D
libRbt.so/2013.1/901 2013/11/27
 35 36  0  0  0  0  0  0  0  0999 V2000
    2.6126   -5.2852   26.4785 C   0  0  2  0  0  0  0  0  0  0  0  0
    1.7525   -5.9039   27.4907 O   0  0  0  0  0  0  0  0  0  0  0  0
    1.5687   -9.8908   29.1424 C   0  0  2  0  0  0  0  0  0  0  0  0
    2.0086  -11.1680   29.7236 N   0  0  0  0  0  0  0  0  0  0  0  0
    2.2952   -3.7599   26.5248 C   0  0  2  0  0  0  0  0  0  0  0  0
    2.4983   -3.2373   27.8557 N   0  0  0  0  0  0  0  0  0  0  0  0
    2.4042   -9.5969   27.8427 C   0  0  0  0  0  0  0  0  0  0  0  0
    3.7695  -11.1808   29.8576 C   0  0  0  0  0  0  0  0  0  0  0  0
    3.6071  -12.5627   30.4511 C   0  0  1  0  0  0  0  0  0  0  0  0
    3.0514  -13.4737   29.3542 C   0  0  0  0  0  0  0  0  0  0  0  0
    2.7712  -14.9265   29.7740 C   0  0  0  0  0  0  0  0  0  0  0  0
    1.7280  -14.9175   30.8040 N   0  0  0  0  0  0  0  0  0  0  0  0
    4.8517  -13.1051   30.8075 O   0  0  0  0  0  0  0  0  0  0  0  0
    0.5020   -8.7536   32.6046 C   0  0  0  0  0  0  0  0  0  0  0  0
   -0.1436  -10.0382   33.1011 C   0  0  0  0  0  0  0  0  0  0  0  0
    0.8260   -3.5014   26.0486 C   0  0  1  0  0  0  0  0  0  0  0  0
    0.0217  -10.2595   34.5545 N   0  0  0  0  0  0  0  0  0  0  0  0
    0.5189   -2.1212   26.0787 O   0  0  0  0  0  0  0  0  0  0  0  0
    1.9998   -8.2673   27.1908 C   0  0  2  0  0  0  0  0  0  0  0  0
    2.8158   -7.9974   26.0112 N   0  0  0  0  0  0  0  0  0  0  0  0
    2.3238  -11.2237   34.5078 C   0  0  0  0  0  0  0  0  0  0  0  0
    3.8405  -10.9407   34.7552 N   0  0  0  0  0  0  0  0  0  0  0  0
    1.3760  -10.1817   35.1720 C   0  0  0  0  0  0  0  0  0  0  0  0
    4.5446  -10.4896   29.6115 O   0  0  0  0  0  0  0  0  0  0  0  0
    0.6819   -4.0582   24.6284 C   0  0  2  0  0  0  0  0  0  0  0  0
   -0.6286   -3.8448   24.1296 O   0  0  0  0  0  0  0  0  0  0  0  0
    2.1581   -7.1311   28.1700 C   0  0  2  0  0  0  0  0  0  0  0  0
    1.0245   -5.5759   24.6165 C   0  0  2  0  0  0  0  0  0  0  0  0
    2.3564   -5.8121   25.1182 O   0  0  0  0  0  0  0  0  0  0  0  0
    1.2917   -7.4064   29.4732 C   0  0  2  0  0  0  0  0  0  0  0  0
    1.4644   -6.2866   30.3927 O   0  0  0  0  0  0  0  0  0  0  0  0
    0.9276   -6.1552   23.2556 C   0  0  0  0  0  0  0  0  0  0  0  0
    2.1247   -6.0544   22.6373 N   0  0  0  0  0  0  0  0  0  0  0  0
    1.7843   -8.7392   30.1366 C   0  0  1  0  0  0  0  0  0  0  0  0
    1.0622   -8.9943   31.2991 O   0  0  0  0  0  0  0  0  0  0  0  0
  1  2  1  1  0  0  0
  1  5  1  0  0  0  0
  1 29  1  0  0  0  0
  3  4  1  1  0  0  0
  3  7  1  0  0  0  0
  3 34  1  0  0  0  0
  5  6  1  1  0  0  0
  5 16  1  0  0  0  0
  7 19  1  0  0  0  0
  8  4  1  0  0  0  0
  8 24  2  0  0  0  0
  9  8  1  6  0  0  0
  9 10  1  0  0  0  0
  9 13  1  0  0  0  0
 10 11  1  0  0  0  0
 11 12  1  0  0  0  0
 14 15  1  0  0  0  0
 14 35  1  0  0  0  0
 15 17  1  0  0  0  0
 16 18  1  6  0  0  0
 16 25  1  0  0  0  0
 19 20  1  6  0  0  0
 19 27  1  0  0  0  0
 21 22  1  0  0  0  0
 21 23  1  0  0  0  0
 23 17  1  0  0  0  0
 25 26  1  1  0  0  0
 25 28  1  0  0  0  0
 27  2  1  6  0  0  0
 27 30  1  0  0  0  0
 28 29  1  0  0  0  0
 28 32  1  6  0  0  0
 30 31  1  1  0  0  0
 30 34  1  0  0  0  0
 32 33  2  0  0  0  0
 34 35  1  1  0  0  0
M  END
>  <CHROM.1>
-151.42260909,49.64851706,65.73301888,-178.15132914,63.21624592,143.02603569
-172.75685625,-51.44154522,162.26803035,-58.76437680,-74.13073975,90.08383272
-174.11395229,1.93609421,-8.35053497,28.85900513,-1.90476481,-1.22766774
2.07012657

>  <Name>
2f4t_lig

>  <RI>
0

>  <Rbt.Current_Directory>
/home/itssahil/PROJECTS/Mol_Feturizer/New_Systems/rnas/2f4t

>  <Rbt.Executable>
rbdock ($Id: //depot/dev/client3/rdock/2013.1/src/exe/rbdock.cxx#4 $)

>  <Rbt.Library>
libRbt.so (2013.1, Build901 2013/11/27)

>  <Rbt.Parameter_File>
/export/apps/rDock/src/rDock_2013.1_src/data/scripts/dock_solv.prm

>  <Rbt.Receptor>
prm/pocket_docking_8.prm

>  <SCORE>
-13.7427

>  <SCORE.INTER>
-15.5776

>  <SCORE.INTER.CONST>
1

>  <SCORE.INTER.POLAR>
-2.49204

>  <SCORE.INTER.ROT>
13

>  <SCORE.INTER.SOLV>
16.5276

>  <SCORE.INTER.VDW>
-19.8541

>  <SCORE.INTER.norm>
-0.445076

>  <SCORE.INTRA>
1.8349

>  <SCORE.INTRA.DIHEDRAL>
-11.9064

>  <SCORE.INTRA.DIHEDRAL.0>
23.8882

>  <SCORE.INTRA.POLAR>
0

>  <SCORE.INTRA.POLAR.0>
0

>  <SCORE.INTRA.REPUL>
0

>  <SCORE.INTRA.REPUL.0>
0

>  <SCORE.INTRA.SOLV>
4.3471

>  <SCORE.INTRA.SOLV.lig_0>
-97.6888

>  <SCORE.INTRA.VDW>
5.61456

>  <SCORE.INTRA.VDW.0>
-3.9206

>  <SCORE.INTRA.norm>
0.0524258

>  <SCORE.RESTR>
0

>  <SCORE.RESTR.CAVITY>
0

>  <SCORE.RESTR.norm>
0

>  <SCORE.SYSTEM>
0

>  <SCORE.SYSTEM.CONST>
0

>  <SCORE.SYSTEM.DIHEDRAL>
0

>  <SCORE.SYSTEM.SOLV>
0

>  <SCORE.SYSTEM.norm>
0

>  <SCORE.heavy>
35

>  <SCORE.norm>
-0.39265

>  <RMSD>
3.944

$$$$
2f4t_lig
 OpenBabel11021811433D
libRbt.so/2013.1/901 2013/11/27
 35 36  0  0  0  0  0  0  0  0999 V2000
    6.3493   -4.2745   27.4315 C   0  0  2  0  0  0  0  0  0  0  0  0
    5.0313   -4.8176   27.0920 O   0  0  0  0  0  0  0  0  0  0  0  0
    3.4385   -8.7623   27.8395 C   0  0  2  0  0  0  0  0  0  0  0  0
    3.1412  -10.1908   27.6559 N   0  0  0  0  0  0  0  0  0  0  0  0
    6.2039   -2.7245   27.3538 C   0  0  2  0  0  0  0  0  0  0  0  0
    5.1468   -2.2675   28.2252 N   0  0  0  0  0  0  0  0  0  0  0  0
    3.0691   -7.9822   26.5248 C   0  0  0  0  0  0  0  0  0  0  0  0
    2.8354  -10.9374   29.2269 C   0  0  0  0  0  0  0  0  0  0  0  0
    2.6129  -12.2188   28.4546 C   0  0  1  0  0  0  0  0  0  0  0  0
    2.3018  -13.3213   29.4694 C   0  0  0  0  0  0  0  0  0  0  0  0
    3.4966  -13.8171   30.3010 C   0  0  0  0  0  0  0  0  0  0  0  0
    3.0228  -14.8604   31.2154 N   0  0  0  0  0  0  0  0  0  0  0  0
    1.4781  -12.1198   27.6345 O   0  0  0  0  0  0  0  0  0  0  0  0
    6.1223   -9.7823   30.3252 C   0  0  0  0  0  0  0  0  0  0  0  0
    6.7589   -8.6222   31.0751 C   0  0  0  0  0  0  0  0  0  0  0  0
    5.9307   -2.2832   25.8763 C   0  0  1  0  0  0  0  0  0  0  0  0
    5.8020   -7.8596   31.9067 N   0  0  0  0  0  0  0  0  0  0  0  0
    5.8000   -0.8780   25.7830 O   0  0  0  0  0  0  0  0  0  0  0  0
    3.3666   -6.4813   26.6472 C   0  0  2  0  0  0  0  0  0  0  0  0
    3.0541   -5.7862   25.4024 N   0  0  0  0  0  0  0  0  0  0  0  0
    6.9343   -5.6862   32.3820 C   0  0  0  0  0  0  0  0  0  0  0  0
    7.5014   -4.6957   33.4493 N   0  0  0  0  0  0  0  0  0  0  0  0
    6.3012   -6.9708   32.9940 C   0  0  0  0  0  0  0  0  0  0  0  0
    2.8270  -10.5857   30.2346 O   0  0  0  0  0  0  0  0  0  0  0  0
    7.0933   -2.7784   25.0098 C   0  0  2  0  0  0  0  0  0  0  0  0
    6.9142   -2.3997   23.6547 O   0  0  0  0  0  0  0  0  0  0  0  0
    4.8197   -6.2583   26.9846 C   0  0  2  0  0  0  0  0  0  0  0  0
    7.2207   -4.3248   25.1267 C   0  0  2  0  0  0  0  0  0  0  0  0
    7.4067   -4.7287   26.4992 O   0  0  0  0  0  0  0  0  0  0  0  0
    5.1926   -7.0183   28.3293 C   0  0  2  0  0  0  0  0  0  0  0  0
    6.6004   -6.7757   28.6267 O   0  0  0  0  0  0  0  0  0  0  0  0
    8.3530   -4.8496   24.3270 C   0  0  0  0  0  0  0  0  0  0  0  0
    7.8923   -5.7514   23.4324 N   0  0  0  0  0  0  0  0  0  0  0  0
    4.9321   -8.5522   28.1330 C   0  0  1  0  0  0  0  0  0  0  0  0
    5.2766   -9.2509   29.2867 O   0  0  0  0  0  0  0  0  0  0  0  0
  1  2  1  6  0  0  0
  1  5  1  0  0  0  0
  1 29  1  0  0  0  0
  3  4  1  6  0  0  0
  3  7  1  0  0  0  0
  3 34  1  0  0  0  0
  5  6  1  1  0  0  0
  5 16  1  0  0  0  0
  7 19  1  0  0  0  0
  8  4  1  0  0  0  0
  8 24  2  0  0  0  0
  9  8  1  1  0  0  0
  9 10  1  0  0  0  0
  9 13  1  0  0  0  0
 10 11  1  0  0  0  0
 11 12  1  0  0  0  0
 14 15  1  0  0  0  0
 14 35  1  0  0  0  0
 15 17  1  0  0  0  0
 16 18  1  1  0  0  0
 16 25  1  0  0  0  0
 19 20  1  6  0  0  0
 19 27  1  0  0  0  0
 21 22  1  0  0  0  0
 21 23  1  0  0  0  0
 23 17  1  0  0  0  0
 25 26  1  6  0  0  0
 25 28  1  0  0  0  0
 27  2  1  1  0  0  0
 27 30  1  0  0  0  0
 28 29  1  0  0  0  0
 28 32  1  6  0  0  0
 30 31  1  6  0  0  0
 30 34  1  0  0  0  0
 32 33  2  0  0  0  0
 34 35  1  1  0  0  0
M  END
>  <CHROM.1>
176.16846137,-154.39774915,178.98379247,-73.24154649,179.87592978,70.32954938
61.78804738,161.99251869,-179.41022358,73.60871543,179.14394877,-121.82071674
175.70227854,5.15180383,-7.15344633,28.11500284,-0.88402249,1.04018374,2.09210815

>  <Name>
2f4t_lig

>  <RI>
0

>  <Rbt.Current_Directory>
/home/itssahil/PROJECTS/Mol_Feturizer/New_Systems/rnas/2f4t

>  <Rbt.Executable>
rbdock ($Id: //depot/dev/client3/rdock/2013.1/src/exe/rbdock.cxx#4 $)

>  <Rbt.Library>
libRbt.so (2013.1, Build901 2013/11/27)

>  <Rbt.Parameter_File>
/export/apps/rDock/src/rDock_2013.1_src/data/scripts/dock_solv.prm

>  <Rbt.Receptor>
prm/pocket_docking_7.prm

>  <SCORE>
-20.8345

>  <SCORE.INTER>
-10.8646

>  <SCORE.INTER.CONST>
1

>  <SCORE.INTER.POLAR>
-1.81026

>  <SCORE.INTER.ROT>
13

>  <SCORE.INTER.SOLV>
13.3606

>  <SCORE.INTER.VDW>
-17.9291

>  <SCORE.INTER.norm>
-0.310418

>  <SCORE.INTRA>
-9.96987

>  <SCORE.INTRA.DIHEDRAL>
-20.2444

>  <SCORE.INTRA.DIHEDRAL.0>
23.8882

>  <SCORE.INTRA.POLAR>
0

>  <SCORE.INTRA.POLAR.0>
0

>  <SCORE.INTRA.REPUL>
0.00983952

>  <SCORE.INTRA.REPUL.0>
0

>  <SCORE.INTRA.SOLV>
0.39459

>  <SCORE.INTRA.SOLV.lig_0>
-97.6888

>  <SCORE.INTRA.VDW>
-0.094187

>  <SCORE.INTRA.VDW.0>
-3.9206

>  <SCORE.INTRA.norm>
-0.284853

>  <SCORE.RESTR>
0

>  <SCORE.RESTR.CAVITY>
0

>  <SCORE.RESTR.norm>
0

>  <SCORE.SYSTEM>
0

>  <SCORE.SYSTEM.CONST>
0

>  <SCORE.SYSTEM.DIHEDRAL>
0

>  <SCORE.SYSTEM.SOLV>
0

>  <SCORE.SYSTEM.norm>
0

>  <SCORE.heavy>
35

>  <SCORE.norm>
-0.595271

>  <RMSD>
4.125

$$$$
2f4t_lig
 OpenBabel11021811433D
libRbt.so/2013.1/901 2013/11/27
 35 36  0  0  0  0  0  0  0  0999 V2000
    2.8136   -6.7026   26.5469 C   0  0  2  0  0  0  0  0  0  0  0  0
    1.9208   -7.7508   27.0485 O   0  0  0  0  0  0  0  0  0  0  0  0
    2.5395  -10.8260   30.0179 C   0  0  2  0  0  0  0  0  0  0  0  0
    2.8957  -11.4636   31.2943 N   0  0  0  0  0  0  0  0  0  0  0  0
    2.4689   -5.4220   27.3660 C   0  0  2  0  0  0  0  0  0  0  0  0
    2.6053   -5.6707   28.7820 N   0  0  0  0  0  0  0  0  0  0  0  0
    3.7316   -9.9176   29.5411 C   0  0  0  0  0  0  0  0  0  0  0  0
    4.2258  -12.5967   31.0379 C   0  0  0  0  0  0  0  0  0  0  0  0
    4.1365  -12.8712   32.5228 C   0  0  1  0  0  0  0  0  0  0  0  0
    5.0868  -14.0291   32.8361 C   0  0  0  0  0  0  0  0  0  0  0  0
    4.7331  -15.3758   32.1832 C   0  0  0  0  0  0  0  0  0  0  0  0
    5.6805  -16.3860   32.6639 N   0  0  0  0  0  0  0  0  0  0  0  0
    4.6068  -11.7763   33.2645 O   0  0  0  0  0  0  0  0  0  0  0  0
   -0.7507  -11.7968   30.5916 C   0  0  0  0  0  0  0  0  0  0  0  0
   -1.5679  -11.7340   31.8729 C   0  0  0  0  0  0  0  0  0  0  0  0
    1.0175   -4.9413   27.0273 C   0  0  1  0  0  0  0  0  0  0  0  0
   -2.3254  -10.4730   32.0298 N   0  0  0  0  0  0  0  0  0  0  0  0
    0.6863   -3.7761   27.7574 O   0  0  0  0  0  0  0  0  0  0  0  0
    3.4184   -9.2120   28.2143 C   0  0  2  0  0  0  0  0  0  0  0  0
    4.5217   -8.3445   27.8138 N   0  0  0  0  0  0  0  0  0  0  0  0
   -1.1781   -9.3197   33.9233 C   0  0  0  0  0  0  0  0  0  0  0  0
   -0.4306   -8.0486   34.4403 N   0  0  0  0  0  0  0  0  0  0  0  0
   -1.6197   -9.2236   32.4330 C   0  0  0  0  0  0  0  0  0  0  0  0
    4.7946  -12.9046   30.1888 O   0  0  0  0  0  0  0  0  0  0  0  0
    0.9445   -4.6757   25.5200 C   0  0  2  0  0  0  0  0  0  0  0  0
   -0.3465   -4.2229   25.1459 O   0  0  0  0  0  0  0  0  0  0  0  0
    2.1628   -8.3858   28.3409 C   0  0  2  0  0  0  0  0  0  0  0  0
    1.3127   -5.9679   24.7354 C   0  0  2  0  0  0  0  0  0  0  0  0
    2.6254   -6.4419   25.1012 O   0  0  0  0  0  0  0  0  0  0  0  0
    0.9465   -9.3033   28.7922 C   0  0  2  0  0  0  0  0  0  0  0  0
   -0.2490   -8.4735   28.8981 O   0  0  0  0  0  0  0  0  0  0  0  0
    1.2846   -5.7529   23.2691 C   0  0  0  0  0  0  0  0  0  0  0  0
    0.3202   -6.5234   22.7197 N   0  0  0  0  0  0  0  0  0  0  0  0
    1.2876   -9.9499   30.1796 C   0  0  1  0  0  0  0  0  0  0  0  0
    0.2275  -10.7392   30.6169 O   0  0  0  0  0  0  0  0  0  0  0  0
  1  2  1  1  0  0  0
  1  5  1  0  0  0  0
  1 29  1  0  0  0  0
  3  4  1  1  0  0  0
  3  7  1  0  0  0  0
  3 34  1  0  0  0  0
  5  6  1  1  0  0  0
  5 16  1  0  0  0  0
  7 19  1  0  0  0  0
  8  4  1  0  0  0  0
  8 24  2  0  0  0  0
  9  8  1  6  0  0  0
  9 10  1  0  0  0  0
  9 13  1  0  0  0  0
 10 11  1  0  0  0  0
 11 12  1  0  0  0  0
 14 15  1  0  0  0  0
 14 35  1  0  0  0  0
 15 17  1  0  0  0  0
 16 18  1  1  0  0  0
 16 25  1  0  0  0  0
 19 20  1  1  0  0  0
 19 27  1  0  0  0  0
 21 22  1  0  0  0  0
 21 23  1  0  0  0  0
 23 17  1  0  0  0  0
 25 26  1  6  0  0  0
 25 28  1  0  0  0  0
 27  2  1  6  0  0  0
 27 30  1  0  0  0  0
 28 29  1  0  0  0  0
 28 32  1  6  0  0  0
 30 31  1  1  0  0  0
 30 34  1  0  0  0  0
 32 33  2  0  0  0  0
 34 35  1  6  0  0  0
M  END
>  <CHROM.1>
-75.17777072,-66.50371346,173.37575047,-64.14107035,-175.90342323,62.00588276
178.70729336,-75.99167144,-179.81478291,-70.82490311,-68.56990912,-116.13299834
-60.51542763,1.82742057,-9.16092219,29.28385877,-1.80267094,-0.54362581,2.29074524

>  <Name>
2f4t_lig

>  <RI>
0

>  <Rbt.Current_Directory>
/home/itssahil/PROJECTS/Mol_Feturizer/New_Systems/rnas/2f4t

>  <Rbt.Executable>
rbdock ($Id: //depot/dev/client3/rdock/2013.1/src/exe/rbdock.cxx#4 $)

>  <Rbt.Library>
libRbt.so (2013.1, Build901 2013/11/27)

>  <Rbt.Parameter_File>
/export/apps/rDock/src/rDock_2013.1_src/data/scripts/dock_solv.prm

>  <Rbt.Receptor>
prm/pocket_docking_6.prm

>  <SCORE>
-20.4104

>  <SCORE.INTER>
-13.8235

>  <SCORE.INTER.CONST>
1

>  <SCORE.INTER.POLAR>
-2.16646

>  <SCORE.INTER.ROT>
13

>  <SCORE.INTER.SOLV>
11.5785

>  <SCORE.INTER.VDW>
-18.1202

>  <SCORE.INTER.norm>
-0.394956

>  <SCORE.INTRA>
-6.58696

>  <SCORE.INTRA.DIHEDRAL>
-20.3257

>  <SCORE.INTRA.DIHEDRAL.0>
23.8882

>  <SCORE.INTRA.POLAR>
0

>  <SCORE.INTRA.POLAR.0>
0

>  <SCORE.INTRA.REPUL>
0

>  <SCORE.INTRA.REPUL.0>
0

>  <SCORE.INTRA.SOLV>
3.7064

>  <SCORE.INTRA.SOLV.lig_0>
-97.6888

>  <SCORE.INTRA.VDW>
1.72272

>  <SCORE.INTRA.VDW.0>
-3.9206

>  <SCORE.INTRA.norm>
-0.188199

>  <SCORE.RESTR>
0

>  <SCORE.RESTR.CAVITY>
0

>  <SCORE.RESTR.norm>
0

>  <SCORE.SYSTEM>
0

>  <SCORE.SYSTEM.CONST>
0

>  <SCORE.SYSTEM.DIHEDRAL>
0

>  <SCORE.SYSTEM.SOLV>
0

>  <SCORE.SYSTEM.norm>
0

>  <SCORE.heavy>
35

>  <SCORE.norm>
-0.583155

>  <RMSD>
4.558

$$$$
2f4t_lig
 OpenBabel11021811433D
libRbt.so/2013.1/901 2013/11/27
 35 36  0  0  0  0  0  0  0  0999 V2000
    2.7690   -5.2545   26.2379 C   0  0  2  0  0  0  0  0  0  0  0  0
    2.0105   -5.9220   27.2991 O   0  0  0  0  0  0  0  0  0  0  0  0
    2.2755   -9.7453   29.2916 C   0  0  2  0  0  0  0  0  0  0  0  0
    2.8608  -10.9428   29.9129 N   0  0  0  0  0  0  0  0  0  0  0  0
    2.3675   -3.7500   26.3096 C   0  0  2  0  0  0  0  0  0  0  0  0
    2.6223   -3.2168   27.6272 N   0  0  0  0  0  0  0  0  0  0  0  0
    2.9132   -9.5341   27.8695 C   0  0  0  0  0  0  0  0  0  0  0  0
    2.4200  -12.3714   28.9730 C   0  0  0  0  0  0  0  0  0  0  0  0
    3.2262  -13.1543   29.9857 C   0  0  1  0  0  0  0  0  0  0  0  0
    2.9594  -14.6408   29.7384 C   0  0  0  0  0  0  0  0  0  0  0  0
    1.6675  -15.1976   30.3597 C   0  0  0  0  0  0  0  0  0  0  0  0
    1.8054  -15.1678   31.8188 N   0  0  0  0  0  0  0  0  0  0  0  0
    4.6027  -12.9715   29.7808 O   0  0  0  0  0  0  0  0  0  0  0  0
    1.7743   -9.3011   32.6920 C   0  0  0  0  0  0  0  0  0  0  0  0
    1.2408  -10.7062   32.4585 C   0  0  0  0  0  0  0  0  0  0  0  0
    0.8591   -3.5770   25.9263 C   0  0  1  0  0  0  0  0  0  0  0  0
   -0.1639  -10.7358   31.9955 N   0  0  0  0  0  0  0  0  0  0  0  0
    0.4753   -2.2168   25.9805 O   0  0  0  0  0  0  0  0  0  0  0  0
    2.3506   -8.2894   27.1691 C   0  0  2  0  0  0  0  0  0  0  0  0
    2.9863   -8.0920   25.8702 N   0  0  0  0  0  0  0  0  0  0  0  0
   -2.0665  -11.4743   30.5580 C   0  0  0  0  0  0  0  0  0  0  0  0
   -3.1210  -11.6957   31.6897 N   0  0  0  0  0  0  0  0  0  0  0  0
   -0.6014  -11.7582   31.0031 C   0  0  0  0  0  0  0  0  0  0  0  0
    1.8405  -12.5396   28.0927 O   0  0  0  0  0  0  0  0  0  0  0  0
    0.6595   -4.1408   24.5157 C   0  0  2  0  0  0  0  0  0  0  0  0
   -0.6895   -4.0035   24.0998 O   0  0  0  0  0  0  0  0  0  0  0  0
    2.5721   -7.0623   28.0177 C   0  0  2  0  0  0  0  0  0  0  0  0
    1.0878   -5.6362   24.4767 C   0  0  2  0  0  0  0  0  0  0  0  0
    2.4597   -5.7950   24.8941 O   0  0  0  0  0  0  0  0  0  0  0  0
    1.9032   -7.2561   29.4460 C   0  0  2  0  0  0  0  0  0  0  0  0
    2.1319   -6.0502   30.2351 O   0  0  0  0  0  0  0  0  0  0  0  0
    0.9402   -6.2199   23.1223 C   0  0  0  0  0  0  0  0  0  0  0  0
    2.1242   -6.1579   22.4741 N   0  0  0  0  0  0  0  0  0  0  0  0
    2.5548   -8.4990   30.1459 C   0  0  1  0  0  0  0  0  0  0  0  0
    2.0088   -8.6790   31.4137 O   0  0  0  0  0  0  0  0  0  0  0  0
  1  2  1  1  0  0  0
  1  5  1  0  0  0  0
  1 29  1  0  0  0  0
  3  4  1  1  0  0  0
  3  7  1  0  0  0  0
  3 34  1  0  0  0  0
  5  6  1  1  0  0  0
  5 16  1  0  0  0  0
  7 19  1  0  0  0  0
  8  4  1  0  0  0  0
  8 24  2  0  0  0  0
  9  8  1  6  0  0  0
  9 10  1  0  0  0  0
  9 13  1  0  0  0  0
 10 11  1  0  0  0  0
 11 12  1  0  0  0  0
 14 15  1  0  0  0  0
 14 35  1  0  0  0  0
 15 17  1  0  0  0  0
 16 18  1  6  0  0  0
 16 25  1  0  0  0  0
 19 20  1  6  0  0  0
 19 27  1  0  0  0  0
 21 22  1  0  0  0  0
 21 23  1  0  0  0  0
 23 17  1  0  0  0  0
 25 26  1  1  0  0  0
 25 28  1  0  0  0  0
 27  2  1  6  0  0  0
 27 30  1  0  0  0  0
 28 29  1  0  0  0  0
 28 32  1  6  0  0  0
 30 31  1  1  0  0  0
 30 34  1  0  0  0  0
 32 33  2  0  0  0  0
 34 35  1  1  0  0  0
M  END
>  <CHROM.1>
-146.69002008,-64.58424659,170.00386171,-81.94743974,-67.03857657,-73.80222873
-59.52916472,143.60925493,-67.86884697,-173.40001061,-81.86756371,95.54662465
56.83214017,1.64798653,-8.60547020,28.33721809,-1.58538036,-1.10369837,2.53347885

>  <Name>
2f4t_lig

>  <RI>
0

>  <Rbt.Current_Directory>
/home/itssahil/PROJECTS/Mol_Feturizer/New_Systems/rnas/2f4t

>  <Rbt.Executable>
rbdock ($Id: //depot/dev/client3/rdock/2013.1/src/exe/rbdock.cxx#4 $)

>  <Rbt.Library>
libRbt.so (2013.1, Build901 2013/11/27)

>  <Rbt.Parameter_File>
/export/apps/rDock/src/rDock_2013.1_src/data/scripts/dock_solv.prm

>  <Rbt.Receptor>
prm/pocket_docking_6.prm

>  <SCORE>
-21.2632

>  <SCORE.INTER>
-18.0264

>  <SCORE.INTER.CONST>
1

>  <SCORE.INTER.POLAR>
-2.27031

>  <SCORE.INTER.ROT>
13

>  <SCORE.INTER.SOLV>
15.3313

>  <SCORE.INTER.VDW>
-21.827

>  <SCORE.INTER.norm>
-0.51504

>  <SCORE.INTRA>
-3.26401

>  <SCORE.INTRA.DIHEDRAL>
-11.8747

>  <SCORE.INTRA.DIHEDRAL.0>
23.8882

>  <SCORE.INTRA.POLAR>
0

>  <SCORE.INTRA.POLAR.0>
0

>  <SCORE.INTRA.REPUL>
0

>  <SCORE.INTRA.REPUL.0>
0

>  <SCORE.INTRA.SOLV>
6.06688

>  <SCORE.INTRA.SOLV.lig_0>
-97.6888

>  <SCORE.INTRA.VDW>
-0.360093

>  <SCORE.INTRA.VDW.0>
-3.9206

>  <SCORE.INTRA.norm>
-0.0932575

>  <SCORE.RESTR>
0.0271873

>  <SCORE.RESTR.CAVITY>
0.0271873

>  <SCORE.RESTR.norm>
0.00077678

>  <SCORE.SYSTEM>
0

>  <SCORE.SYSTEM.CONST>
0

>  <SCORE.SYSTEM.DIHEDRAL>
0

>  <SCORE.SYSTEM.SOLV>
0

>  <SCORE.SYSTEM.norm>
0

>  <SCORE.heavy>
35

>  <SCORE.norm>
-0.60752

>  <RMSD>
4.564

$$$$
2f4t_lig
 OpenBabel11021811433D
libRbt.so/2013.1/901 2013/11/27
 35 36  0  0  0  0  0  0  0  0999 V2000
    2.0838   -5.5578   25.2705 C   0  0  2  0  0  0  0  0  0  0  0  0
    1.3601   -5.8776   26.5038 O   0  0  0  0  0  0  0  0  0  0  0  0
    4.1127   -8.5202   28.5279 C   0  0  2  0  0  0  0  0  0  0  0  0
    4.8271   -9.2002   29.6188 N   0  0  0  0  0  0  0  0  0  0  0  0
    1.3544   -4.3246   24.6565 C   0  0  2  0  0  0  0  0  0  0  0  0
    1.3117   -3.2346   25.6027 N   0  0  0  0  0  0  0  0  0  0  0  0
    4.1767   -6.9653   28.7557 C   0  0  0  0  0  0  0  0  0  0  0  0
    4.1402   -8.7106   31.1703 C   0  0  0  0  0  0  0  0  0  0  0  0
    5.1612   -9.6369   31.7931 C   0  0  1  0  0  0  0  0  0  0  0  0
    6.3529   -8.7825   32.2312 C   0  0  0  0  0  0  0  0  0  0  0  0
    7.1631   -8.1373   31.0944 C   0  0  0  0  0  0  0  0  0  0  0  0
    8.2016   -7.2906   31.6891 N   0  0  0  0  0  0  0  0  0  0  0  0
    4.6576  -10.2238   32.9644 O   0  0  0  0  0  0  0  0  0  0  0  0
    2.8520  -11.7247   28.5288 C   0  0  0  0  0  0  0  0  0  0  0  0
    2.8017  -11.9999   30.0239 C   0  0  0  0  0  0  0  0  0  0  0  0
   -0.0922   -4.7235   24.2085 C   0  0  1  0  0  0  0  0  0  0  0  0
    1.4296  -12.0124   30.5768 N   0  0  0  0  0  0  0  0  0  0  0  0
   -0.7705   -3.6184   23.6435 O   0  0  0  0  0  0  0  0  0  0  0  0
    3.4376   -6.1945   27.6529 C   0  0  2  0  0  0  0  0  0  0  0  0
    3.4761   -4.7579   27.9078 N   0  0  0  0  0  0  0  0  0  0  0  0
    1.8770  -12.8658   32.8796 C   0  0  0  0  0  0  0  0  0  0  0  0
    1.6065  -13.9651   33.9568 N   0  0  0  0  0  0  0  0  0  0  0  0
    1.0382  -13.0433   31.5795 C   0  0  0  0  0  0  0  0  0  0  0  0
    3.3553   -8.0513   31.4676 O   0  0  0  0  0  0  0  0  0  0  0  0
    0.0226   -5.8657   23.1938 C   0  0  2  0  0  0  0  0  0  0  0  0
   -1.2577   -6.2687   22.7354 O   0  0  0  0  0  0  0  0  0  0  0  0
    1.9995   -6.6420   27.5710 C   0  0  2  0  0  0  0  0  0  0  0  0
    0.7717   -7.0702   23.8335 C   0  0  2  0  0  0  0  0  0  0  0  0
    2.0787   -6.6793   24.3032 O   0  0  0  0  0  0  0  0  0  0  0  0
    1.9271   -8.2077   27.3097 C   0  0  2  0  0  0  0  0  0  0  0  0
    0.5246   -8.6026   27.2305 O   0  0  0  0  0  0  0  0  0  0  0  0
    0.9339   -8.1923   22.8789 C   0  0  0  0  0  0  0  0  0  0  0  0
    1.0674   -7.7023   21.6268 N   0  0  0  0  0  0  0  0  0  0  0  0
    2.6384   -8.9519   28.4927 C   0  0  1  0  0  0  0  0  0  0  0  0
    2.5673  -10.3297   28.3073 O   0  0  0  0  0  0  0  0  0  0  0  0
  1  2  1  1  0  0  0
  1  5  1  0  0  0  0
  1 29  1  0  0  0  0
  3  4  1  1  0  0  0
  3  7  1  0  0  0  0
  3 34  1  0  0  0  0
  5  6  1  1  0  0  0
  5 16  1  0  0  0  0
  7 19  1  0  0  0  0
  8  4  1  0  0  0  0
  8 24  2  0  0  0  0
  9  8  1  1  0  0  0
  9 10  1  0  0  0  0
  9 13  1  0  0  0  0
 10 11  1  0  0  0  0
 11 12  1  0  0  0  0
 14 15  1  0  0  0  0
 14 35  1  0  0  0  0
 15 17  1  0  0  0  0
 16 18  1  6  0  0  0
 16 25  1  0  0  0  0
 19 20  1  1  0  0  0
 19 27  1  0  0  0  0
 21 22  1  0  0  0  0
 21 23  1  0  0  0  0
 23 17  1  0  0  0  0
 25 26  1  1  0  0  0
 25 28  1  0  0  0  0
 27  2  1  6  0  0  0
 27 30  1  0  0  0  0
 28 29  1  0  0  0  0
 28 32  1  6  0  0  0
 30 31  1  1  0  0  0
 30 34  1  0  0  0  0
 32 33  2  0  0  0  0
 34 35  1  6  0  0  0
M  END
>  <CHROM.1>
-158.23540387,56.12676973,97.53269020,-66.97708076,176.28384065,73.58702802
45.77058531,138.57911667,-176.02402686,63.78314570,37.99093828,32.35921200
49.82240762,2.52275328,-8.11634325,27.99551716,-2.03136763,0.72098332,2.46449533

>  <Name>
2f4t_lig

>  <RI>
0

>  <Rbt.Current_Directory>
/home/itssahil/PROJECTS/Mol_Feturizer/New_Systems/rnas/2f4t

>  <Rbt.Executable>
rbdock ($Id: //depot/dev/client3/rdock/2013.1/src/exe/rbdock.cxx#4 $)

>  <Rbt.Library>
libRbt.so (2013.1, Build901 2013/11/27)

>  <Rbt.Parameter_File>
/export/apps/rDock/src/rDock_2013.1_src/data/scripts/dock_solv.prm

>  <Rbt.Receptor>
prm/pocket_docking_3.prm

>  <SCORE>
-17.4793

>  <SCORE.INTER>
-13.5646

>  <SCORE.INTER.CONST>
1

>  <SCORE.INTER.POLAR>
-1.67182

>  <SCORE.INTER.ROT>
13

>  <SCORE.INTER.SOLV>
16.0946

>  <SCORE.INTER.VDW>
-21.1019

>  <SCORE.INTER.norm>
-0.387559

>  <SCORE.INTRA>
-3.91478

>  <SCORE.INTRA.DIHEDRAL>
-13

>  <SCORE.INTRA.DIHEDRAL.0>
23.8882

>  <SCORE.INTRA.POLAR>
0

>  <SCORE.INTRA.POLAR.0>
0

>  <SCORE.INTRA.REPUL>
0

>  <SCORE.INTRA.REPUL.0>
0

>  <SCORE.INTRA.SOLV>
2.77144

>  <SCORE.INTRA.SOLV.lig_0>
-97.6888

>  <SCORE.INTRA.VDW>
1.19948

>  <SCORE.INTRA.VDW.0>
-3.9206

>  <SCORE.INTRA.norm>
-0.111851

>  <SCORE.RESTR>
0

>  <SCORE.RESTR.CAVITY>
0

>  <SCORE.RESTR.norm>
0

>  <SCORE.SYSTEM>
0

>  <SCORE.SYSTEM.CONST>
0

>  <SCORE.SYSTEM.DIHEDRAL>
0

>  <SCORE.SYSTEM.SOLV>
0

>  <SCORE.SYSTEM.norm>
0

>  <SCORE.heavy>
35

>  <SCORE.norm>
-0.499409

>  <RMSD>
4.873

$$$$
2f4t_lig
 OpenBabel11021811433D
libRbt.so/2013.1/901 2013/11/27
 35 36  0  0  0  0  0  0  0  0999 V2000
    2.4487   -5.4942   25.1192 C   0  0  2  0  0  0  0  0  0  0  0  0
    2.0365   -6.5969   25.9917 O   0  0  0  0  0  0  0  0  0  0  0  0
    4.8124   -8.7833   28.4761 C   0  0  2  0  0  0  0  0  0  0  0  0
    5.7079   -9.1027   29.5980 N   0  0  0  0  0  0  0  0  0  0  0  0
    1.7876   -4.2129   25.7114 C   0  0  2  0  0  0  0  0  0  0  0  0
    2.1705   -4.0335   27.0922 N   0  0  0  0  0  0  0  0  0  0  0  0
    5.1944   -7.3738   27.8922 C   0  0  0  0  0  0  0  0  0  0  0  0
    5.6429   -7.8047   30.7938 C   0  0  0  0  0  0  0  0  0  0  0  0
    6.6338   -8.6295   31.5851 C   0  0  1  0  0  0  0  0  0  0  0  0
    7.5174   -7.6592   32.3723 C   0  0  0  0  0  0  0  0  0  0  0  0
    8.3077   -6.6446   31.5290 C   0  0  0  0  0  0  0  0  0  0  0  0
    7.4491   -5.4831   31.2781 N   0  0  0  0  0  0  0  0  0  0  0  0
    5.9783   -9.4172   32.5442 O   0  0  0  0  0  0  0  0  0  0  0  0
    3.0312  -11.1003   30.3834 C   0  0  0  0  0  0  0  0  0  0  0  0
    4.4501  -11.6455   30.4372 C   0  0  0  0  0  0  0  0  0  0  0  0
    0.2298   -4.3005   25.5775 C   0  0  1  0  0  0  0  0  0  0  0  0
    4.5427  -12.9944   31.0378 N   0  0  0  0  0  0  0  0  0  0  0  0
   -0.3900   -3.1439   26.1054 O   0  0  0  0  0  0  0  0  0  0  0  0
    4.2868   -6.9746   26.7203 C   0  0  2  0  0  0  0  0  0  0  0  0
    4.6341   -5.6473   26.2225 N   0  0  0  0  0  0  0  0  0  0  0  0
    4.8111  -14.2647   33.1698 C   0  0  0  0  0  0  0  0  0  0  0  0
    4.1857  -14.7023   34.5334 N   0  0  0  0  0  0  0  0  0  0  0  0
    3.9283  -13.2626   32.3689 C   0  0  0  0  0  0  0  0  0  0  0  0
    5.1181   -6.8782   30.8661 O   0  0  0  0  0  0  0  0  0  0  0  0
   -0.1109   -4.4687   24.0932 C   0  0  2  0  0  0  0  0  0  0  0  0
   -1.5140   -4.5424   23.8991 O   0  0  0  0  0  0  0  0  0  0  0  0
    2.8408   -6.9770   27.1496 C   0  0  2  0  0  0  0  0  0  0  0  0
    0.5803   -5.7446   23.5317 C   0  0  2  0  0  0  0  0  0  0  0  0
    2.0099   -5.6859   23.7177 O   0  0  0  0  0  0  0  0  0  0  0  0
    2.4388   -8.4078   27.7120 C   0  0  2  0  0  0  0  0  0  0  0  0
    1.0357   -8.3743   28.1109 O   0  0  0  0  0  0  0  0  0  0  0  0
    0.3038   -5.9350   22.0880 C   0  0  0  0  0  0  0  0  0  0  0  0
   -0.6696   -6.8594   21.9343 N   0  0  0  0  0  0  0  0  0  0  0  0
    3.3494   -8.7417   28.9443 C   0  0  1  0  0  0  0  0  0  0  0  0
    3.0024   -9.9795   29.4784 O   0  0  0  0  0  0  0  0  0  0  0  0
  1  2  1  1  0  0  0
  1  5  1  0  0  0  0
  1 29  1  0  0  0  0
  3  4  1  1  0  0  0
  3  7  1  0  0  0  0
  3 34  1  0  0  0  0
  5  6  1  1  0  0  0
  5 16  1  0  0  0  0
  7 19  1  0  0  0  0
  8  4  1  0  0  0  0
  8 24  2  0  0  0  0
  9  8  1  1  0  0  0
  9 10  1  0  0  0  0
  9 13  1  0  0  0  0
 10 11  1  0  0  0  0
 11 12  1  0  0  0  0
 14 15  1  0  0  0  0
 14 35  1  0  0  0  0
 15 17  1  0  0  0  0
 16 18  1  6  0  0  0
 16 25  1  0  0  0  0
 19 20  1  1  0  0  0
 19 27  1  0  0  0  0
 21 22  1  0  0  0  0
 21 23  1  0  0  0  0
 23 17  1  0  0  0  0
 25 26  1  1  0  0  0
 25 28  1  0  0  0  0
 27  2  1  6  0  0  0
 27 30  1  0  0  0  0
 28 29  1  0  0  0  0
 28 32  1  6  0  0  0
 30 31  1  1  0  0  0
 30 34  1  0  0  0  0
 32 33  2  0  0  0  0
 34 35  1  6  0  0  0
M  END
>  <CHROM.1>
-90.43506956,55.12023207,148.90445710,-59.16769617,85.94470149,-164.67633310
-56.19350137,-51.98908024,-175.09268526,-144.22069321,-43.32133811,-100.37848739
63.90611279,3.33911528,-7.76690300,28.24435463,-2.18399172,0.69460379,2.64541400

>  <Name>
2f4t_lig

>  <RI>
0

>  <Rbt.Current_Directory>
/home/itssahil/PROJECTS/Mol_Feturizer/New_Systems/rnas/2f4t

>  <Rbt.Executable>
rbdock ($Id: //depot/dev/client3/rdock/2013.1/src/exe/rbdock.cxx#4 $)

>  <Rbt.Library>
libRbt.so (2013.1, Build901 2013/11/27)

>  <Rbt.Parameter_File>
/export/apps/rDock/src/rDock_2013.1_src/data/scripts/dock_solv.prm

>  <Rbt.Receptor>
prm/pocket_docking_2.prm

>  <SCORE>
-14.7481

>  <SCORE.INTER>
-17.5282

>  <SCORE.INTER.CONST>
1

>  <SCORE.INTER.POLAR>
-1.89759

>  <SCORE.INTER.ROT>
13

>  <SCORE.INTER.SOLV>
14.2111

>  <SCORE.INTER.VDW>
-22.3639

>  <SCORE.INTER.norm>
-0.500807

>  <SCORE.INTRA>
1.64808

>  <SCORE.INTRA.DIHEDRAL>
-12.1256

>  <SCORE.INTRA.DIHEDRAL.0>
23.8882

>  <SCORE.INTRA.POLAR>
0

>  <SCORE.INTRA.POLAR.0>
0

>  <SCORE.INTRA.REPUL>
0

>  <SCORE.INTRA.REPUL.0>
0

>  <SCORE.INTRA.SOLV>
7.07857

>  <SCORE.INTRA.SOLV.lig_0>
-97.6888

>  <SCORE.INTRA.VDW>
4.1716

>  <SCORE.INTRA.VDW.0>
-3.9206

>  <SCORE.INTRA.norm>
0.047088

>  <SCORE.RESTR>
1.13201

>  <SCORE.RESTR.CAVITY>
1.13201

>  <SCORE.RESTR.norm>
0.0323432

>  <SCORE.SYSTEM>
0

>  <SCORE.SYSTEM.CONST>
0

>  <SCORE.SYSTEM.DIHEDRAL>
0

>  <SCORE.SYSTEM.SOLV>
0

>  <SCORE.SYSTEM.norm>
0

>  <SCORE.heavy>
35

>  <SCORE.norm>
-0.421376

>  <RMSD>
4.929

$$$$
2f4t_lig
 OpenBabel11021811433D
libRbt.so/2013.1/901 2013/11/27
 35 36  0  0  0  0  0  0  0  0999 V2000
    1.5734   -6.5091   27.1589 C   0  0  2  0  0  0  0  0  0  0  0  0
    2.6337   -7.4786   27.4470 O   0  0  0  0  0  0  0  0  0  0  0  0
    2.8888  -10.8011   30.1953 C   0  0  2  0  0  0  0  0  0  0  0  0
    3.0109  -11.5441   31.4586 N   0  0  0  0  0  0  0  0  0  0  0  0
    2.0348   -5.7401   25.8840 C   0  0  2  0  0  0  0  0  0  0  0  0
    2.2904   -6.6587   24.7994 N   0  0  0  0  0  0  0  0  0  0  0  0
    4.0517   -9.7466   30.0990 C   0  0  0  0  0  0  0  0  0  0  0  0
    4.2967  -12.7461   31.3151 C   0  0  0  0  0  0  0  0  0  0  0  0
    3.9687  -13.1108   32.7461 C   0  0  1  0  0  0  0  0  0  0  0  0
    4.7644  -14.3705   33.0954 C   0  0  0  0  0  0  0  0  0  0  0  0
    4.4410  -15.6167   32.2543 C   0  0  0  0  0  0  0  0  0  0  0  0
    3.0800  -16.0540   32.5793 N   0  0  0  0  0  0  0  0  0  0  0  0
    4.4138  -12.1170   33.6318 O   0  0  0  0  0  0  0  0  0  0  0  0
   -0.8490  -11.4618   30.3192 C   0  0  0  0  0  0  0  0  0  0  0  0
   -1.4778  -10.9128   31.5907 C   0  0  0  0  0  0  0  0  0  0  0  0
    3.3118   -4.8909   26.2007 C   0  0  1  0  0  0  0  0  0  0  0  0
   -1.3617   -9.4438   31.7210 N   0  0  0  0  0  0  0  0  0  0  0  0
    3.7446   -4.1806   25.0567 O   0  0  0  0  0  0  0  0  0  0  0  0
    3.9752   -8.9270   28.8033 C   0  0  2  0  0  0  0  0  0  0  0  0
    5.0392   -7.9291   28.7559 N   0  0  0  0  0  0  0  0  0  0  0  0
    0.1657   -7.5273   32.1962 C   0  0  0  0  0  0  0  0  0  0  0  0
    1.2291   -6.8908   33.1480 N   0  0  0  0  0  0  0  0  0  0  0  0
   -0.4435   -8.8548   32.7366 C   0  0  0  0  0  0  0  0  0  0  0  0
    4.9683  -13.0357   30.5378 O   0  0  0  0  0  0  0  0  0  0  0  0
    2.9702   -3.9261   27.3409 C   0  0  2  0  0  0  0  0  0  0  0  0
    4.0854   -3.1141   27.6707 O   0  0  0  0  0  0  0  0  0  0  0  0
    2.6414   -8.2306   28.6986 C   0  0  2  0  0  0  0  0  0  0  0  0
    2.4959   -4.7260   28.5884 C   0  0  2  0  0  0  0  0  0  0  0  0
    1.3591   -5.5561   28.2722 O   0  0  0  0  0  0  0  0  0  0  0  0
    1.4620   -9.2934   28.7638 C   0  0  2  0  0  0  0  0  0  0  0  0
    0.1906   -8.5859   28.6538 O   0  0  0  0  0  0  0  0  0  0  0  0
    2.1251   -3.8326   29.7114 C   0  0  0  0  0  0  0  0  0  0  0  0
    3.1022   -3.8532   30.6444 N   0  0  0  0  0  0  0  0  0  0  0  0
    1.5450  -10.0589   30.1300 C   0  0  1  0  0  0  0  0  0  0  0  0
    0.5059  -10.9798   30.2301 O   0  0  0  0  0  0  0  0  0  0  0  0
  1  2  1  1  0  0  0
  1  5  1  0  0  0  0
  1 29  1  0  0  0  0
  3  4  1  1  0  0  0
  3  7  1  0  0  0  0
  3 34  1  0  0  0  0
  5  6  1  6  0  0  0
  5 16  1  0  0  0  0
  7 19  1  0  0  0  0
  8  4  1  0  0  0  0
  8 24  2  0  0  0  0
  9  8  1  6  0  0  0
  9 10  1  0  0  0  0
  9 13  1  0  0  0  0
 10 11  1  0  0  0  0
 11 12  1  0  0  0  0
 14 15  1  0  0  0  0
 14 35  1  0  0  0  0
 15 17  1  0  0  0  0
 16 18  1  6  0  0  0
 16 25  1  0  0  0  0
 19 20  1  1  0  0  0
 19 27  1  0  0  0  0
 21 22  1  0  0  0  0
 21 23  1  0  0  0  0
 23 17  1  0  0  0  0
 25 26  1  1  0  0  0
 25 28  1  0  0  0  0
 27  2  1  6  0  0  0
 27 30  1  0  0  0  0
 28 29  1  0  0  0  0
 28 32  1  1  0  0  0
 30 31  1  1  0  0  0
 30 34  1  0  0  0  0
 32 33  2  0  0  0  0
 34 35  1  6  0  0  0
M  END
>  <CHROM.1>
170.13670705,-77.18799312,171.91713200,-61.73592819,-67.79781400,52.53425389
-61.88849082,-108.93190509,-175.51911193,146.14347219,-169.31614402,-104.33451243
176.70481055,2.40522299,-8.81427591,29.77725781,1.61813859,0.50825229,-0.54600043

>  <Name>
2f4t_lig

>  <RI>
0

>  <Rbt.Current_Directory>
/home/itssahil/PROJECTS/Mol_Feturizer/New_Systems/rnas/2f4t

>  <Rbt.Executable>
rbdock ($Id: //depot/dev/client3/rdock/2013.1/src/exe/rbdock.cxx#4 $)

>  <Rbt.Library>
libRbt.so (2013.1, Build901 2013/11/27)

>  <Rbt.Parameter_File>
/export/apps/rDock/src/rDock_2013.1_src/data/scripts/dock_solv.prm

>  <Rbt.Receptor>
prm/pocket_docking_5.prm

>  <SCORE>
-13.6293

>  <SCORE.INTER>
-4.20299

>  <SCORE.INTER.CONST>
1

>  <SCORE.INTER.POLAR>
-2.19382

>  <SCORE.INTER.ROT>
13

>  <SCORE.INTER.SOLV>
10.1061

>  <SCORE.INTER.VDW>
-11.1246

>  <SCORE.INTER.norm>
-0.120085

>  <SCORE.INTRA>
-9.42632

>  <SCORE.INTRA.DIHEDRAL>
-18.4247

>  <SCORE.INTRA.DIHEDRAL.0>
23.8882

>  <SCORE.INTRA.POLAR>
0

>  <SCORE.INTRA.POLAR.0>
0

>  <SCORE.INTRA.REPUL>
0

>  <SCORE.INTRA.REPUL.0>
0

>  <SCORE.INTRA.SOLV>
1.9626

>  <SCORE.INTRA.SOLV.lig_0>
-97.6888

>  <SCORE.INTRA.VDW>
-1.19526

>  <SCORE.INTRA.VDW.0>
-3.9206

>  <SCORE.INTRA.norm>
-0.269323

>  <SCORE.RESTR>
0

>  <SCORE.RESTR.CAVITY>
0

>  <SCORE.RESTR.norm>
0

>  <SCORE.SYSTEM>
0

>  <SCORE.SYSTEM.CONST>
0

>  <SCORE.SYSTEM.DIHEDRAL>
0

>  <SCORE.SYSTEM.SOLV>
0

>  <SCORE.SYSTEM.norm>
0

>  <SCORE.heavy>
35

>  <SCORE.norm>
-0.389409

>  <RMSD>
4.939

$$$$
2f4t_lig
 OpenBabel11021811433D
libRbt.so/2013.1/901 2013/11/27
 35 36  0  0  0  0  0  0  0  0999 V2000
    4.2416   -5.7596   27.2889 C   0  0  2  0  0  0  0  0  0  0  0  0
    4.1579   -7.0713   26.6408 O   0  0  0  0  0  0  0  0  0  0  0  0
    1.3505   -9.1093   29.2142 C   0  0  2  0  0  0  0  0  0  0  0  0
    0.4294  -10.1420   29.7120 N   0  0  0  0  0  0  0  0  0  0  0  0
    4.7211   -4.7693   26.1849 C   0  0  2  0  0  0  0  0  0  0  0  0
    3.8280   -4.7993   25.0505 N   0  0  0  0  0  0  0  0  0  0  0  0
    0.9616   -8.7355   27.7369 C   0  0  0  0  0  0  0  0  0  0  0  0
    0.0883   -9.8555   31.4209 C   0  0  0  0  0  0  0  0  0  0  0  0
   -0.7984  -11.0783   31.3385 C   0  0  1  0  0  0  0  0  0  0  0  0
   -0.0141  -12.2572   31.9191 C   0  0  0  0  0  0  0  0  0  0  0  0
    0.2931  -12.1759   33.4238 C   0  0  0  0  0  0  0  0  0  0  0  0
    1.0120  -13.3920   33.8156 N   0  0  0  0  0  0  0  0  0  0  0  0
   -1.9318  -10.9319   32.1534 O   0  0  0  0  0  0  0  0  0  0  0  0
    3.9920  -10.4099   31.6125 C   0  0  0  0  0  0  0  0  0  0  0  0
    3.2516  -10.1860   32.9222 C   0  0  0  0  0  0  0  0  0  0  0  0
    6.1829   -5.1198   25.7459 C   0  0  1  0  0  0  0  0  0  0  0  0
    4.1274  -10.2410   34.1132 N   0  0  0  0  0  0  0  0  0  0  0  0
    6.6394   -4.2289   24.7468 O   0  0  0  0  0  0  0  0  0  0  0  0
    1.8948   -7.6658   27.1525 C   0  0  2  0  0  0  0  0  0  0  0  0
    1.5395   -7.3657   25.7691 N   0  0  0  0  0  0  0  0  0  0  0  0
    3.3993   -8.3705   35.5972 C   0  0  0  0  0  0  0  0  0  0  0  0
    4.7065   -7.5589   35.3243 N   0  0  0  0  0  0  0  0  0  0  0  0
    3.5786   -9.9113   35.4591 C   0  0  0  0  0  0  0  0  0  0  0  0
    0.4007   -9.1267   32.1353 O   0  0  0  0  0  0  0  0  0  0  0  0
    7.0808   -5.0506   26.9855 C   0  0  2  0  0  0  0  0  0  0  0  0
    8.4278   -5.3467   26.6543 O   0  0  0  0  0  0  0  0  0  0  0  0
    3.3280   -8.1330   27.2029 C   0  0  2  0  0  0  0  0  0  0  0  0
    6.5619   -6.0362   28.0719 C   0  0  2  0  0  0  0  0  0  0  0  0
    5.1928   -5.7479   28.4240 O   0  0  0  0  0  0  0  0  0  0  0  0
    3.7378   -8.4829   28.6978 C   0  0  2  0  0  0  0  0  0  0  0  0
    5.1286   -8.9243   28.7086 O   0  0  0  0  0  0  0  0  0  0  0  0
    7.3830   -5.9843   29.3049 C   0  0  0  0  0  0  0  0  0  0  0  0
    8.1159   -7.1149   29.4055 N   0  0  0  0  0  0  0  0  0  0  0  0
    2.7989   -9.6221   29.2268 C   0  0  1  0  0  0  0  0  0  0  0  0
    3.1514   -9.9718   30.5274 O   0  0  0  0  0  0  0  0  0  0  0  0
  1  2  1  6  0  0  0
  1  5  1  0  0  0  0
  1 29  1  0  0  0  0
  3  4  1  6  0  0  0
  3  7  1  0  0  0  0
  3 34  1  0  0  0  0
  5  6  1  6  0  0  0
  5 16  1  0  0  0  0
  7 19  1  0  0  0  0
  8  4  1  0  0  0  0
  8 24  2  0  0  0  0
  9  8  1  1  0  0  0
  9 10  1  0  0  0  0
  9 13  1  0  0  0  0
 10 11  1  0  0  0  0
 11 12  1  0  0  0  0
 14 15  1  0  0  0  0
 14 35  1  0  0  0  0
 15 17  1  0  0  0  0
 16 18  1  6  0  0  0
 16 25  1  0  0  0  0
 19 20  1  6  0  0  0
 19 27  1  0  0  0  0
 21 22  1  0  0  0  0
 21 23  1  0  0  0  0
 23 17  1  0  0  0  0
 25 26  1  6  0  0  0
 25 28  1  0  0  0  0
 27  2  1  1  0  0  0
 27 30  1  0  0  0  0
 28 29  1  0  0  0  0
 28 32  1  1  0  0  0
 30 31  1  6  0  0  0
 30 34  1  0  0  0  0
 32 33  2  0  0  0  0
 34 35  1  1  0  0  0
M  END
>  <CHROM.1>
-158.72429667,-143.19379606,99.95809836,66.43190350,178.52689930,-164.07629304
169.26705851,174.08908314,-55.44862064,-75.44216397,63.65228009,-108.44174824
-175.39565599,3.41253796,-8.30448931,29.70848359,0.98180075,-0.47050791,-1.17806159

>  <Name>
2f4t_lig

>  <RI>
0

>  <Rbt.Current_Directory>
/home/itssahil/PROJECTS/Mol_Feturizer/New_Systems/rnas/2f4t

>  <Rbt.Executable>
rbdock ($Id: //depot/dev/client3/rdock/2013.1/src/exe/rbdock.cxx#4 $)

>  <Rbt.Library>
libRbt.so (2013.1, Build901 2013/11/27)

>  <Rbt.Parameter_File>
/export/apps/rDock/src/rDock_2013.1_src/data/scripts/dock_solv.prm

>  <Rbt.Receptor>
prm/pocket_docking_5.prm

>  <SCORE>
-9.65557

>  <SCORE.INTER>
-2.32168

>  <SCORE.INTER.CONST>
1

>  <SCORE.INTER.POLAR>
-1.28146

>  <SCORE.INTER.ROT>
13

>  <SCORE.INTER.SOLV>
16.9736

>  <SCORE.INTER.VDW>
-15.2008

>  <SCORE.INTER.norm>
-0.0663338

>  <SCORE.INTRA>
-7.3425

>  <SCORE.INTRA.DIHEDRAL>
-16.0949

>  <SCORE.INTRA.DIHEDRAL.0>
23.8882

>  <SCORE.INTRA.POLAR>
0

>  <SCORE.INTRA.POLAR.0>
0

>  <SCORE.INTRA.REPUL>
0

>  <SCORE.INTRA.REPUL.0>
0

>  <SCORE.INTRA.SOLV>
4.10345

>  <SCORE.INTRA.SOLV.lig_0>
-97.6888

>  <SCORE.INTRA.VDW>
-1.34678

>  <SCORE.INTRA.VDW.0>
-3.9206

>  <SCORE.INTRA.norm>
-0.209786

>  <SCORE.RESTR>
0.00861147

>  <SCORE.RESTR.CAVITY>
0.00861147

>  <SCORE.RESTR.norm>
0.000246042

>  <SCORE.SYSTEM>
0

>  <SCORE.SYSTEM.CONST>
0

>  <SCORE.SYSTEM.DIHEDRAL>
0

>  <SCORE.SYSTEM.SOLV>
0

>  <SCORE.SYSTEM.norm>
0

>  <SCORE.heavy>
35

>  <SCORE.norm>
-0.275874

>  <RMSD>
4.947

$$$$
2f4t_lig
 OpenBabel11021811433D
libRbt.so/2013.1/901 2013/11/27
 35 36  0  0  0  0  0  0  0  0999 V2000
    1.9382   -5.6712   29.3050 C   0  0  2  0  0  0  0  0  0  0  0  0
    1.3853   -7.0016   29.0377 O   0  0  0  0  0  0  0  0  0  0  0  0
    2.6313  -11.0843   29.6984 C   0  0  2  0  0  0  0  0  0  0  0  0
    3.4475  -12.3064   29.6450 N   0  0  0  0  0  0  0  0  0  0  0  0
    0.7306   -4.7887   29.7437 C   0  0  2  0  0  0  0  0  0  0  0  0
    0.0566   -5.3749   30.8784 N   0  0  0  0  0  0  0  0  0  0  0  0
    2.4280  -10.5320   28.2399 C   0  0  0  0  0  0  0  0  0  0  0  0
    2.3918  -13.7173   29.5283 C   0  0  0  0  0  0  0  0  0  0  0  0
    3.6648  -14.5340   29.5024 C   0  0  1  0  0  0  0  0  0  0  0  0
    3.6764  -15.4106   30.7568 C   0  0  0  0  0  0  0  0  0  0  0  0
    2.5616  -16.4666   30.8414 C   0  0  0  0  0  0  0  0  0  0  0  0
    2.7787  -17.2731   32.0462 N   0  0  0  0  0  0  0  0  0  0  0  0
    3.6703  -15.4204   28.4140 O   0  0  0  0  0  0  0  0  0  0  0  0
    3.9225  -11.4040   32.8691 C   0  0  0  0  0  0  0  0  0  0  0  0
    2.9469  -12.5708   32.8834 C   0  0  0  0  0  0  0  0  0  0  0  0
   -0.2626   -4.6030   28.5473 C   0  0  1  0  0  0  0  0  0  0  0  0
    3.2181  -13.5549   33.9541 N   0  0  0  0  0  0  0  0  0  0  0  0
   -1.3647   -3.8002   28.9235 O   0  0  0  0  0  0  0  0  0  0  0  0
    1.5899   -9.2460   28.2265 C   0  0  2  0  0  0  0  0  0  0  0  0
    1.4495   -8.7312   26.8681 N   0  0  0  0  0  0  0  0  0  0  0  0
    1.2075  -14.0103   35.3619 C   0  0  0  0  0  0  0  0  0  0  0  0
    0.1163  -15.0315   35.8186 N   0  0  0  0  0  0  0  0  0  0  0  0
    2.1946  -14.5813   34.3012 C   0  0  0  0  0  0  0  0  0  0  0  0
    1.3348  -13.8615   29.4952 O   0  0  0  0  0  0  0  0  0  0  0  0
    0.5054   -3.9606   27.3875 C   0  0  2  0  0  0  0  0  0  0  0  0
   -0.3430   -3.7521   26.2701 O   0  0  0  0  0  0  0  0  0  0  0  0
    2.2328   -8.1895   29.0899 C   0  0  2  0  0  0  0  0  0  0  0  0
    1.7129   -4.8576   26.9896 C   0  0  2  0  0  0  0  0  0  0  0  0
    2.5893   -5.0783   28.1142 O   0  0  0  0  0  0  0  0  0  0  0  0
    2.4130   -8.7295   30.5734 C   0  0  2  0  0  0  0  0  0  0  0  0
    3.0307   -7.6814   31.3791 O   0  0  0  0  0  0  0  0  0  0  0  0
    2.5060   -4.2625   25.8879 C   0  0  0  0  0  0  0  0  0  0  0  0
    2.8801   -5.2342   25.0268 N   0  0  0  0  0  0  0  0  0  0  0  0
    3.3266  -10.0037   30.5411 C   0  0  1  0  0  0  0  0  0  0  0  0
    3.5271  -10.4856   31.8316 O   0  0  0  0  0  0  0  0  0  0  0  0
  1  2  1  6  0  0  0
  1  5  1  0  0  0  0
  1 29  1  0  0  0  0
  3  4  1  6  0  0  0
  3  7  1  0  0  0  0
  3 34  1  0  0  0  0
  5  6  1  1  0  0  0
  5 16  1  0  0  0  0
  7 19  1  0  0  0  0
  8  4  1  0  0  0  0
  8 24  2  0  0  0  0
  9  8  1  1  0  0  0
  9 10  1  0  0  0  0
  9 13  1  0  0  0  0
 10 11  1  0  0  0  0
 11 12  1  0  0  0  0
 14 15  1  0  0  0  0
 14 35  1  0  0  0  0
 15 17  1  0  0  0  0
 16 18  1  1  0  0  0
 16 25  1  0  0  0  0
 19 20  1  6  0  0  0
 19 27  1  0  0  0  0
 21 22  1  0  0  0  0
 21 23  1  0  0  0  0
 23 17  1  0  0  0  0
 25 26  1  6  0  0  0
 25 28  1  0  0  0  0
 27  2  1  1  0  0  0
 27 30  1  0  0  0  0
 28 29  1  0  0  0  0
 28 32  1  6  0  0  0
 30 31  1  1  0  0  0
 30 34  1  0  0  0  0
 32 33  2  0  0  0  0
 34 35  1  1  0  0  0
M  END
>  <CHROM.1>
-157.00698032,-92.03194291,116.21603886,64.43999211,175.95843849,-177.41682954
-71.07330902,166.27881562,-178.45591003,-87.31577845,-155.79079720,-139.79373295
48.07447407,2.05144060,-9.80088888,29.94766138,2.01455819,1.22695803,-0.84224334

>  <Name>
2f4t_lig

>  <RI>
0

>  <Rbt.Current_Directory>
/home/itssahil/PROJECTS/Mol_Feturizer/New_Systems/rnas/2f4t

>  <Rbt.Executable>
rbdock ($Id: //depot/dev/client3/rdock/2013.1/src/exe/rbdock.cxx#4 $)

>  <Rbt.Library>
libRbt.so (2013.1, Build901 2013/11/27)

>  <Rbt.Parameter_File>
/export/apps/rDock/src/rDock_2013.1_src/data/scripts/dock_solv.prm

>  <Rbt.Receptor>
prm/pocket_docking_6.prm

>  <SCORE>
-10.3928

>  <SCORE.INTER>
-3.56596

>  <SCORE.INTER.CONST>
1

>  <SCORE.INTER.POLAR>
-0.937052

>  <SCORE.INTER.ROT>
13

>  <SCORE.INTER.SOLV>
11.1347

>  <SCORE.INTER.VDW>
-15.232

>  <SCORE.INTER.norm>
-0.101885

>  <SCORE.INTRA>
-6.82687

>  <SCORE.INTRA.DIHEDRAL>
-12.7452

>  <SCORE.INTRA.DIHEDRAL.0>
23.8882

>  <SCORE.INTRA.POLAR>
0

>  <SCORE.INTRA.POLAR.0>
0

>  <SCORE.INTRA.REPUL>
0

>  <SCORE.INTRA.REPUL.0>
0

>  <SCORE.INTRA.SOLV>
1.63294

>  <SCORE.INTRA.SOLV.lig_0>
-97.6888

>  <SCORE.INTRA.VDW>
-1.27073

>  <SCORE.INTRA.VDW.0>
-3.9206

>  <SCORE.INTRA.norm>
-0.195053

>  <SCORE.RESTR>
0

>  <SCORE.RESTR.CAVITY>
0

>  <SCORE.RESTR.norm>
0

>  <SCORE.SYSTEM>
0

>  <SCORE.SYSTEM.CONST>
0

>  <SCORE.SYSTEM.DIHEDRAL>
0

>  <SCORE.SYSTEM.SOLV>
0

>  <SCORE.SYSTEM.norm>
0

>  <SCORE.heavy>
35

>  <SCORE.norm>
-0.296938

>  <RMSD>
4.957

$$$$
2f4t_lig
 OpenBabel11021811433D
libRbt.so/2013.1/901 2013/11/27
 35 36  0  0  0  0  0  0  0  0999 V2000
    2.2826   -5.1856   25.1430 C   0  0  2  0  0  0  0  0  0  0  0  0
    2.0766   -6.5423   25.6570 O   0  0  0  0  0  0  0  0  0  0  0  0
    4.6259   -8.8928   28.2325 C   0  0  2  0  0  0  0  0  0  0  0  0
    5.4136   -9.2896   29.4093 N   0  0  0  0  0  0  0  0  0  0  0  0
    1.8146   -4.2249   26.2778 C   0  0  2  0  0  0  0  0  0  0  0  0
    2.5308   -4.4956   27.5023 N   0  0  0  0  0  0  0  0  0  0  0  0
    5.0468   -7.4432   27.7910 C   0  0  0  0  0  0  0  0  0  0  0  0
    4.9561   -8.2894   30.7911 C   0  0  0  0  0  0  0  0  0  0  0  0
    5.9728   -9.0921   31.5722 C   0  0  1  0  0  0  0  0  0  0  0  0
    6.9443   -8.1021   32.2187 C   0  0  0  0  0  0  0  0  0  0  0  0
    7.8612   -7.3388   31.2481 C   0  0  0  0  0  0  0  0  0  0  0  0
    8.7199   -6.4440   32.0298 N   0  0  0  0  0  0  0  0  0  0  0  0
    5.3620   -9.7795   32.6326 O   0  0  0  0  0  0  0  0  0  0  0  0
    1.8726  -11.2122   29.4430 C   0  0  0  0  0  0  0  0  0  0  0  0
    1.3645  -10.8321   30.8253 C   0  0  0  0  0  0  0  0  0  0  0  0
    0.2707   -4.3652   26.4989 C   0  0  1  0  0  0  0  0  0  0  0  0
    0.6346  -11.9232   31.5075 N   0  0  0  0  0  0  0  0  0  0  0  0
   -0.1756   -3.4973   27.5226 O   0  0  0  0  0  0  0  0  0  0  0  0
    4.2509   -6.9634   26.5692 C   0  0  2  0  0  0  0  0  0  0  0  0
    4.6300   -5.6021   26.2039 N   0  0  0  0  0  0  0  0  0  0  0  0
    0.9119  -11.4969   33.9515 C   0  0  0  0  0  0  0  0  0  0  0  0
    1.7948  -12.7637   34.1915 N   0  0  0  0  0  0  0  0  0  0  0  0
   -0.0985  -11.6515   32.7764 C   0  0  0  0  0  0  0  0  0  0  0  0
    4.2636   -7.4913   30.9417 O   0  0  0  0  0  0  0  0  0  0  0  0
   -0.4299   -4.0464   25.1740 C   0  0  2  0  0  0  0  0  0  0  0  0
   -1.8386   -4.1431   25.3081 O   0  0  0  0  0  0  0  0  0  0  0  0
    2.7708   -7.0025   26.8564 C   0  0  2  0  0  0  0  0  0  0  0  0
    0.0749   -5.0103   24.0618 C   0  0  2  0  0  0  0  0  0  0  0  0
    1.5069   -4.9232   23.9090 O   0  0  0  0  0  0  0  0  0  0  0  0
    2.3323   -8.4718   27.2731 C   0  0  2  0  0  0  0  0  0  0  0  0
    0.8972   -8.4727   27.5368 O   0  0  0  0  0  0  0  0  0  0  0  0
   -0.5540   -4.7217   22.7510 C   0  0  0  0  0  0  0  0  0  0  0  0
   -1.3133   -3.6086   22.8515 N   0  0  0  0  0  0  0  0  0  0  0  0
    3.1246   -8.8910   28.5599 C   0  0  1  0  0  0  0  0  0  0  0  0
    2.7415  -10.1656   28.9677 O   0  0  0  0  0  0  0  0  0  0  0  0
  1  2  1  1  0  0  0
  1  5  1  0  0  0  0
  1 29  1  0  0  0  0
  3  4  1  1  0  0  0
  3  7  1  0  0  0  0
  3 34  1  0  0  0  0
  5  6  1  1  0  0  0
  5 16  1  0  0  0  0
  7 19  1  0  0  0  0
  8  4  1  0  0  0  0
  8 24  2  0  0  0  0
  9  8  1  1  0  0  0
  9 10  1  0  0  0  0
  9 13  1  0  0  0  0
 10 11  1  0  0  0  0
 11 12  1  0  0  0  0
 14 15  1  0  0  0  0
 14 35  1  0  0  0  0
 15 17  1  0  0  0  0
 16 18  1  1  0  0  0
 16 25  1  0  0  0  0
 19 20  1  1  0  0  0
 19 27  1  0  0  0  0
 21 22  1  0  0  0  0
 21 23  1  0  0  0  0
 23 17  1  0  0  0  0
 25 26  1  1  0  0  0
 25 28  1  0  0  0  0
 27  2  1  6  0  0  0
 27 30  1  0  0  0  0
 28 29  1  0  0  0  0
 28 32  1  6  0  0  0
 30 31  1  1  0  0  0
 30 34  1  0  0  0  0
 32 33  2  0  0  0  0
 34 35  1  6  0  0  0
M  END
>  <CHROM.1>
-60.93279905,67.29257537,125.60919102,-68.20889386,-179.91007355,-170.86457521
-61.78924632,-170.91587550,-59.85815417,-74.58059175,-62.03959053,5.59072778
178.03703478,2.62250463,-7.50006215,28.42107026,-1.97216231,0.29095607,2.34444062

>  <Name>
2f4t_lig

>  <RI>
0

>  <Rbt.Current_Directory>
/home/itssahil/PROJECTS/Mol_Feturizer/New_Systems/rnas/2f4t

>  <Rbt.Executable>
rbdock ($Id: //depot/dev/client3/rdock/2013.1/src/exe/rbdock.cxx#4 $)

>  <Rbt.Library>
libRbt.so (2013.1, Build901 2013/11/27)

>  <Rbt.Parameter_File>
/export/apps/rDock/src/rDock_2013.1_src/data/scripts/dock_solv.prm

>  <Rbt.Receptor>
prm/pocket_docking_3.prm

>  <SCORE>
-10.0242

>  <SCORE.INTER>
-8.46864

>  <SCORE.INTER.CONST>
1

>  <SCORE.INTER.POLAR>
-0.402435

>  <SCORE.INTER.ROT>
13

>  <SCORE.INTER.SOLV>
15.7955

>  <SCORE.INTER.VDW>
-21.8361

>  <SCORE.INTER.norm>
-0.241961

>  <SCORE.INTRA>
-1.56379

>  <SCORE.INTRA.DIHEDRAL>
-19.7802

>  <SCORE.INTRA.DIHEDRAL.0>
23.8882

>  <SCORE.INTRA.POLAR>
0

>  <SCORE.INTRA.POLAR.0>
0

>  <SCORE.INTRA.REPUL>
0

>  <SCORE.INTRA.REPUL.0>
0

>  <SCORE.INTRA.SOLV>
6.89876

>  <SCORE.INTRA.SOLV.lig_0>
-97.6888

>  <SCORE.INTRA.VDW>
4.87691

>  <SCORE.INTRA.VDW.0>
-3.9206

>  <SCORE.INTRA.norm>
-0.0446797

>  <SCORE.RESTR>
0.00823425

>  <SCORE.RESTR.CAVITY>
0.00823425

>  <SCORE.RESTR.norm>
0.000235264

>  <SCORE.SYSTEM>
0

>  <SCORE.SYSTEM.CONST>
0

>  <SCORE.SYSTEM.DIHEDRAL>
0

>  <SCORE.SYSTEM.SOLV>
0

>  <SCORE.SYSTEM.norm>
0

>  <SCORE.heavy>
35

>  <SCORE.norm>
-0.286405

>  <RMSD>
4.974

$$$$
2f4t_lig
 OpenBabel11021811433D
libRbt.so/2013.1/901 2013/11/27
 35 36  0  0  0  0  0  0  0  0999 V2000
    0.9888   -3.4636   30.3386 C   0  0  2  0  0  0  0  0  0  0  0  0
    1.2011   -4.1240   31.6293 O   0  0  0  0  0  0  0  0  0  0  0  0
    2.1101   -8.2228   32.6448 C   0  0  2  0  0  0  0  0  0  0  0  0
    1.9238   -9.6620   32.8831 N   0  0  0  0  0  0  0  0  0  0  0  0
    1.0396   -1.9332   30.6300 C   0  0  2  0  0  0  0  0  0  0  0  0
    2.2865   -1.5766   31.2653 N   0  0  0  0  0  0  0  0  0  0  0  0
    1.0209   -7.4189   33.4454 C   0  0  0  0  0  0  0  0  0  0  0  0
    3.3482  -10.3153   33.6973 C   0  0  0  0  0  0  0  0  0  0  0  0
    2.6229  -11.6424   33.6697 C   0  0  1  0  0  0  0  0  0  0  0  0
    3.1367  -12.4241   32.4585 C   0  0  0  0  0  0  0  0  0  0  0  0
    4.5556  -13.0021   32.5923 C   0  0  0  0  0  0  0  0  0  0  0  0
    4.8289  -13.8343   31.4168 N   0  0  0  0  0  0  0  0  0  0  0  0
    2.9501  -12.4166   34.7939 O   0  0  0  0  0  0  0  0  0  0  0  0
    3.6939   -9.7486   30.0066 C   0  0  0  0  0  0  0  0  0  0  0  0
    4.7902   -9.9910   31.0327 C   0  0  0  0  0  0  0  0  0  0  0  0
   -0.1752   -1.5155   31.5255 C   0  0  1  0  0  0  0  0  0  0  0  0
    5.6449   -8.8080   31.2754 N   0  0  0  0  0  0  0  0  0  0  0  0
   -0.1504   -0.1279   31.7981 O   0  0  0  0  0  0  0  0  0  0  0  0
    1.1538   -5.9048   33.2304 C   0  0  2  0  0  0  0  0  0  0  0  0
    0.1085   -5.1839   33.9500 N   0  0  0  0  0  0  0  0  0  0  0  0
    7.3386   -7.4464   32.5037 C   0  0  0  0  0  0  0  0  0  0  0  0
    6.3195   -6.3753   33.0097 N   0  0  0  0  0  0  0  0  0  0  0  0
    6.7161   -8.8608   32.3103 C   0  0  0  0  0  0  0  0  0  0  0  0
    4.2745   -9.9039   34.0320 O   0  0  0  0  0  0  0  0  0  0  0  0
   -1.4627   -1.9006   30.7894 C   0  0  2  0  0  0  0  0  0  0  0  0
   -2.6074   -1.5367   31.5438 O   0  0  0  0  0  0  0  0  0  0  0  0
    1.0612   -5.5714   31.7623 C   0  0  2  0  0  0  0  0  0  0  0  0
   -1.4703   -3.4290   30.4983 C   0  0  2  0  0  0  0  0  0  0  0  0
   -0.3136   -3.8173   29.7284 O   0  0  0  0  0  0  0  0  0  0  0  0
    2.1794   -6.3563   30.9508 C   0  0  2  0  0  0  0  0  0  0  0  0
    2.0634   -6.0053   29.5392 O   0  0  0  0  0  0  0  0  0  0  0  0
   -2.6857   -3.8465   29.7597 C   0  0  0  0  0  0  0  0  0  0  0  0
   -3.1252   -5.0275   30.2472 N   0  0  0  0  0  0  0  0  0  0  0  0
    1.9628   -7.8965   31.1505 C   0  0  1  0  0  0  0  0  0  0  0  0
    2.9116   -8.6142   30.4276 O   0  0  0  0  0  0  0  0  0  0  0  0
  1  2  1  1  0  0  0
  1  5  1  0  0  0  0
  1 29  1  0  0  0  0
  3  4  1  6  0  0  0
  3  7  1  0  0  0  0
  3 34  1  0  0  0  0
  5  6  1  1  0  0  0
  5 16  1  0  0  0  0
  7 19  1  0  0  0  0
  8  4  1  0  0  0  0
  8 24  2  0  0  0  0
  9  8  1  1  0  0  0
  9 10  1  0  0  0  0
  9 13  1  0  0  0  0
 10 11  1  0  0  0  0
 11 12  1  0  0  0  0
 14 15  1  0  0  0  0
 14 35  1  0  0  0  0
 15 17  1  0  0  0  0
 16 18  1  6  0  0  0
 16 25  1  0  0  0  0
 19 20  1  1  0  0  0
 19 27  1  0  0  0  0
 21 22  1  0  0  0  0
 21 23  1  0  0  0  0
 23 17  1  0  0  0  0
 25 26  1  1  0  0  0
 25 28  1  0  0  0  0
 27  2  1  1  0  0  0
 27 30  1  0  0  0  0
 28 29  1  0  0  0  0
 28 32  1  6  0  0  0
 30 31  1  6  0  0  0
 30 34  1  0  0  0  0
 32 33  2  0  0  0  0
 34 35  1  6  0  0  0
M  END
>  <CHROM.1>
172.79256172,-116.90627409,97.01552269,73.45457247,173.91730274,-55.53239243
-78.01322117,176.52621958,61.89904766,-172.45185628,-172.33086347,-139.82760968
46.77261254,2.01260296,-6.79204396,31.78486591,-2.09843632,0.04091646,2.97905105

>  <Name>
2f4t_lig

>  <RI>
0

>  <Rbt.Current_Directory>
/home/itssahil/PROJECTS/Mol_Feturizer/New_Systems/rnas/2f4t

>  <Rbt.Executable>
rbdock ($Id: //depot/dev/client3/rdock/2013.1/src/exe/rbdock.cxx#4 $)

>  <Rbt.Library>
libRbt.so (2013.1, Build901 2013/11/27)

>  <Rbt.Parameter_File>
/export/apps/rDock/src/rDock_2013.1_src/data/scripts/dock_solv.prm

>  <Rbt.Receptor>
prm/pocket_docking_8.prm

>  <SCORE>
-9.91787

>  <SCORE.INTER>
-2.50928

>  <SCORE.INTER.CONST>
1

>  <SCORE.INTER.POLAR>
-1.71652

>  <SCORE.INTER.ROT>
13

>  <SCORE.INTER.SOLV>
8.28195

>  <SCORE.INTER.VDW>
-10.9784

>  <SCORE.INTER.norm>
-0.0716936

>  <SCORE.INTRA>
-7.4086

>  <SCORE.INTRA.DIHEDRAL>
-15.9114

>  <SCORE.INTRA.DIHEDRAL.0>
23.8882

>  <SCORE.INTRA.POLAR>
0

>  <SCORE.INTRA.POLAR.0>
0

>  <SCORE.INTRA.REPUL>
0

>  <SCORE.INTRA.REPUL.0>
0

>  <SCORE.INTRA.SOLV>
3.58094

>  <SCORE.INTRA.SOLV.lig_0>
-97.6888

>  <SCORE.INTRA.VDW>
-1.24337

>  <SCORE.INTRA.VDW.0>
-3.9206

>  <SCORE.INTRA.norm>
-0.211674

>  <SCORE.RESTR>
0

>  <SCORE.RESTR.CAVITY>
0

>  <SCORE.RESTR.norm>
0

>  <SCORE.SYSTEM>
0

>  <SCORE.SYSTEM.CONST>
0

>  <SCORE.SYSTEM.DIHEDRAL>
0

>  <SCORE.SYSTEM.SOLV>
0

>  <SCORE.SYSTEM.norm>
0

>  <SCORE.heavy>
35

>  <SCORE.norm>
-0.283368

>  <RMSD>
5.035

$$$$
2f4t_lig
 OpenBabel11021811433D
libRbt.so/2013.1/901 2013/11/27
 35 36  0  0  0  0  0  0  0  0999 V2000
    2.6475   -5.4714   25.5404 C   0  0  2  0  0  0  0  0  0  0  0  0
    2.1781   -6.5630   26.3979 O   0  0  0  0  0  0  0  0  0  0  0  0
    4.2470   -8.6519   29.5623 C   0  0  2  0  0  0  0  0  0  0  0  0
    4.9832   -8.8857   30.8137 N   0  0  0  0  0  0  0  0  0  0  0  0
    1.9818   -4.1765   26.0970 C   0  0  2  0  0  0  0  0  0  0  0  0
    2.3051   -3.9969   27.4930 N   0  0  0  0  0  0  0  0  0  0  0  0
    4.9684   -7.5226   28.7390 C   0  0  0  0  0  0  0  0  0  0  0  0
    4.7972   -7.4889   31.8783 C   0  0  0  0  0  0  0  0  0  0  0  0
    5.6580   -8.2558   32.8577 C   0  0  1  0  0  0  0  0  0  0  0  0
    6.0400   -7.2959   33.9866 C   0  0  0  0  0  0  0  0  0  0  0  0
    6.9816   -6.1456   33.5924 C   0  0  0  0  0  0  0  0  0  0  0  0
    8.2358   -6.7226   33.0993 N   0  0  0  0  0  0  0  0  0  0  0  0
    4.9285   -9.2908   33.4634 O   0  0  0  0  0  0  0  0  0  0  0  0
    1.6258  -10.4873   30.9154 C   0  0  0  0  0  0  0  0  0  0  0  0
    1.0081  -10.4331   32.3042 C   0  0  0  0  0  0  0  0  0  0  0  0
    0.4304   -4.2391   25.8934 C   0  0  1  0  0  0  0  0  0  0  0  0
    0.4914  -11.7378   32.7728 N   0  0  0  0  0  0  0  0  0  0  0  0
   -0.1932   -3.0700   26.3880 O   0  0  0  0  0  0  0  0  0  0  0  0
    4.2412   -7.2219   27.4210 C   0  0  2  0  0  0  0  0  0  0  0  0
    4.9055   -6.1440   26.6950 N   0  0  0  0  0  0  0  0  0  0  0  0
   -0.3919  -13.3134   34.4958 C   0  0  0  0  0  0  0  0  0  0  0  0
    0.9769  -13.9963   34.8148 N   0  0  0  0  0  0  0  0  0  0  0  0
   -0.2617  -11.8251   34.0559 C   0  0  0  0  0  0  0  0  0  0  0  0
    4.2903   -6.5526   31.8042 O   0  0  0  0  0  0  0  0  0  0  0  0
    0.1542   -4.4088   24.3958 C   0  0  2  0  0  0  0  0  0  0  0  0
   -1.2398   -4.4602   24.1390 O   0  0  0  0  0  0  0  0  0  0  0  0
    2.8099   -6.8275   27.6874 C   0  0  2  0  0  0  0  0  0  0  0  0
    0.8486   -5.6986   23.8713 C   0  0  2  0  0  0  0  0  0  0  0  0
    2.2691   -5.6625   24.1214 O   0  0  0  0  0  0  0  0  0  0  0  0
    2.0655   -7.9777   28.4922 C   0  0  2  0  0  0  0  0  0  0  0  0
    0.6856   -7.5649   28.7260 O   0  0  0  0  0  0  0  0  0  0  0  0
    0.6342   -5.8912   22.4173 C   0  0  0  0  0  0  0  0  0  0  0  0
    1.7252   -6.4755   21.8751 N   0  0  0  0  0  0  0  0  0  0  0  0
    2.8069   -8.2032   29.8556 C   0  0  1  0  0  0  0  0  0  0  0  0
    2.1609   -9.1877   30.5981 O   0  0  0  0  0  0  0  0  0  0  0  0
  1  2  1  1  0  0  0
  1  5  1  0  0  0  0
  1 29  1  0  0  0  0
  3  4  1  1  0  0  0
  3  7  1  0  0  0  0
  3 34  1  0  0  0  0
  5  6  1  1  0  0  0
  5 16  1  0  0  0  0
  7 19  1  0  0  0  0
  8  4  1  0  0  0  0
  8 24  2  0  0  0  0
  9  8  1  6  0  0  0
  9 10  1  0  0  0  0
  9 13  1  0  0  0  0
 10 11  1  0  0  0  0
 11 12  1  0  0  0  0
 14 15  1  0  0  0  0
 14 35  1  0  0  0  0
 15 17  1  0  0  0  0
 16 18  1  6  0  0  0
 16 25  1  0  0  0  0
 19 20  1  1  0  0  0
 19 27  1  0  0  0  0
 21 22  1  0  0  0  0
 21 23  1  0  0  0  0
 23 17  1  0  0  0  0
 25 26  1  1  0  0  0
 25 28  1  0  0  0  0
 27  2  1  6  0  0  0
 27 30  1  0  0  0  0
 28 29  1  0  0  0  0
 28 32  1  6  0  0  0
 30 31  1  1  0  0  0
 30 34  1  0  0  0  0
 32 33  2  0  0  0  0
 34 35  1  1  0  0  0
M  END
>  <CHROM.1>
-81.62895194,69.30291770,169.74140123,-67.61380250,-60.73570800,-176.69712468
178.90248323,-174.03664747,63.90591756,-166.31000585,-63.31521047,146.53989974
-59.36428395,2.60168885,-7.47711956,29.07586806,-1.79464644,0.51385118,2.20856266

>  <Name>
2f4t_lig

>  <RI>
0

>  <Rbt.Current_Directory>
/home/itssahil/PROJECTS/Mol_Feturizer/New_Systems/rnas/2f4t

>  <Rbt.Executable>
rbdock ($Id: //depot/dev/client3/rdock/2013.1/src/exe/rbdock.cxx#4 $)

>  <Rbt.Library>
libRbt.so (2013.1, Build901 2013/11/27)

>  <Rbt.Parameter_File>
/export/apps/rDock/src/rDock_2013.1_src/data/scripts/dock_solv.prm

>  <Rbt.Receptor>
prm/pocket_docking_5.prm

>  <SCORE>
-14.9936

>  <SCORE.INTER>
-10.5841

>  <SCORE.INTER.CONST>
1

>  <SCORE.INTER.POLAR>
-1.60171

>  <SCORE.INTER.ROT>
13

>  <SCORE.INTER.SOLV>
14.1831

>  <SCORE.INTER.VDW>
-18.7114

>  <SCORE.INTER.norm>
-0.302402

>  <SCORE.INTRA>
-4.40956

>  <SCORE.INTRA.DIHEDRAL>
-19.1012

>  <SCORE.INTRA.DIHEDRAL.0>
23.8882

>  <SCORE.INTRA.POLAR>
0

>  <SCORE.INTRA.POLAR.0>
0

>  <SCORE.INTRA.REPUL>
0

>  <SCORE.INTRA.REPUL.0>
0

>  <SCORE.INTRA.SOLV>
5.87353

>  <SCORE.INTRA.SOLV.lig_0>
-97.6888

>  <SCORE.INTRA.VDW>
2.20428

>  <SCORE.INTRA.VDW.0>
-3.9206

>  <SCORE.INTRA.norm>
-0.125987

>  <SCORE.RESTR>
0

>  <SCORE.RESTR.CAVITY>
0

>  <SCORE.RESTR.norm>
0

>  <SCORE.SYSTEM>
0

>  <SCORE.SYSTEM.CONST>
0

>  <SCORE.SYSTEM.DIHEDRAL>
0

>  <SCORE.SYSTEM.SOLV>
0

>  <SCORE.SYSTEM.norm>
0

>  <SCORE.heavy>
35

>  <SCORE.norm>
-0.428389

>  <RMSD>
5.156

$$$$
2f4t_lig
 OpenBabel11021811433D
libRbt.so/2013.1/901 2013/11/27
 35 36  0  0  0  0  0  0  0  0999 V2000
    4.3941   -5.4751   30.0203 C   0  0  2  0  0  0  0  0  0  0  0  0
    3.7944   -6.8015   29.8519 O   0  0  0  0  0  0  0  0  0  0  0  0
    4.0951  -10.4965   32.0686 C   0  0  2  0  0  0  0  0  0  0  0  0
    4.6640  -11.7354   32.6201 N   0  0  0  0  0  0  0  0  0  0  0  0
    3.5576   -4.5128   29.1237 C   0  0  2  0  0  0  0  0  0  0  0  0
    2.1601   -4.5670   29.4834 N   0  0  0  0  0  0  0  0  0  0  0  0
    4.3140  -10.4733   30.5113 C   0  0  0  0  0  0  0  0  0  0  0  0
    3.6163  -13.0981   32.2152 C   0  0  0  0  0  0  0  0  0  0  0  0
    4.6221  -13.9527   32.9543 C   0  0  1  0  0  0  0  0  0  0  0  0
    3.9086  -15.2355   33.3868 C   0  0  0  0  0  0  0  0  0  0  0  0
    4.5039  -15.9473   34.6133 C   0  0  0  0  0  0  0  0  0  0  0  0
    5.8611  -16.3887   34.2785 N   0  0  0  0  0  0  0  0  0  0  0  0
    5.6592  -14.3589   32.1002 O   0  0  0  0  0  0  0  0  0  0  0  0
    3.9096   -9.3203   35.3206 C   0  0  0  0  0  0  0  0  0  0  0  0
    3.1579  -10.6389   35.4190 C   0  0  0  0  0  0  0  0  0  0  0  0
    3.7534   -4.8784   27.6136 C   0  0  1  0  0  0  0  0  0  0  0  0
    2.3727  -10.7802   36.6648 N   0  0  0  0  0  0  0  0  0  0  0  0
    3.0056   -4.0130   26.7816 O   0  0  0  0  0  0  0  0  0  0  0  0
    3.7501   -9.1962   29.8730 C   0  0  2  0  0  0  0  0  0  0  0  0
    4.0011   -9.1792   28.4353 N   0  0  0  0  0  0  0  0  0  0  0  0
   -0.0006  -11.5026   36.3869 C   0  0  0  0  0  0  0  0  0  0  0  0
   -0.1538  -11.3199   34.8425 N   0  0  0  0  0  0  0  0  0  0  0  0
    1.4320  -11.9246   36.8284 C   0  0  0  0  0  0  0  0  0  0  0  0
    2.6970  -13.2043   31.6834 O   0  0  0  0  0  0  0  0  0  0  0  0
    5.2483   -4.7826   27.2915 C   0  0  2  0  0  0  0  0  0  0  0  0
    5.4952   -5.0908   25.9292 O   0  0  0  0  0  0  0  0  0  0  0  0
    4.3771   -7.9746   30.4971 C   0  0  2  0  0  0  0  0  0  0  0  0
    6.0527   -5.7404   28.2169 C   0  0  2  0  0  0  0  0  0  0  0  0
    5.8161   -5.4395   29.6080 O   0  0  0  0  0  0  0  0  0  0  0  0
    4.1330   -7.9752   32.0673 C   0  0  2  0  0  0  0  0  0  0  0  0
    4.7465   -6.7791   32.6348 O   0  0  0  0  0  0  0  0  0  0  0  0
    7.5108   -5.6618   27.9626 C   0  0  0  0  0  0  0  0  0  0  0  0
    7.9676   -6.8755   27.5834 N   0  0  0  0  0  0  0  0  0  0  0  0
    4.7811   -9.2650   32.6801 C   0  0  1  0  0  0  0  0  0  0  0  0
    4.6086   -9.2812   34.0613 O   0  0  0  0  0  0  0  0  0  0  0  0
  1  2  1  6  0  0  0
  1  5  1  0  0  0  0
  1 29  1  0  0  0  0
  3  4  1  1  0  0  0
  3  7  1  0  0  0  0
  3 34  1  0  0  0  0
  5  6  1  1  0  0  0
  5 16  1  0  0  0  0
  7 19  1  0  0  0  0
  8  4  1  0  0  0  0
  8 24  2  0  0  0  0
  9  8  1  6  0  0  0
  9 10  1  0  0  0  0
  9 13  1  0  0  0  0
 10 11  1  0  0  0  0
 11 12  1  0  0  0  0
 14 15  1  0  0  0  0
 14 35  1  0  0  0  0
 15 17  1  0  0  0  0
 16 18  1  6  0  0  0
 16 25  1  0  0  0  0
 19 20  1  6  0  0  0
 19 27  1  0  0  0  0
 21 22  1  0  0  0  0
 21 23  1  0  0  0  0
 23 17  1  0  0  0  0
 25 26  1  6  0  0  0
 25 28  1  0  0  0  0
 27  2  1  6  0  0  0
 27 30  1  0  0  0  0
 28 29  1  0  0  0  0
 28 32  1  6  0  0  0
 30 31  1  1  0  0  0
 30 34  1  0  0  0  0
 32 33  2  0  0  0  0
 34 35  1  1  0  0  0
M  END
>  <CHROM.1>
176.57342454,-74.11425207,157.71070028,-154.83981663,-63.59283869,-178.67559656
62.91236503,171.42174857,71.46348456,-93.70975808,-166.56346539,-119.92711807
-56.06432938,4.10858490,-9.24428761,31.47018617,1.33702094,0.88460660,-0.49481645

>  <Name>
2f4t_lig

>  <RI>
0

>  <Rbt.Current_Directory>
/home/itssahil/PROJECTS/Mol_Feturizer/New_Systems/rnas/2f4t

>  <Rbt.Executable>
rbdock ($Id: //depot/dev/client3/rdock/2013.1/src/exe/rbdock.cxx#4 $)

>  <Rbt.Library>
libRbt.so (2013.1, Build901 2013/11/27)

>  <Rbt.Parameter_File>
/export/apps/rDock/src/rDock_2013.1_src/data/scripts/dock_solv.prm

>  <Rbt.Receptor>
prm/pocket_docking_6.prm

>  <SCORE>
-12.4497

>  <SCORE.INTER>
-4.23115

>  <SCORE.INTER.CONST>
1

>  <SCORE.INTER.POLAR>
-2.72467

>  <SCORE.INTER.ROT>
13

>  <SCORE.INTER.SOLV>
11.307

>  <SCORE.INTER.VDW>
-9.77419

>  <SCORE.INTER.norm>
-0.12089

>  <SCORE.INTRA>
-8.21858

>  <SCORE.INTRA.DIHEDRAL>
-17.3728

>  <SCORE.INTRA.DIHEDRAL.0>
23.8882

>  <SCORE.INTRA.POLAR>
0

>  <SCORE.INTRA.POLAR.0>
0

>  <SCORE.INTRA.REPUL>
0

>  <SCORE.INTRA.REPUL.0>
0

>  <SCORE.INTRA.SOLV>
2.34884

>  <SCORE.INTRA.SOLV.lig_0>
-97.6888

>  <SCORE.INTRA.VDW>
-0.706617

>  <SCORE.INTRA.VDW.0>
-3.9206

>  <SCORE.INTRA.norm>
-0.234816

>  <SCORE.RESTR>
0

>  <SCORE.RESTR.CAVITY>
0

>  <SCORE.RESTR.norm>
0

>  <SCORE.SYSTEM>
0

>  <SCORE.SYSTEM.CONST>
0

>  <SCORE.SYSTEM.DIHEDRAL>
0

>  <SCORE.SYSTEM.SOLV>
0

>  <SCORE.SYSTEM.norm>
0

>  <SCORE.heavy>
35

>  <SCORE.norm>
-0.355706

>  <RMSD>
5.244

$$$$
2f4t_lig
 OpenBabel11021811433D
libRbt.so/2013.1/901 2013/11/27
 35 36  0  0  0  0  0  0  0  0999 V2000
    4.9501   -6.3724   27.1781 C   0  0  2  0  0  0  0  0  0  0  0  0
    4.6072   -5.8914   28.5192 O   0  0  0  0  0  0  0  0  0  0  0  0
    3.8012   -9.6050   30.5727 C   0  0  2  0  0  0  0  0  0  0  0  0
    3.5084  -10.5457   31.6645 N   0  0  0  0  0  0  0  0  0  0  0  0
    5.4944   -5.1318   26.4073 C   0  0  2  0  0  0  0  0  0  0  0  0
    6.6071   -4.5411   27.1132 N   0  0  0  0  0  0  0  0  0  0  0  0
    5.0399   -8.7203   30.9682 C   0  0  0  0  0  0  0  0  0  0  0  0
    4.3728  -12.0605   31.3870 C   0  0  0  0  0  0  0  0  0  0  0  0
    3.7477  -12.5300   32.6820 C   0  0  1  0  0  0  0  0  0  0  0  0
    4.1576  -13.9896   32.8898 C   0  0  0  0  0  0  0  0  0  0  0  0
    3.4903  -14.7061   34.0758 C   0  0  0  0  0  0  0  0  0  0  0  0
    2.0445  -14.7484   33.8368 N   0  0  0  0  0  0  0  0  0  0  0  0
    4.2709  -11.8241   33.7766 O   0  0  0  0  0  0  0  0  0  0  0  0
    0.1178   -9.7548   29.6638 C   0  0  0  0  0  0  0  0  0  0  0  0
   -0.7398   -9.4421   30.8805 C   0  0  0  0  0  0  0  0  0  0  0  0
    4.3509   -4.0817   26.2021 C   0  0  1  0  0  0  0  0  0  0  0  0
   -2.1617   -9.8147   30.7131 N   0  0  0  0  0  0  0  0  0  0  0  0
    4.8233   -2.9488   25.4995 O   0  0  0  0  0  0  0  0  0  0  0  0
    5.3924   -7.7060   29.8712 C   0  0  2  0  0  0  0  0  0  0  0  0
    6.5179   -6.8705   30.2779 N   0  0  0  0  0  0  0  0  0  0  0  0
   -2.8654  -11.7030   32.1864 C   0  0  0  0  0  0  0  0  0  0  0  0
   -4.0077  -10.8881   32.8741 N   0  0  0  0  0  0  0  0  0  0  0  0
   -2.5639  -11.2497   30.7272 C   0  0  0  0  0  0  0  0  0  0  0  0
    5.0283  -12.4204   30.6254 O   0  0  0  0  0  0  0  0  0  0  0  0
    3.2138   -4.7618   25.4325 C   0  0  2  0  0  0  0  0  0  0  0  0
    2.1455   -3.8579   25.2008 O   0  0  0  0  0  0  0  0  0  0  0  0
    4.2071   -6.8232   29.5697 C   0  0  2  0  0  0  0  0  0  0  0  0
    2.7091   -6.0048   26.2207 C   0  0  2  0  0  0  0  0  0  0  0  0
    3.7827   -6.9376   26.4631 O   0  0  0  0  0  0  0  0  0  0  0  0
    2.9601   -7.7088   29.1390 C   0  0  2  0  0  0  0  0  0  0  0  0
    1.8370   -6.8231   28.8501 O   0  0  0  0  0  0  0  0  0  0  0  0
    1.6257   -6.7152   25.5006 C   0  0  0  0  0  0  0  0  0  0  0  0
    1.9971   -6.9204   24.2178 N   0  0  0  0  0  0  0  0  0  0  0  0
    2.6000   -8.6822   30.3146 C   0  0  1  0  0  0  0  0  0  0  0  0
    1.4913   -9.4540   29.9786 O   0  0  0  0  0  0  0  0  0  0  0  0
  1  2  1  1  0  0  0
  1  5  1  0  0  0  0
  1 29  1  0  0  0  0
  3  4  1  1  0  0  0
  3  7  1  0  0  0  0
  3 34  1  0  0  0  0
  5  6  1  1  0  0  0
  5 16  1  0  0  0  0
  7 19  1  0  0  0  0
  8  4  1  0  0  0  0
  8 24  2  0  0  0  0
  9  8  1  6  0  0  0
  9 10  1  0  0  0  0
  9 13  1  0  0  0  0
 10 11  1  0  0  0  0
 11 12  1  0  0  0  0
 14 15  1  0  0  0  0
 14 35  1  0  0  0  0
 15 17  1  0  0  0  0
 16 18  1  6  0  0  0
 16 25  1  0  0  0  0
 19 20  1  1  0  0  0
 19 27  1  0  0  0  0
 21 22  1  0  0  0  0
 21 23  1  0  0  0  0
 23 17  1  0  0  0  0
 25 26  1  1  0  0  0
 25 28  1  0  0  0  0
 27  2  1  6  0  0  0
 27 30  1  0  0  0  0
 28 29  1  0  0  0  0
 28 32  1  6  0  0  0
 30 31  1  1  0  0  0
 30 34  1  0  0  0  0
 32 33  2  0  0  0  0
 34 35  1  6  0  0  0
M  END
>  <CHROM.1>
-172.87034244,-91.68097454,176.43149080,-173.25955279,62.46510296,-175.35957765
-64.07766051,72.52318459,59.41405289,88.75841338,64.83061529,49.03904441
173.61417107,2.80847686,-8.62117056,29.46517630,-1.30262236,0.07290319,2.41689089

>  <Name>
2f4t_lig

>  <RI>
0

>  <Rbt.Current_Directory>
/home/itssahil/PROJECTS/Mol_Feturizer/New_Systems/rnas/2f4t

>  <Rbt.Executable>
rbdock ($Id: //depot/dev/client3/rdock/2013.1/src/exe/rbdock.cxx#4 $)

>  <Rbt.Library>
libRbt.so (2013.1, Build901 2013/11/27)

>  <Rbt.Parameter_File>
/export/apps/rDock/src/rDock_2013.1_src/data/scripts/dock_solv.prm

>  <Rbt.Receptor>
prm/pocket_docking_8.prm

>  <SCORE>
-15.1157

>  <SCORE.INTER>
-7.97245

>  <SCORE.INTER.CONST>
1

>  <SCORE.INTER.POLAR>
-2.0197

>  <SCORE.INTER.ROT>
13

>  <SCORE.INTER.SOLV>
8.96077

>  <SCORE.INTER.VDW>
-13.8362

>  <SCORE.INTER.norm>
-0.227784

>  <SCORE.INTRA>
-7.14324

>  <SCORE.INTRA.DIHEDRAL>
-19.0722

>  <SCORE.INTRA.DIHEDRAL.0>
23.8882

>  <SCORE.INTRA.POLAR>
0

>  <SCORE.INTRA.POLAR.0>
0

>  <SCORE.INTRA.REPUL>
0

>  <SCORE.INTRA.REPUL.0>
0

>  <SCORE.INTRA.SOLV>
2.8127

>  <SCORE.INTRA.SOLV.lig_0>
-97.6888

>  <SCORE.INTRA.VDW>
0.986508

>  <SCORE.INTRA.VDW.0>
-3.9206

>  <SCORE.INTRA.norm>
-0.204093

>  <SCORE.RESTR>
0

>  <SCORE.RESTR.CAVITY>
0

>  <SCORE.RESTR.norm>
0

>  <SCORE.SYSTEM>
0

>  <SCORE.SYSTEM.CONST>
0

>  <SCORE.SYSTEM.DIHEDRAL>
0

>  <SCORE.SYSTEM.SOLV>
0

>  <SCORE.SYSTEM.norm>
0

>  <SCORE.heavy>
35

>  <SCORE.norm>
-0.431877

>  <RMSD>
5.255

$$$$
2f4t_lig
 OpenBabel11021811433D
libRbt.so/2013.1/901 2013/11/27
 35 36  0  0  0  0  0  0  0  0999 V2000
    5.4798   -3.9942   25.6670 C   0  0  2  0  0  0  0  0  0  0  0  0
    4.6766   -4.5034   26.7819 O   0  0  0  0  0  0  0  0  0  0  0  0
    2.8794   -8.2216   28.0476 C   0  0  2  0  0  0  0  0  0  0  0  0
    2.5933   -9.6619   28.1282 N   0  0  0  0  0  0  0  0  0  0  0  0
    6.9664   -4.2382   26.0671 C   0  0  2  0  0  0  0  0  0  0  0  0
    7.1940   -5.6350   26.3548 N   0  0  0  0  0  0  0  0  0  0  0  0
    2.7980   -7.7596   26.5464 C   0  0  0  0  0  0  0  0  0  0  0  0
    1.5981   -9.9879   29.5502 C   0  0  0  0  0  0  0  0  0  0  0  0
    1.6401  -11.4360   29.1149 C   0  0  1  0  0  0  0  0  0  0  0  0
    2.9213  -12.0514   29.6823 C   0  0  0  0  0  0  0  0  0  0  0  0
    3.0574  -13.5745   29.5183 C   0  0  0  0  0  0  0  0  0  0  0  0
    4.3780  -13.9768   30.0116 N   0  0  0  0  0  0  0  0  0  0  0  0
    0.5810  -12.1615   29.6826 O   0  0  0  0  0  0  0  0  0  0  0  0
    4.9969   -8.6480   31.1685 C   0  0  0  0  0  0  0  0  0  0  0  0
    3.9085   -9.0247   32.1620 C   0  0  0  0  0  0  0  0  0  0  0  0
    7.3437   -3.3519   27.3017 C   0  0  1  0  0  0  0  0  0  0  0  0
    4.3690   -9.9492   33.2211 N   0  0  0  0  0  0  0  0  0  0  0  0
    8.6917   -3.5551   27.6784 O   0  0  0  0  0  0  0  0  0  0  0  0
    3.0982   -6.2622   26.3914 C   0  0  2  0  0  0  0  0  0  0  0  0
    3.0567   -5.8664   24.9872 N   0  0  0  0  0  0  0  0  0  0  0  0
    3.2761  -12.0632   33.9746 C   0  0  0  0  0  0  0  0  0  0  0  0
    4.5618  -12.8512   34.3843 N   0  0  0  0  0  0  0  0  0  0  0  0
    3.3905  -10.5246   34.1869 C   0  0  0  0  0  0  0  0  0  0  0  0
    1.1849   -9.3867   30.3293 O   0  0  0  0  0  0  0  0  0  0  0  0
    7.1005   -1.8863   26.9265 C   0  0  2  0  0  0  0  0  0  0  0  0
    7.4359   -1.0243   28.0018 O   0  0  0  0  0  0  0  0  0  0  0  0
    4.4589   -5.9368   26.9550 C   0  0  2  0  0  0  0  0  0  0  0  0
    5.6137   -1.6839   26.5149 C   0  0  2  0  0  0  0  0  0  0  0  0
    5.2550   -2.5514   25.4192 O   0  0  0  0  0  0  0  0  0  0  0  0
    4.5381   -6.3725   28.4811 C   0  0  2  0  0  0  0  0  0  0  0  0
    5.8629   -6.0378   28.9931 O   0  0  0  0  0  0  0  0  0  0  0  0
    5.3352   -0.2844   26.1141 C   0  0  0  0  0  0  0  0  0  0  0  0
    4.3659    0.2259   26.9051 N   0  0  0  0  0  0  0  0  0  0  0  0
    4.2883   -7.9175   28.5802 C   0  0  1  0  0  0  0  0  0  0  0  0
    4.3793   -8.3363   29.9046 O   0  0  0  0  0  0  0  0  0  0  0  0
  1  2  1  1  0  0  0
  1  5  1  0  0  0  0
  1 29  1  0  0  0  0
  3  4  1  6  0  0  0
  3  7  1  0  0  0  0
  3 34  1  0  0  0  0
  5  6  1  1  0  0  0
  5 16  1  0  0  0  0
  7 19  1  0  0  0  0
  8  4  1  0  0  0  0
  8 24  2  0  0  0  0
  9  8  1  1  0  0  0
  9 10  1  0  0  0  0
  9 13  1  0  0  0  0
 10 11  1  0  0  0  0
 11 12  1  0  0  0  0
 14 15  1  0  0  0  0
 14 35  1  0  0  0  0
 15 17  1  0  0  0  0
 16 18  1  6  0  0  0
 16 25  1  0  0  0  0
 19 20  1  6  0  0  0
 19 27  1  0  0  0  0
 21 22  1  0  0  0  0
 21 23  1  0  0  0  0
 23 17  1  0  0  0  0
 25 26  1  1  0  0  0
 25 28  1  0  0  0  0
 27  2  1  1  0  0  0
 27 30  1  0  0  0  0
 28 29  1  0  0  0  0
 28 32  1  6  0  0  0
 30 31  1  6  0  0  0
 30 34  1  0  0  0  0
 32 33  2  0  0  0  0
 34 35  1  1  0  0  0
M  END
>  <CHROM.1>
-77.25998562,-140.17641770,85.31123282,171.78363634,175.38054202,152.28233564
175.18757525,-173.61783266,68.68372343,113.61755294,-99.15567828,-121.36674842
170.85875559,4.39015890,-7.15584879,28.70064075,1.12701477,-0.84833947,-0.82318906

>  <Name>
2f4t_lig

>  <RI>
0

>  <Rbt.Current_Directory>
/home/itssahil/PROJECTS/Mol_Feturizer/New_Systems/rnas/2f4t

>  <Rbt.Executable>
rbdock ($Id: //depot/dev/client3/rdock/2013.1/src/exe/rbdock.cxx#4 $)

>  <Rbt.Library>
libRbt.so (2013.1, Build901 2013/11/27)

>  <Rbt.Parameter_File>
/export/apps/rDock/src/rDock_2013.1_src/data/scripts/dock_solv.prm

>  <Rbt.Receptor>
prm/pocket_docking_8.prm

>  <SCORE>
-17.0607

>  <SCORE.INTER>
-12.9768

>  <SCORE.INTER.CONST>
1

>  <SCORE.INTER.POLAR>
-3.48891

>  <SCORE.INTER.ROT>
13

>  <SCORE.INTER.SOLV>
19.8389

>  <SCORE.INTER.VDW>
-15.9012

>  <SCORE.INTER.norm>
-0.370766

>  <SCORE.INTRA>
-4.0839

>  <SCORE.INTRA.DIHEDRAL>
-9.3863

>  <SCORE.INTRA.DIHEDRAL.0>
23.8882

>  <SCORE.INTRA.POLAR>
0

>  <SCORE.INTRA.POLAR.0>
0

>  <SCORE.INTRA.REPUL>
0

>  <SCORE.INTRA.REPUL.0>
0

>  <SCORE.INTRA.SOLV>
3.59417

>  <SCORE.INTRA.SOLV.lig_0>
-97.6888

>  <SCORE.INTRA.VDW>
-1.18783

>  <SCORE.INTRA.VDW.0>
-3.9206

>  <SCORE.INTRA.norm>
-0.116683

>  <SCORE.RESTR>
0

>  <SCORE.RESTR.CAVITY>
0

>  <SCORE.RESTR.norm>
0

>  <SCORE.SYSTEM>
0

>  <SCORE.SYSTEM.CONST>
0

>  <SCORE.SYSTEM.DIHEDRAL>
0

>  <SCORE.SYSTEM.SOLV>
0

>  <SCORE.SYSTEM.norm>
0

>  <SCORE.heavy>
35

>  <SCORE.norm>
-0.487449

>  <RMSD>
5.359

$$$$
2f4t_lig
 OpenBabel11021811433D
libRbt.so/2013.1/901 2013/11/27
 35 36  0  0  0  0  0  0  0  0999 V2000
    2.2476   -5.5429   25.3967 C   0  0  2  0  0  0  0  0  0  0  0  0
    1.7659   -6.7269   26.1132 O   0  0  0  0  0  0  0  0  0  0  0  0
    4.2009   -9.1985   28.6860 C   0  0  2  0  0  0  0  0  0  0  0  0
    4.9846   -9.6258   29.8547 N   0  0  0  0  0  0  0  0  0  0  0  0
    1.1521   -4.4517   25.5929 C   0  0  2  0  0  0  0  0  0  0  0  0
    0.9092   -4.2201   26.9975 N   0  0  0  0  0  0  0  0  0  0  0  0
    4.7120   -7.7910   28.2050 C   0  0  0  0  0  0  0  0  0  0  0  0
    4.6963   -8.5156   31.1975 C   0  0  0  0  0  0  0  0  0  0  0  0
    5.6465   -9.3906   31.9846 C   0  0  1  0  0  0  0  0  0  0  0  0
    6.8065   -8.5086   32.4518 C   0  0  0  0  0  0  0  0  0  0  0  0
    7.7528   -8.0121   31.3457 C   0  0  0  0  0  0  0  0  0  0  0  0
    7.0628   -6.9696   30.5801 N   0  0  0  0  0  0  0  0  0  0  0  0
    5.0347   -9.8717   33.1527 O   0  0  0  0  0  0  0  0  0  0  0  0
    1.3189  -11.2952   29.9987 C   0  0  0  0  0  0  0  0  0  0  0  0
    1.9919  -12.6593   29.9944 C   0  0  0  0  0  0  0  0  0  0  0  0
   -0.1685   -4.8786   24.8676 C   0  0  1  0  0  0  0  0  0  0  0  0
    1.1525  -13.7344   30.5671 N   0  0  0  0  0  0  0  0  0  0  0  0
   -1.1753   -3.8986   25.0295 O   0  0  0  0  0  0  0  0  0  0  0  0
    3.9250   -7.2811   26.9896 C   0  0  2  0  0  0  0  0  0  0  0  0
    4.3898   -5.9573   26.5876 N   0  0  0  0  0  0  0  0  0  0  0  0
    0.9177  -15.3850   32.4250 C   0  0  0  0  0  0  0  0  0  0  0  0
    0.7817  -15.6374   33.9612 N   0  0  0  0  0  0  0  0  0  0  0  0
    1.0308  -13.8789   32.0456 C   0  0  0  0  0  0  0  0  0  0  0  0
    4.1040   -7.6376   31.3297 O   0  0  0  0  0  0  0  0  0  0  0  0
    0.1508   -5.0879   23.3837 C   0  0  2  0  0  0  0  0  0  0  0  0
   -1.0106   -5.4659   22.6625 O   0  0  0  0  0  0  0  0  0  0  0  0
    2.4523   -7.2106   27.3078 C   0  0  2  0  0  0  0  0  0  0  0  0
    1.2599   -6.1679   23.2270 C   0  0  2  0  0  0  0  0  0  0  0  0
    2.4512   -5.7985   23.9522 O   0  0  0  0  0  0  0  0  0  0  0  0
    1.9218   -8.6370   27.7648 C   0  0  2  0  0  0  0  0  0  0  0  0
    0.4962   -8.5320   28.0577 O   0  0  0  0  0  0  0  0  0  0  0  0
    1.6250   -6.3854   21.8071 C   0  0  0  0  0  0  0  0  0  0  0  0
    1.1012   -7.5561   21.3819 N   0  0  0  0  0  0  0  0  0  0  0  0
    2.7109   -9.0848   29.0439 C   0  0  1  0  0  0  0  0  0  0  0  0
    2.2489  -10.3210   29.4867 O   0  0  0  0  0  0  0  0  0  0  0  0
  1  2  1  1  0  0  0
  1  5  1  0  0  0  0
  1 29  1  0  0  0  0
  3  4  1  1  0  0  0
  3  7  1  0  0  0  0
  3 34  1  0  0  0  0
  5  6  1  1  0  0  0
  5 16  1  0  0  0  0
  7 19  1  0  0  0  0
  8  4  1  0  0  0  0
  8 24  2  0  0  0  0
  9  8  1  1  0  0  0
  9 10  1  0  0  0  0
  9 13  1  0  0  0  0
 10 11  1  0  0  0  0
 11 12  1  0  0  0  0
 14 15  1  0  0  0  0
 14 35  1  0  0  0  0
 15 17  1  0  0  0  0
 16 18  1  6  0  0  0
 16 25  1  0  0  0  0
 19 20  1  1  0  0  0
 19 27  1  0  0  0  0
 21 22  1  0  0  0  0
 21 23  1  0  0  0  0
 23 17  1  0  0  0  0
 25 26  1  6  0  0  0
 25 28  1  0  0  0  0
 27  2  1  6  0  0  0
 27 30  1  0  0  0  0
 28 29  1  0  0  0  0
 28 32  1  6  0  0  0
 30 31  1  1  0  0  0
 30 34  1  0  0  0  0
 32 33  2  0  0  0  0
 34 35  1  6  0  0  0
M  END
>  <CHROM.1>
-112.74538579,64.18457583,121.15396547,-69.21164200,73.50083921,177.02429770
174.34057983,-78.94617441,-179.84236173,-145.12643418,-48.58415569,-105.39757863
178.41331190,2.56206740,-8.32280291,28.10837448,-1.86408577,0.61358726,2.41329718

>  <Name>
2f4t_lig

>  <RI>
0

>  <Rbt.Current_Directory>
/home/itssahil/PROJECTS/Mol_Feturizer/New_Systems/rnas/2f4t

>  <Rbt.Executable>
rbdock ($Id: //depot/dev/client3/rdock/2013.1/src/exe/rbdock.cxx#4 $)

>  <Rbt.Library>
libRbt.so (2013.1, Build901 2013/11/27)

>  <Rbt.Parameter_File>
/export/apps/rDock/src/rDock_2013.1_src/data/scripts/dock_solv.prm

>  <Rbt.Receptor>
prm/pocket_docking_4.prm

>  <SCORE>
-17.0254

>  <SCORE.INTER>
-17.2194

>  <SCORE.INTER.CONST>
1

>  <SCORE.INTER.POLAR>
-1.5851

>  <SCORE.INTER.ROT>
13

>  <SCORE.INTER.SOLV>
13.3725

>  <SCORE.INTER.VDW>
-22.9201

>  <SCORE.INTER.norm>
-0.491981

>  <SCORE.INTRA>
0.193922

>  <SCORE.INTRA.DIHEDRAL>
-10.7615

>  <SCORE.INTRA.DIHEDRAL.0>
23.8882

>  <SCORE.INTRA.POLAR>
0

>  <SCORE.INTRA.POLAR.0>
0

>  <SCORE.INTRA.REPUL>
0

>  <SCORE.INTRA.REPUL.0>
0

>  <SCORE.INTRA.SOLV>
6.16349

>  <SCORE.INTRA.SOLV.lig_0>
-97.6888

>  <SCORE.INTRA.VDW>
2.49293

>  <SCORE.INTRA.VDW.0>
-3.9206

>  <SCORE.INTRA.norm>
0.00554061

>  <SCORE.RESTR>
0

>  <SCORE.RESTR.CAVITY>
0

>  <SCORE.RESTR.norm>
0

>  <SCORE.SYSTEM>
0

>  <SCORE.SYSTEM.CONST>
0

>  <SCORE.SYSTEM.DIHEDRAL>
0

>  <SCORE.SYSTEM.SOLV>
0

>  <SCORE.SYSTEM.norm>
0

>  <SCORE.heavy>
35

>  <SCORE.norm>
-0.486441

>  <RMSD>
5.371

$$$$
2f4t_lig
 OpenBabel11021811433D
libRbt.so/2013.1/901 2013/11/27
 35 36  0  0  0  0  0  0  0  0999 V2000
    2.2431   -5.5690   26.2951 C   0  0  2  0  0  0  0  0  0  0  0  0
    1.4351   -6.4456   27.1472 O   0  0  0  0  0  0  0  0  0  0  0  0
    2.5887  -10.1240   29.0954 C   0  0  2  0  0  0  0  0  0  0  0  0
    3.3130  -11.0551   29.9736 N   0  0  0  0  0  0  0  0  0  0  0  0
    1.6125   -4.1495   26.4256 C   0  0  2  0  0  0  0  0  0  0  0  0
    1.5707   -3.7356   27.8085 N   0  0  0  0  0  0  0  0  0  0  0  0
    3.6237   -9.3121   28.2334 C   0  0  0  0  0  0  0  0  0  0  0  0
    2.5492  -12.6460   29.9062 C   0  0  0  0  0  0  0  0  0  0  0  0
    3.6218  -13.0836   30.8789 C   0  0  1  0  0  0  0  0  0  0  0  0
    3.1302  -14.3605   31.5644 C   0  0  0  0  0  0  0  0  0  0  0  0
    3.8165  -14.7077   32.8961 C   0  0  0  0  0  0  0  0  0  0  0  0
    5.1995  -15.1039   32.6144 N   0  0  0  0  0  0  0  0  0  0  0  0
    4.7985  -13.4396   30.2014 O   0  0  0  0  0  0  0  0  0  0  0  0
   -0.1128  -10.8622   31.0470 C   0  0  0  0  0  0  0  0  0  0  0  0
   -1.3206  -10.7233   30.1330 C   0  0  0  0  0  0  0  0  0  0  0  0
    0.1757   -4.1398   25.8030 C   0  0  1  0  0  0  0  0  0  0  0  0
   -2.4207  -11.6563   30.4612 N   0  0  0  0  0  0  0  0  0  0  0  0
   -0.4130   -2.8580   25.9069 O   0  0  0  0  0  0  0  0  0  0  0  0
    2.9300   -8.3108   27.2993 C   0  0  2  0  0  0  0  0  0  0  0  0
    3.9115   -7.5419   26.5405 N   0  0  0  0  0  0  0  0  0  0  0  0
   -2.8725  -14.0513   29.9211 C   0  0  0  0  0  0  0  0  0  0  0  0
   -2.4305  -15.5401   30.0940 N   0  0  0  0  0  0  0  0  0  0  0  0
   -2.1157  -13.0611   30.8549 C   0  0  0  0  0  0  0  0  0  0  0  0
    1.7081  -13.0520   29.3896 O   0  0  0  0  0  0  0  0  0  0  0  0
    0.2908   -4.5662   24.3358 C   0  0  2  0  0  0  0  0  0  0  0  0
   -0.9800   -4.5667   23.7057 O   0  0  0  0  0  0  0  0  0  0  0  0
    2.0669   -7.3616   28.0925 C   0  0  2  0  0  0  0  0  0  0  0  0
    0.9409   -5.9768   24.2429 C   0  0  2  0  0  0  0  0  0  0  0  0
    2.2369   -5.9946   24.8766 O   0  0  0  0  0  0  0  0  0  0  0  0
    0.9977   -8.1736   28.9424 C   0  0  2  0  0  0  0  0  0  0  0  0
    0.1790   -7.2250   29.6900 O   0  0  0  0  0  0  0  0  0  0  0  0
    1.1007   -6.4220   22.8382 C   0  0  0  0  0  0  0  0  0  0  0  0
    2.3153   -6.0447   22.3820 N   0  0  0  0  0  0  0  0  0  0  0  0
    1.7548   -9.1343   29.9239 C   0  0  1  0  0  0  0  0  0  0  0  0
    0.8442   -9.8410   30.7043 O   0  0  0  0  0  0  0  0  0  0  0  0
  1  2  1  1  0  0  0
  1  5  1  0  0  0  0
  1 29  1  0  0  0  0
  3  4  1  1  0  0  0
  3  7  1  0  0  0  0
  3 34  1  0  0  0  0
  5  6  1  1  0  0  0
  5 16  1  0  0  0  0
  7 19  1  0  0  0  0
  8  4  1  0  0  0  0
  8 24  2  0  0  0  0
  9  8  1  6  0  0  0
  9 10  1  0  0  0  0
  9 13  1  0  0  0  0
 10 11  1  0  0  0  0
 11 12  1  0  0  0  0
 14 15  1  0  0  0  0
 14 35  1  0  0  0  0
 15 17  1  0  0  0  0
 16 18  1  6  0  0  0
 16 25  1  0  0  0  0
 19 20  1  1  0  0  0
 19 27  1  0  0  0  0
 21 22  1  0  0  0  0
 21 23  1  0  0  0  0
 23 17  1  0  0  0  0
 25 26  1  1  0  0  0
 25 28  1  0  0  0  0
 27  2  1  6  0  0  0
 27 30  1  0  0  0  0
 28 29  1  0  0  0  0
 28 32  1  6  0  0  0
 30 31  1  1  0  0  0
 30 34  1  0  0  0  0
 32 33  2  0  0  0  0
 34 35  1  6  0  0  0
M  END
>  <CHROM.1>
-131.95750559,-134.03530974,160.19008408,-160.07720893,-69.44836324,-175.50927359
-63.02869661,-40.03791537,170.11993707,-124.29496914,-60.75500574,91.18344972
-38.94718274,1.36219353,-9.15956923,28.29794868,-1.63295163,0.00209024,2.53929790

>  <Name>
2f4t_lig

>  <RI>
0

>  <Rbt.Current_Directory>
/home/itssahil/PROJECTS/Mol_Feturizer/New_Systems/rnas/2f4t

>  <Rbt.Executable>
rbdock ($Id: //depot/dev/client3/rdock/2013.1/src/exe/rbdock.cxx#4 $)

>  <Rbt.Library>
libRbt.so (2013.1, Build901 2013/11/27)

>  <Rbt.Parameter_File>
/export/apps/rDock/src/rDock_2013.1_src/data/scripts/dock_solv.prm

>  <Rbt.Receptor>
prm/pocket_docking_7.prm

>  <SCORE>
-18.0171

>  <SCORE.INTER>
-17.7083

>  <SCORE.INTER.CONST>
1

>  <SCORE.INTER.POLAR>
-1.9568

>  <SCORE.INTER.ROT>
13

>  <SCORE.INTER.SOLV>
18.7282

>  <SCORE.INTER.VDW>
-23.7922

>  <SCORE.INTER.norm>
-0.50595

>  <SCORE.INTRA>
-0.39548

>  <SCORE.INTRA.DIHEDRAL>
-8.21403

>  <SCORE.INTRA.DIHEDRAL.0>
23.8882

>  <SCORE.INTRA.POLAR>
0

>  <SCORE.INTRA.POLAR.0>
0

>  <SCORE.INTRA.REPUL>
0

>  <SCORE.INTRA.REPUL.0>
0

>  <SCORE.INTRA.SOLV>
2.9559

>  <SCORE.INTRA.SOLV.lig_0>
-97.6888

>  <SCORE.INTRA.VDW>
2.23359

>  <SCORE.INTRA.VDW.0>
-3.9206

>  <SCORE.INTRA.norm>
-0.0112994

>  <SCORE.RESTR>
0.0866466

>  <SCORE.RESTR.CAVITY>
0.0866466

>  <SCORE.RESTR.norm>
0.00247562

>  <SCORE.SYSTEM>
0

>  <SCORE.SYSTEM.CONST>
0

>  <SCORE.SYSTEM.DIHEDRAL>
0

>  <SCORE.SYSTEM.SOLV>
0

>  <SCORE.SYSTEM.norm>
0

>  <SCORE.heavy>
35

>  <SCORE.norm>
-0.514774

>  <RMSD>
5.390

$$$$
2f4t_lig
 OpenBabel11021811433D
libRbt.so/2013.1/901 2013/11/27
 35 36  0  0  0  0  0  0  0  0999 V2000
    3.1118   -5.9566   26.5704 C   0  0  2  0  0  0  0  0  0  0  0  0
    3.5446   -6.1226   27.9605 O   0  0  0  0  0  0  0  0  0  0  0  0
    2.8906   -9.4008   30.6960 C   0  0  2  0  0  0  0  0  0  0  0  0
    2.2272  -10.2678   31.6813 N   0  0  0  0  0  0  0  0  0  0  0  0
    4.0222   -4.8421   25.9714 C   0  0  2  0  0  0  0  0  0  0  0  0
    5.4159   -5.1953   26.1063 N   0  0  0  0  0  0  0  0  0  0  0  0
    2.8436   -7.9118   31.2001 C   0  0  0  0  0  0  0  0  0  0  0  0
    3.3518  -10.6432   32.9901 C   0  0  0  0  0  0  0  0  0  0  0  0
    2.2171  -11.4423   33.5918 C   0  0  1  0  0  0  0  0  0  0  0  0
    2.7979  -12.2824   34.7315 C   0  0  0  0  0  0  0  0  0  0  0  0
    1.8141  -13.2457   35.4166 C   0  0  0  0  0  0  0  0  0  0  0  0
    2.5316  -13.9661   36.4727 N   0  0  0  0  0  0  0  0  0  0  0  0
    1.2663  -10.5962   34.1838 O   0  0  0  0  0  0  0  0  0  0  0  0
    2.0175  -11.9050   27.9795 C   0  0  0  0  0  0  0  0  0  0  0  0
    2.2282  -13.2015   28.7464 C   0  0  0  0  0  0  0  0  0  0  0  0
    3.7293   -3.4732   26.6735 C   0  0  1  0  0  0  0  0  0  0  0  0
    1.2564  -13.4041   29.8433 N   0  0  0  0  0  0  0  0  0  0  0  0
    4.5426   -2.4461   26.1406 O   0  0  0  0  0  0  0  0  0  0  0  0
    3.5127   -6.9503   30.2079 C   0  0  2  0  0  0  0  0  0  0  0  0
    3.4205   -5.5715   30.6778 N   0  0  0  0  0  0  0  0  0  0  0  0
    1.5419  -15.7387   30.6799 C   0  0  0  0  0  0  0  0  0  0  0  0
    1.9146  -16.6816   31.8689 N   0  0  0  0  0  0  0  0  0  0  0  0
    1.6310  -14.2239   31.0304 C   0  0  0  0  0  0  0  0  0  0  0  0
    4.3663  -10.3883   33.2024 O   0  0  0  0  0  0  0  0  0  0  0  0
    2.2452   -3.1465   26.4772 C   0  0  2  0  0  0  0  0  0  0  0  0
    1.9138   -1.9067   27.0812 O   0  0  0  0  0  0  0  0  0  0  0  0
    2.8593   -7.0536   28.8524 C   0  0  2  0  0  0  0  0  0  0  0  0
    1.3683   -4.2876   27.0687 C   0  0  2  0  0  0  0  0  0  0  0  0
    1.6897   -5.5572   26.4634 O   0  0  0  0  0  0  0  0  0  0  0  0
    2.9308   -8.5500   28.3226 C   0  0  2  0  0  0  0  0  0  0  0  0
    2.2961   -8.6104   27.0101 O   0  0  0  0  0  0  0  0  0  0  0  0
   -0.0788   -4.0307   26.8767 C   0  0  0  0  0  0  0  0  0  0  0  0
   -0.3384   -3.8809   25.5592 N   0  0  0  0  0  0  0  0  0  0  0  0
    2.1803   -9.4824   29.3359 C   0  0  1  0  0  0  0  0  0  0  0  0
    2.2007  -10.7992   28.8849 O   0  0  0  0  0  0  0  0  0  0  0  0
  1  2  1  1  0  0  0
  1  5  1  0  0  0  0
  1 29  1  0  0  0  0
  3  4  1  1  0  0  0
  3  7  1  0  0  0  0
  3 34  1  0  0  0  0
  5  6  1  1  0  0  0
  5 16  1  0  0  0  0
  7 19  1  0  0  0  0
  8  4  1  0  0  0  0
  8 24  2  0  0  0  0
  9  8  1  1  0  0  0
  9 10  1  0  0  0  0
  9 13  1  0  0  0  0
 10 11  1  0  0  0  0
 11 12  1  0  0  0  0
 14 15  1  0  0  0  0
 14 35  1  0  0  0  0
 15 17  1  0  0  0  0
 16 18  1  6  0  0  0
 16 25  1  0  0  0  0
 19 20  1  1  0  0  0
 19 27  1  0  0  0  0
 21 22  1  0  0  0  0
 21 23  1  0  0  0  0
 23 17  1  0  0  0  0
 25 26  1  1  0  0  0
 25 28  1  0  0  0  0
 27  2  1  6  0  0  0
 27 30  1  0  0  0  0
 28 29  1  0  0  0  0
 28 32  1  6  0  0  0
 30 31  1  6  0  0  0
 30 34  1  0  0  0  0
 32 33  2  0  0  0  0
 34 35  1  6  0  0  0
M  END
>  <CHROM.1>
177.10617931,-81.74851702,168.38163718,-176.01579570,179.89783870,62.20254319
-169.99763558,-152.70408946,-179.84981113,-78.15048124,-178.05094858,57.62826555
-172.49353594,2.50075973,-8.65361650,29.60799162,1.36937079,-1.35358835,-0.78715370

>  <Name>
2f4t_lig

>  <RI>
0

>  <Rbt.Current_Directory>
/home/itssahil/PROJECTS/Mol_Feturizer/New_Systems/rnas/2f4t

>  <Rbt.Executable>
rbdock ($Id: //depot/dev/client3/rdock/2013.1/src/exe/rbdock.cxx#4 $)

>  <Rbt.Library>
libRbt.so (2013.1, Build901 2013/11/27)

>  <Rbt.Parameter_File>
/export/apps/rDock/src/rDock_2013.1_src/data/scripts/dock_solv.prm

>  <Rbt.Receptor>
prm/pocket_docking_7.prm

>  <SCORE>
-14.8869

>  <SCORE.INTER>
-5.2433

>  <SCORE.INTER.CONST>
1

>  <SCORE.INTER.POLAR>
-0.8

>  <SCORE.INTER.ROT>
13

>  <SCORE.INTER.SOLV>
9.27529

>  <SCORE.INTER.VDW>
-16.1873

>  <SCORE.INTER.norm>
-0.149809

>  <SCORE.INTRA>
-9.64356

>  <SCORE.INTRA.DIHEDRAL>
-19.0686

>  <SCORE.INTRA.DIHEDRAL.0>
23.8882

>  <SCORE.INTRA.POLAR>
0

>  <SCORE.INTRA.POLAR.0>
0

>  <SCORE.INTRA.REPUL>
0

>  <SCORE.INTRA.REPUL.0>
0

>  <SCORE.INTRA.SOLV>
-0.50037

>  <SCORE.INTRA.SOLV.lig_0>
-97.6888

>  <SCORE.INTRA.VDW>
0.140943

>  <SCORE.INTRA.VDW.0>
-3.9206

>  <SCORE.INTRA.norm>
-0.27553

>  <SCORE.RESTR>
0

>  <SCORE.RESTR.CAVITY>
0

>  <SCORE.RESTR.norm>
0

>  <SCORE.SYSTEM>
0

>  <SCORE.SYSTEM.CONST>
0

>  <SCORE.SYSTEM.DIHEDRAL>
0

>  <SCORE.SYSTEM.SOLV>
0

>  <SCORE.SYSTEM.norm>
0

>  <SCORE.heavy>
35

>  <SCORE.norm>
-0.425339

>  <RMSD>
5.399

$$$$
2f4t_lig
 OpenBabel11021811433D
libRbt.so/2013.1/901 2013/11/27
 35 36  0  0  0  0  0  0  0  0999 V2000
    2.6919   -2.8610   30.4913 C   0  0  2  0  0  0  0  0  0  0  0  0
    1.4739   -3.6340   30.7487 O   0  0  0  0  0  0  0  0  0  0  0  0
    2.6612   -7.5776   29.4468 C   0  0  2  0  0  0  0  0  0  0  0  0
    2.6869   -9.0426   29.3214 N   0  0  0  0  0  0  0  0  0  0  0  0
    2.3185   -1.3733   30.7686 C   0  0  2  0  0  0  0  0  0  0  0  0
    1.8063   -1.2180   32.1099 N   0  0  0  0  0  0  0  0  0  0  0  0
    2.7066   -7.1862   30.9694 C   0  0  0  0  0  0  0  0  0  0  0  0
    1.1212   -9.7042   29.8008 C   0  0  0  0  0  0  0  0  0  0  0  0
    1.7155  -11.0578   29.4801 C   0  0  1  0  0  0  0  0  0  0  0  0
    0.7667  -12.1220   30.0363 C   0  0  0  0  0  0  0  0  0  0  0  0
    1.4194  -13.4605   30.4203 C   0  0  0  0  0  0  0  0  0  0  0  0
    2.1506  -13.9696   29.2562 N   0  0  0  0  0  0  0  0  0  0  0  0
    1.7607  -11.2701   28.0934 O   0  0  0  0  0  0  0  0  0  0  0  0
    1.7440   -7.4776   26.1135 C   0  0  0  0  0  0  0  0  0  0  0  0
    2.1337   -6.0997   25.6007 C   0  0  0  0  0  0  0  0  0  0  0  0
    1.2703   -0.8766   29.7165 C   0  0  1  0  0  0  0  0  0  0  0  0
    3.3013   -5.5177   26.2983 N   0  0  0  0  0  0  0  0  0  0  0  0
    0.9212    0.4743   29.9479 O   0  0  0  0  0  0  0  0  0  0  0  0
    2.6716   -5.6648   31.1706 C   0  0  2  0  0  0  0  0  0  0  0  0
    2.6736   -5.3281   32.5908 N   0  0  0  0  0  0  0  0  0  0  0  0
    5.6958   -5.3517   26.9840 C   0  0  0  0  0  0  0  0  0  0  0  0
    7.1391   -5.9449   26.9003 N   0  0  0  0  0  0  0  0  0  0  0  0
    4.6286   -6.1915   26.2218 C   0  0  0  0  0  0  0  0  0  0  0  0
    0.2053   -9.2828   30.1511 O   0  0  0  0  0  0  0  0  0  0  0  0
    1.8798   -1.0479   28.3213 C   0  0  2  0  0  0  0  0  0  0  0  0
    0.9826   -0.6029   27.3168 O   0  0  0  0  0  0  0  0  0  0  0  0
    1.4411   -5.0767   30.5265 C   0  0  2  0  0  0  0  0  0  0  0  0
    2.2575   -2.5390   28.0868 C   0  0  2  0  0  0  0  0  0  0  0  0
    3.1729   -3.0085   29.0983 O   0  0  0  0  0  0  0  0  0  0  0  0
    1.4044   -5.4419   28.9804 C   0  0  2  0  0  0  0  0  0  0  0  0
    0.2068   -4.8528   28.3907 O   0  0  0  0  0  0  0  0  0  0  0  0
    2.8794   -2.7509   26.7582 C   0  0  0  0  0  0  0  0  0  0  0  0
    4.1511   -2.2946   26.7786 N   0  0  0  0  0  0  0  0  0  0  0  0
    1.3771   -7.0025   28.8292 C   0  0  1  0  0  0  0  0  0  0  0  0
    1.3162   -7.3552   27.4839 O   0  0  0  0  0  0  0  0  0  0  0  0
  1  2  1  6  0  0  0
  1  5  1  0  0  0  0
  1 29  1  0  0  0  0
  3  4  1  1  0  0  0
  3  7  1  0  0  0  0
  3 34  1  0  0  0  0
  5  6  1  1  0  0  0
  5 16  1  0  0  0  0
  7 19  1  0  0  0  0
  8  4  1  0  0  0  0
  8 24  2  0  0  0  0
  9  8  1  6  0  0  0
  9 10  1  0  0  0  0
  9 13  1  0  0  0  0
 10 11  1  0  0  0  0
 11 12  1  0  0  0  0
 14 15  1  0  0  0  0
 14 35  1  0  0  0  0
 15 17  1  0  0  0  0
 16 18  1  1  0  0  0
 16 25  1  0  0  0  0
 19 20  1  1  0  0  0
 19 27  1  0  0  0  0
 21 22  1  0  0  0  0
 21 23  1  0  0  0  0
 23 17  1  0  0  0  0
 25 26  1  6  0  0  0
 25 28  1  0  0  0  0
 27  2  1  6  0  0  0
 27 30  1  0  0  0  0
 28 29  1  0  0  0  0
 28 32  1  6  0  0  0
 30 31  1  1  0  0  0
 30 34  1  0  0  0  0
 32 33  2  0  0  0  0
 34 35  1  6  0  0  0
M  END
>  <CHROM.1>
177.13328163,73.38421544,167.95169607,-152.45807993,-54.79940865,64.39879587
-53.28077316,62.67901143,-177.18632601,177.57459036,47.54204831,75.29479331
-54.64096263,2.22688587,-5.81007134,28.93327379,1.47879969,1.05857135,0.05848310

>  <Name>
2f4t_lig

>  <RI>
0

>  <Rbt.Current_Directory>
/home/itssahil/PROJECTS/Mol_Feturizer/New_Systems/rnas/2f4t

>  <Rbt.Executable>
rbdock ($Id: //depot/dev/client3/rdock/2013.1/src/exe/rbdock.cxx#4 $)

>  <Rbt.Library>
libRbt.so (2013.1, Build901 2013/11/27)

>  <Rbt.Parameter_File>
/export/apps/rDock/src/rDock_2013.1_src/data/scripts/dock_solv.prm

>  <Rbt.Receptor>
prm/pocket_docking_7.prm

>  <SCORE>
-9.46869

>  <SCORE.INTER>
-2.25796

>  <SCORE.INTER.CONST>
1

>  <SCORE.INTER.POLAR>
-0.802426

>  <SCORE.INTER.ROT>
13

>  <SCORE.INTER.SOLV>
12.7726

>  <SCORE.INTER.VDW>
-15.3547

>  <SCORE.INTER.norm>
-0.064513

>  <SCORE.INTRA>
-7.21073

>  <SCORE.INTRA.DIHEDRAL>
-17.4498

>  <SCORE.INTRA.DIHEDRAL.0>
23.8882

>  <SCORE.INTRA.POLAR>
0

>  <SCORE.INTRA.POLAR.0>
0

>  <SCORE.INTRA.REPUL>
0

>  <SCORE.INTRA.REPUL.0>
0

>  <SCORE.INTRA.SOLV>
5.59831

>  <SCORE.INTRA.SOLV.lig_0>
-97.6888

>  <SCORE.INTRA.VDW>
-1.285

>  <SCORE.INTRA.VDW.0>
-3.9206

>  <SCORE.INTRA.norm>
-0.206021

>  <SCORE.RESTR>
0

>  <SCORE.RESTR.CAVITY>
0

>  <SCORE.RESTR.norm>
0

>  <SCORE.SYSTEM>
0

>  <SCORE.SYSTEM.CONST>
0

>  <SCORE.SYSTEM.DIHEDRAL>
0

>  <SCORE.SYSTEM.SOLV>
0

>  <SCORE.SYSTEM.norm>
0

>  <SCORE.heavy>
35

>  <SCORE.norm>
-0.270534

>  <RMSD>
5.435

$$$$
2f4t_lig
 OpenBabel11021811433D
libRbt.so/2013.1/901 2013/11/27
 35 36  0  0  0  0  0  0  0  0999 V2000
    2.2609   -5.6624   26.4424 C   0  0  2  0  0  0  0  0  0  0  0  0
    1.3686   -6.4715   27.2769 O   0  0  0  0  0  0  0  0  0  0  0  0
    2.1541  -10.4108   28.8651 C   0  0  2  0  0  0  0  0  0  0  0  0
    2.7758  -11.4842   29.6550 N   0  0  0  0  0  0  0  0  0  0  0  0
    1.6722   -4.2193   26.4648 C   0  0  2  0  0  0  0  0  0  0  0  0
    1.5531   -3.7385   27.8213 N   0  0  0  0  0  0  0  0  0  0  0  0
    3.2738   -9.6150   28.0991 C   0  0  0  0  0  0  0  0  0  0  0  0
    2.4992  -13.0376   28.8617 C   0  0  0  0  0  0  0  0  0  0  0  0
    3.2855  -13.6400   30.0050 C   0  0  1  0  0  0  0  0  0  0  0  0
    2.9961  -15.1427   30.0229 C   0  0  0  0  0  0  0  0  0  0  0  0
    1.5849  -15.5434   30.4844 C   0  0  0  0  0  0  0  0  0  0  0  0
    1.5211  -17.0060   30.5609 N   0  0  0  0  0  0  0  0  0  0  0  0
    4.6661  -13.5170   29.7842 O   0  0  0  0  0  0  0  0  0  0  0  0
   -0.1649  -11.1433   31.3229 C   0  0  0  0  0  0  0  0  0  0  0  0
   -0.1147  -12.4761   30.5917 C   0  0  0  0  0  0  0  0  0  0  0  0
    0.2809   -4.1947   25.7464 C   0  0  1  0  0  0  0  0  0  0  0  0
   -1.0883  -13.4668   31.1008 N   0  0  0  0  0  0  0  0  0  0  0  0
   -0.2691   -2.8917   25.7515 O   0  0  0  0  0  0  0  0  0  0  0  0
    2.6899   -8.4693   27.2608 C   0  0  2  0  0  0  0  0  0  0  0  0
    3.7503   -7.7214   26.5926 N   0  0  0  0  0  0  0  0  0  0  0  0
   -3.3559  -12.4644   30.8098 C   0  0  0  0  0  0  0  0  0  0  0  0
   -3.7160  -12.4232   32.3299 N   0  0  0  0  0  0  0  0  0  0  0  0
   -2.4050  -13.6356   30.4232 C   0  0  0  0  0  0  0  0  0  0  0  0
    1.9942  -13.3458   27.9734 O   0  0  0  0  0  0  0  0  0  0  0  0
    0.4782   -4.6944   24.3114 C   0  0  2  0  0  0  0  0  0  0  0  0
   -0.7473   -4.6854   23.5973 O   0  0  0  0  0  0  0  0  0  0  0  0
    1.8983   -7.5282   28.1342 C   0  0  2  0  0  0  0  0  0  0  0  0
    1.0842   -6.1274   24.3274 C   0  0  2  0  0  0  0  0  0  0  0  0
    2.3341   -6.1552   25.0476 O   0  0  0  0  0  0  0  0  0  0  0  0
    0.7448   -8.3199   28.8877 C   0  0  2  0  0  0  0  0  0  0  0  0
   -0.0017   -7.3789   29.7162 O   0  0  0  0  0  0  0  0  0  0  0  0
    1.3214   -6.6441   22.9586 C   0  0  0  0  0  0  0  0  0  0  0  0
    2.4182   -6.0514   22.4376 N   0  0  0  0  0  0  0  0  0  0  0  0
    1.3945   -9.4356   29.7779 C   0  0  1  0  0  0  0  0  0  0  0  0
    0.4097  -10.1304   30.4745 O   0  0  0  0  0  0  0  0  0  0  0  0
  1  2  1  1  0  0  0
  1  5  1  0  0  0  0
  1 29  1  0  0  0  0
  3  4  1  1  0  0  0
  3  7  1  0  0  0  0
  3 34  1  0  0  0  0
  5  6  1  1  0  0  0
  5 16  1  0  0  0  0
  7 19  1  0  0  0  0
  8  4  1  0  0  0  0
  8 24  2  0  0  0  0
  9  8  1  6  0  0  0
  9 10  1  0  0  0  0
  9 13  1  0  0  0  0
 10 11  1  0  0  0  0
 11 12  1  0  0  0  0
 14 15  1  0  0  0  0
 14 35  1  0  0  0  0
 15 17  1  0  0  0  0
 16 18  1  6  0  0  0
 16 25  1  0  0  0  0
 19 20  1  1  0  0  0
 19 27  1  0  0  0  0
 21 22  1  0  0  0  0
 21 23  1  0  0  0  0
 23 17  1  0  0  0  0
 25 26  1  1  0  0  0
 25 28  1  0  0  0  0
 27  2  1  6  0  0  0
 27 30  1  0  0  0  0
 28 29  1  0  0  0  0
 28 32  1  6  0  0  0
 30 31  1  1  0  0  0
 30 34  1  0  0  0  0
 32 33  2  0  0  0  0
 34 35  1  6  0  0  0
M  END
>  <CHROM.1>
-142.88825605,-104.80918803,162.96694253,-71.20080502,-174.78913249,-158.49666028
-69.62488926,96.40778629,-63.87679346,-76.69270916,-55.81637049,75.67926436
54.32596931,1.14400796,-9.38664681,28.11655048,-1.52769996,-0.48794500,2.62122475

>  <Name>
2f4t_lig

>  <RI>
0

>  <Rbt.Current_Directory>
/home/itssahil/PROJECTS/Mol_Feturizer/New_Systems/rnas/2f4t

>  <Rbt.Executable>
rbdock ($Id: //depot/dev/client3/rdock/2013.1/src/exe/rbdock.cxx#4 $)

>  <Rbt.Library>
libRbt.so (2013.1, Build901 2013/11/27)

>  <Rbt.Parameter_File>
/export/apps/rDock/src/rDock_2013.1_src/data/scripts/dock_solv.prm

>  <Rbt.Receptor>
prm/pocket_docking_7.prm

>  <SCORE>
-21.9647

>  <SCORE.INTER>
-20.0727

>  <SCORE.INTER.CONST>
1

>  <SCORE.INTER.POLAR>
-1.84295

>  <SCORE.INTER.ROT>
13

>  <SCORE.INTER.SOLV>
16.5822

>  <SCORE.INTER.VDW>
-25.0327

>  <SCORE.INTER.norm>
-0.573507

>  <SCORE.INTRA>
-1.90025

>  <SCORE.INTRA.DIHEDRAL>
-11.2326

>  <SCORE.INTRA.DIHEDRAL.0>
23.8882

>  <SCORE.INTRA.POLAR>
0

>  <SCORE.INTRA.POLAR.0>
0

>  <SCORE.INTRA.REPUL>
0

>  <SCORE.INTRA.REPUL.0>
0

>  <SCORE.INTRA.SOLV>
4.34529

>  <SCORE.INTRA.SOLV.lig_0>
-97.6888

>  <SCORE.INTRA.VDW>
1.54341

>  <SCORE.INTRA.VDW.0>
-3.9206

>  <SCORE.INTRA.norm>
-0.0542928

>  <SCORE.RESTR>
0.00830778

>  <SCORE.RESTR.CAVITY>
0.00830778

>  <SCORE.RESTR.norm>
0.000237365

>  <SCORE.SYSTEM>
0

>  <SCORE.SYSTEM.CONST>
0

>  <SCORE.SYSTEM.DIHEDRAL>
0

>  <SCORE.SYSTEM.SOLV>
0

>  <SCORE.SYSTEM.norm>
0

>  <SCORE.heavy>
35

>  <SCORE.norm>
-0.627562

>  <RMSD>
5.437

$$$$
2f4t_lig
 OpenBabel11021811433D
libRbt.so/2013.1/901 2013/11/27
 35 36  0  0  0  0  0  0  0  0999 V2000
    2.1222   -5.1557   24.5516 C   0  0  2  0  0  0  0  0  0  0  0  0
    1.9512   -6.2641   25.4948 O   0  0  0  0  0  0  0  0  0  0  0  0
    4.7964   -7.8407   28.3367 C   0  0  2  0  0  0  0  0  0  0  0  0
    5.7265   -7.8990   29.4743 N   0  0  0  0  0  0  0  0  0  0  0  0
    1.6835   -3.8720   25.3192 C   0  0  2  0  0  0  0  0  0  0  0  0
    2.4461   -3.7203   26.5361 N   0  0  0  0  0  0  0  0  0  0  0  0
    5.1657   -6.6121   27.4269 C   0  0  0  0  0  0  0  0  0  0  0  0
    5.6062   -6.4080   30.4129 C   0  0  0  0  0  0  0  0  0  0  0  0
    6.6553   -7.0182   31.3158 C   0  0  1  0  0  0  0  0  0  0  0  0
    7.3818   -5.8705   32.0207 C   0  0  0  0  0  0  0  0  0  0  0  0
    8.5475   -6.2825   32.9353 C   0  0  0  0  0  0  0  0  0  0  0  0
    7.9949   -6.9565   34.1141 N   0  0  0  0  0  0  0  0  0  0  0  0
    6.0599   -7.7792   32.3339 O   0  0  0  0  0  0  0  0  0  0  0  0
    2.6080  -10.0830   29.9994 C   0  0  0  0  0  0  0  0  0  0  0  0
    3.3115  -11.0652   29.0754 C   0  0  0  0  0  0  0  0  0  0  0  0
    0.1502   -3.9301   25.6324 C   0  0  1  0  0  0  0  0  0  0  0  0
    2.9604  -12.4783   29.3369 N   0  0  0  0  0  0  0  0  0  0  0  0
   -0.2697   -2.7709   26.3254 O   0  0  0  0  0  0  0  0  0  0  0  0
    4.2222   -6.4877   26.2224 C   0  0  2  0  0  0  0  0  0  0  0  0
    4.5593   -5.3184   25.4166 N   0  0  0  0  0  0  0  0  0  0  0  0
    3.2501  -14.7346   30.3649 C   0  0  0  0  0  0  0  0  0  0  0  0
    3.7864  -15.5738   31.5691 N   0  0  0  0  0  0  0  0  0  0  0  0
    3.6533  -13.2314   30.4205 C   0  0  0  0  0  0  0  0  0  0  0  0
    5.0302   -5.5135   30.3278 O   0  0  0  0  0  0  0  0  0  0  0  0
   -0.6010   -4.0699   24.3043 C   0  0  2  0  0  0  0  0  0  0  0  0
   -2.0028   -4.1159   24.5160 O   0  0  0  0  0  0  0  0  0  0  0  0
    2.7910   -6.3719   26.6843 C   0  0  2  0  0  0  0  0  0  0  0  0
   -0.1247   -5.3492   23.5576 C   0  0  2  0  0  0  0  0  0  0  0  0
    1.2998   -5.3185   23.3307 O   0  0  0  0  0  0  0  0  0  0  0  0
    2.4009   -7.6260   27.5788 C   0  0  2  0  0  0  0  0  0  0  0  0
    1.0117   -7.4829   28.0014 O   0  0  0  0  0  0  0  0  0  0  0  0
   -0.8034   -5.5128   22.2502 C   0  0  0  0  0  0  0  0  0  0  0  0
   -1.2670   -4.3149   21.8307 N   0  0  0  0  0  0  0  0  0  0  0  0
    3.3497   -7.6727   28.8266 C   0  0  1  0  0  0  0  0  0  0  0  0
    3.0145   -8.7465   29.6466 O   0  0  0  0  0  0  0  0  0  0  0  0
  1  2  1  1  0  0  0
  1  5  1  0  0  0  0
  1 29  1  0  0  0  0
  3  4  1  1  0  0  0
  3  7  1  0  0  0  0
  3 34  1  0  0  0  0
  5  6  1  1  0  0  0
  5 16  1  0  0  0  0
  7 19  1  0  0  0  0
  8  4  1  0  0  0  0
  8 24  2  0  0  0  0
  9  8  1  6  0  0  0
  9 10  1  0  0  0  0
  9 13  1  0  0  0  0
 10 11  1  0  0  0  0
 11 12  1  0  0  0  0
 14 15  1  0  0  0  0
 14 35  1  0  0  0  0
 15 17  1  0  0  0  0
 16 18  1  6  0  0  0
 16 25  1  0  0  0  0
 19 20  1  1  0  0  0
 19 27  1  0  0  0  0
 21 22  1  0  0  0  0
 21 23  1  0  0  0  0
 23 17  1  0  0  0  0
 25 26  1  1  0  0  0
 25 28  1  0  0  0  0
 27  2  1  6  0  0  0
 27 30  1  0  0  0  0
 28 29  1  0  0  0  0
 28 32  1  6  0  0  0
 30 31  1  1  0  0  0
 30 34  1  0  0  0  0
 32 33  2  0  0  0  0
 34 35  1  1  0  0  0
M  END
>  <CHROM.1>
-67.30215305,59.87569158,155.72745246,-176.84836134,-70.17945362,-179.49576023
40.81220970,-82.72579387,-172.82683223,-172.27297852,-60.35812190,22.23305165
-79.53872161,3.07536085,-7.12350192,27.88931325,-2.35838989,0.77545857,2.82355726

>  <Name>
2f4t_lig

>  <RI>
0

>  <Rbt.Current_Directory>
/home/itssahil/PROJECTS/Mol_Feturizer/New_Systems/rnas/2f4t

>  <Rbt.Executable>
rbdock ($Id: //depot/dev/client3/rdock/2013.1/src/exe/rbdock.cxx#4 $)

>  <Rbt.Library>
libRbt.so (2013.1, Build901 2013/11/27)

>  <Rbt.Parameter_File>
/export/apps/rDock/src/rDock_2013.1_src/data/scripts/dock_solv.prm

>  <Rbt.Receptor>
prm/pocket_docking_3.prm

>  <SCORE>
-7.06226

>  <SCORE.INTER>
-5.83579

>  <SCORE.INTER.CONST>
1

>  <SCORE.INTER.POLAR>
-0.0418741

>  <SCORE.INTER.ROT>
13

>  <SCORE.INTER.SOLV>
21.2076

>  <SCORE.INTER.VDW>
-23.0868

>  <SCORE.INTER.norm>
-0.166737

>  <SCORE.INTRA>
-1.23879

>  <SCORE.INTRA.DIHEDRAL>
-16.7435

>  <SCORE.INTRA.DIHEDRAL.0>
23.8882

>  <SCORE.INTRA.POLAR>
0

>  <SCORE.INTRA.POLAR.0>
0

>  <SCORE.INTRA.REPUL>
0

>  <SCORE.INTRA.REPUL.0>
0

>  <SCORE.INTRA.SOLV>
6.43631

>  <SCORE.INTRA.SOLV.lig_0>
-97.6888

>  <SCORE.INTRA.VDW>
3.9148

>  <SCORE.INTRA.VDW.0>
-3.9206

>  <SCORE.INTRA.norm>
-0.0353941

>  <SCORE.RESTR>
0.0123141

>  <SCORE.RESTR.CAVITY>
0.0123141

>  <SCORE.RESTR.norm>
0.000351831

>  <SCORE.SYSTEM>
0

>  <SCORE.SYSTEM.CONST>
0

>  <SCORE.SYSTEM.DIHEDRAL>
0

>  <SCORE.SYSTEM.SOLV>
0

>  <SCORE.SYSTEM.norm>
0

>  <SCORE.heavy>
35

>  <SCORE.norm>
-0.201779

>  <RMSD>
5.441

$$$$
2f4t_lig
 OpenBabel11021811433D
libRbt.so/2013.1/901 2013/11/27
 35 36  0  0  0  0  0  0  0  0999 V2000
    3.3548   -4.8531   25.6190 C   0  0  2  0  0  0  0  0  0  0  0  0
    3.1931   -5.9528   26.5739 O   0  0  0  0  0  0  0  0  0  0  0  0
    5.8837   -7.0770   29.7604 C   0  0  2  0  0  0  0  0  0  0  0  0
    6.6623   -6.9964   31.0054 N   0  0  0  0  0  0  0  0  0  0  0  0
    2.5589   -3.6523   26.2140 C   0  0  2  0  0  0  0  0  0  0  0  0
    3.0275   -3.3389   27.5435 N   0  0  0  0  0  0  0  0  0  0  0  0
    6.1560   -5.7930   28.8940 C   0  0  0  0  0  0  0  0  0  0  0  0
    5.7968   -6.0015   32.1801 C   0  0  0  0  0  0  0  0  0  0  0  0
    6.9545   -6.2841   33.1119 C   0  0  1  0  0  0  0  0  0  0  0  0
    7.6978   -4.9656   33.3375 C   0  0  0  0  0  0  0  0  0  0  0  0
    6.8698   -3.8343   33.9697 C   0  0  0  0  0  0  0  0  0  0  0  0
    7.7299   -2.6559   34.1132 N   0  0  0  0  0  0  0  0  0  0  0  0
    6.4948   -6.6874   34.3753 O   0  0  0  0  0  0  0  0  0  0  0  0
    4.0743   -9.6746   31.2026 C   0  0  0  0  0  0  0  0  0  0  0  0
    3.7540   -9.7852   32.6854 C   0  0  0  0  0  0  0  0  0  0  0  0
    1.0272   -3.9778   26.2311 C   0  0  1  0  0  0  0  0  0  0  0  0
    4.1385  -11.0851   33.2779 N   0  0  0  0  0  0  0  0  0  0  0  0
    0.2855   -2.8976   26.7636 O   0  0  0  0  0  0  0  0  0  0  0  0
    5.3619   -5.8099   27.5804 C   0  0  2  0  0  0  0  0  0  0  0  0
    5.5995   -4.5909   26.8137 N   0  0  0  0  0  0  0  0  0  0  0  0
    3.2815  -12.8877   31.7786 C   0  0  0  0  0  0  0  0  0  0  0  0
    4.6894  -13.4640   31.4214 N   0  0  0  0  0  0  0  0  0  0  0  0
    3.2085  -12.2469   33.1961 C   0  0  0  0  0  0  0  0  0  0  0  0
    4.8727   -5.4675   32.1733 O   0  0  0  0  0  0  0  0  0  0  0  0
    0.5895   -4.2798   24.7941 C   0  0  2  0  0  0  0  0  0  0  0  0
   -0.7972   -4.5721   24.7362 O   0  0  0  0  0  0  0  0  0  0  0  0
    3.8850   -5.9364   27.8596 C   0  0  2  0  0  0  0  0  0  0  0  0
    1.4169   -5.4691   24.2266 C   0  0  2  0  0  0  0  0  0  0  0  0
    2.8312   -5.1882   24.2747 O   0  0  0  0  0  0  0  0  0  0  0  0
    3.5985   -7.2488   28.7084 C   0  0  2  0  0  0  0  0  0  0  0  0
    2.1631   -7.3411   28.9536 O   0  0  0  0  0  0  0  0  0  0  0  0
    1.0493   -5.7811   22.8250 C   0  0  0  0  0  0  0  0  0  0  0  0
    2.1364   -6.2385   22.1657 N   0  0  0  0  0  0  0  0  0  0  0  0
    4.3797   -7.1551   30.0650 C   0  0  1  0  0  0  0  0  0  0  0  0
    4.1265   -8.2797   30.8454 O   0  0  0  0  0  0  0  0  0  0  0  0
  1  2  1  1  0  0  0
  1  5  1  0  0  0  0
  1 29  1  0  0  0  0
  3  4  1  1  0  0  0
  3  7  1  0  0  0  0
  3 34  1  0  0  0  0
  5  6  1  1  0  0  0
  5 16  1  0  0  0  0
  7 19  1  0  0  0  0
  8  4  1  0  0  0  0
  8 24  2  0  0  0  0
  9  8  1  6  0  0  0
  9 10  1  0  0  0  0
  9 13  1  0  0  0  0
 10 11  1  0  0  0  0
 11 12  1  0  0  0  0
 14 15  1  0  0  0  0
 14 35  1  0  0  0  0
 15 17  1  0  0  0  0
 16 18  1  6  0  0  0
 16 25  1  0  0  0  0
 19 20  1  1  0  0  0
 19 27  1  0  0  0  0
 21 22  1  0  0  0  0
 21 23  1  0  0  0  0
 23 17  1  0  0  0  0
 25 26  1  1  0  0  0
 25 28  1  0  0  0  0
 27  2  1  6  0  0  0
 27 30  1  0  0  0  0
 28 29  1  0  0  0  0
 28 32  1  6  0  0  0
 30 31  1  1  0  0  0
 30 34  1  0  0  0  0
 32 33  2  0  0  0  0
 34 35  1  1  0  0  0
M  END
>  <CHROM.1>
-72.89383346,82.31047145,112.67704872,60.22680233,179.98319860,-159.34792679
168.71665326,-85.26503387,62.34857122,78.52965732,-56.92642943,147.79659385
-60.69126432,3.91778797,-6.49999707,29.13840059,-2.34663848,0.95622560,2.65786181

>  <Name>
2f4t_lig

>  <RI>
0

>  <Rbt.Current_Directory>
/home/itssahil/PROJECTS/Mol_Feturizer/New_Systems/rnas/2f4t

>  <Rbt.Executable>
rbdock ($Id: //depot/dev/client3/rdock/2013.1/src/exe/rbdock.cxx#4 $)

>  <Rbt.Library>
libRbt.so (2013.1, Build901 2013/11/27)

>  <Rbt.Parameter_File>
/export/apps/rDock/src/rDock_2013.1_src/data/scripts/dock_solv.prm

>  <Rbt.Receptor>
prm/pocket_docking_3.prm

>  <SCORE>
-16.1608

>  <SCORE.INTER>
-15.5677

>  <SCORE.INTER.CONST>
1

>  <SCORE.INTER.POLAR>
-2.79928

>  <SCORE.INTER.ROT>
13

>  <SCORE.INTER.SOLV>
14.4457

>  <SCORE.INTER.VDW>
-18.1295

>  <SCORE.INTER.norm>
-0.444793

>  <SCORE.INTRA>
-0.593093

>  <SCORE.INTRA.DIHEDRAL>
-16.2662

>  <SCORE.INTRA.DIHEDRAL.0>
23.8882

>  <SCORE.INTRA.POLAR>
0

>  <SCORE.INTRA.POLAR.0>
0

>  <SCORE.INTRA.REPUL>
0

>  <SCORE.INTRA.REPUL.0>
0

>  <SCORE.INTRA.SOLV>
6.74918

>  <SCORE.INTRA.SOLV.lig_0>
-97.6888

>  <SCORE.INTRA.VDW>
4.1654

>  <SCORE.INTRA.VDW.0>
-3.9206

>  <SCORE.INTRA.norm>
-0.0169455

>  <SCORE.RESTR>
0

>  <SCORE.RESTR.CAVITY>
0

>  <SCORE.RESTR.norm>
0

>  <SCORE.SYSTEM>
0

>  <SCORE.SYSTEM.CONST>
0

>  <SCORE.SYSTEM.DIHEDRAL>
0

>  <SCORE.SYSTEM.SOLV>
0

>  <SCORE.SYSTEM.norm>
0

>  <SCORE.heavy>
35

>  <SCORE.norm>
-0.461738

>  <RMSD>
5.448

$$$$
2f4t_lig
 OpenBabel11021811433D
libRbt.so/2013.1/901 2013/11/27
 35 36  0  0  0  0  0  0  0  0999 V2000
    1.7537   -7.2421   28.3795 C   0  0  2  0  0  0  0  0  0  0  0  0
    2.7101   -8.3466   28.4910 O   0  0  0  0  0  0  0  0  0  0  0  0
    3.8581  -11.1130   31.6034 C   0  0  2  0  0  0  0  0  0  0  0  0
    4.3795  -11.6149   32.8836 N   0  0  0  0  0  0  0  0  0  0  0  0
    1.4876   -7.0618   26.8543 C   0  0  2  0  0  0  0  0  0  0  0  0
    1.0183   -8.2961   26.2695 N   0  0  0  0  0  0  0  0  0  0  0  0
    4.9178  -10.1497   30.9532 C   0  0  0  0  0  0  0  0  0  0  0  0
    3.7062  -13.2147   33.2093 C   0  0  0  0  0  0  0  0  0  0  0  0
    4.5268  -13.1835   34.4797 C   0  0  1  0  0  0  0  0  0  0  0  0
    3.5975  -12.7596   35.6192 C   0  0  0  0  0  0  0  0  0  0  0  0
    2.9742  -11.3601   35.4843 C   0  0  0  0  0  0  0  0  0  0  0  0
    4.0532  -10.3921   35.2657 N   0  0  0  0  0  0  0  0  0  0  0  0
    4.9835  -14.4680   34.8137 O   0  0  0  0  0  0  0  0  0  0  0  0
    0.3402  -11.5779   32.9575 C   0  0  0  0  0  0  0  0  0  0  0  0
    0.0828  -10.7818   34.2277 C   0  0  0  0  0  0  0  0  0  0  0  0
    2.7892   -6.5704   26.1355 C   0  0  1  0  0  0  0  0  0  0  0  0
   -1.1080  -11.2360   34.9789 N   0  0  0  0  0  0  0  0  0  0  0  0
    2.5676   -6.3959   24.7496 O   0  0  0  0  0  0  0  0  0  0  0  0
    4.4284   -9.5808   29.6141 C   0  0  2  0  0  0  0  0  0  0  0  0
    5.4104   -8.6594   29.0509 N   0  0  0  0  0  0  0  0  0  0  0  0
   -0.1729  -12.1099   37.1221 C   0  0  0  0  0  0  0  0  0  0  0  0
   -0.0617  -11.9575   38.6734 N   0  0  0  0  0  0  0  0  0  0  0  0
   -1.1532  -11.0956   36.4621 C   0  0  0  0  0  0  0  0  0  0  0  0
    3.0278  -13.8604   32.6976 O   0  0  0  0  0  0  0  0  0  0  0  0
    3.2222   -5.2523   26.7857 C   0  0  2  0  0  0  0  0  0  0  0  0
    4.3944   -4.7434   26.1703 O   0  0  0  0  0  0  0  0  0  0  0  0
    3.1194   -8.8542   29.7975 C   0  0  2  0  0  0  0  0  0  0  0  0
    3.4599   -5.4651   28.3086 C   0  0  2  0  0  0  0  0  0  0  0  0
    2.2759   -5.9801   28.9524 O   0  0  0  0  0  0  0  0  0  0  0  0
    2.0343   -9.8306   30.4253 C   0  0  2  0  0  0  0  0  0  0  0  0
    0.7828   -9.0971   30.5823 O   0  0  0  0  0  0  0  0  0  0  0  0
    3.8534   -4.2084   28.9890 C   0  0  0  0  0  0  0  0  0  0  0  0
    5.1847   -4.2194   29.2197 N   0  0  0  0  0  0  0  0  0  0  0  0
    2.5512  -10.3338   31.8178 C   0  0  1  0  0  0  0  0  0  0  0  0
    1.6084  -11.1709   32.4077 O   0  0  0  0  0  0  0  0  0  0  0  0
  1  2  1  6  0  0  0
  1  5  1  0  0  0  0
  1 29  1  0  0  0  0
  3  4  1  1  0  0  0
  3  7  1  0  0  0  0
  3 34  1  0  0  0  0
  5  6  1  6  0  0  0
  5 16  1  0  0  0  0
  7 19  1  0  0  0  0
  8  4  1  0  0  0  0
  8 24  2  0  0  0  0
  9  8  1  6  0  0  0
  9 10  1  0  0  0  0
  9 13  1  0  0  0  0
 10 11  1  0  0  0  0
 11 12  1  0  0  0  0
 14 15  1  0  0  0  0
 14 35  1  0  0  0  0
 15 17  1  0  0  0  0
 16 18  1  6  0  0  0
 16 25  1  0  0  0  0
 19 20  1  1  0  0  0
 19 27  1  0  0  0  0
 21 22  1  0  0  0  0
 21 23  1  0  0  0  0
 23 17  1  0  0  0  0
 25 26  1  6  0  0  0
 25 28  1  0  0  0  0
 27  2  1  6  0  0  0
 27 30  1  0  0  0  0
 28 29  1  0  0  0  0
 28 32  1  1  0  0  0
 30 31  1  1  0  0  0
 30 34  1  0  0  0  0
 32 33  2  0  0  0  0
 34 35  1  6  0  0  0
M  END
>  <CHROM.1>
-175.77647818,-150.93694603,98.41877581,-61.86417798,-53.25151758,-172.49714655
-66.18313342,149.73082925,175.19776046,-71.18146209,-159.28498752,-102.83075390
-178.06114810,2.63529479,-9.49933602,31.26112380,1.43606351,0.38464419,-0.87433269

>  <Name>
2f4t_lig

>  <RI>
0

>  <Rbt.Current_Directory>
/home/itssahil/PROJECTS/Mol_Feturizer/New_Systems/rnas/2f4t

>  <Rbt.Executable>
rbdock ($Id: //depot/dev/client3/rdock/2013.1/src/exe/rbdock.cxx#4 $)

>  <Rbt.Library>
libRbt.so (2013.1, Build901 2013/11/27)

>  <Rbt.Parameter_File>
/export/apps/rDock/src/rDock_2013.1_src/data/scripts/dock_solv.prm

>  <Rbt.Receptor>
prm/pocket_docking_7.prm

>  <SCORE>
-7.80862

>  <SCORE.INTER>
-0.411724

>  <SCORE.INTER.CONST>
1

>  <SCORE.INTER.POLAR>
-2.04558

>  <SCORE.INTER.ROT>
13

>  <SCORE.INTER.SOLV>
12.6069

>  <SCORE.INTER.VDW>
-9.92487

>  <SCORE.INTER.norm>
-0.0117635

>  <SCORE.INTRA>
-7.39689

>  <SCORE.INTRA.DIHEDRAL>
-16.9825

>  <SCORE.INTRA.DIHEDRAL.0>
23.8882

>  <SCORE.INTRA.POLAR>
0

>  <SCORE.INTRA.POLAR.0>
0

>  <SCORE.INTRA.REPUL>
0

>  <SCORE.INTRA.REPUL.0>
0

>  <SCORE.INTRA.SOLV>
5.08835

>  <SCORE.INTRA.SOLV.lig_0>
-97.6888

>  <SCORE.INTRA.VDW>
-1.44982

>  <SCORE.INTRA.VDW.0>
-3.9206

>  <SCORE.INTRA.norm>
-0.21134

>  <SCORE.RESTR>
0

>  <SCORE.RESTR.CAVITY>
0

>  <SCORE.RESTR.norm>
0

>  <SCORE.SYSTEM>
0

>  <SCORE.SYSTEM.CONST>
0

>  <SCORE.SYSTEM.DIHEDRAL>
0

>  <SCORE.SYSTEM.SOLV>
0

>  <SCORE.SYSTEM.norm>
0

>  <SCORE.heavy>
35

>  <SCORE.norm>
-0.223103

>  <RMSD>
5.700

$$$$
2f4t_lig
 OpenBabel11021811433D
libRbt.so/2013.1/901 2013/11/27
 35 36  0  0  0  0  0  0  0  0999 V2000
    4.6847   -7.9102   31.2725 C   0  0  2  0  0  0  0  0  0  0  0  0
    3.8482   -8.8335   30.5011 O   0  0  0  0  0  0  0  0  0  0  0  0
    3.3329  -13.1077   30.8516 C   0  0  2  0  0  0  0  0  0  0  0  0
    3.5926  -14.5479   30.7068 N   0  0  0  0  0  0  0  0  0  0  0  0
    3.9895   -6.5189   31.1696 C   0  0  2  0  0  0  0  0  0  0  0  0
    2.6256   -6.5947   31.6384 N   0  0  0  0  0  0  0  0  0  0  0  0
    3.4147  -12.4211   29.4390 C   0  0  0  0  0  0  0  0  0  0  0  0
    2.1198  -15.3630   30.1726 C   0  0  0  0  0  0  0  0  0  0  0  0
    2.9410  -16.6331   30.1996 C   0  0  1  0  0  0  0  0  0  0  0  0
    1.9670  -17.8132   30.1759 C   0  0  0  0  0  0  0  0  0  0  0  0
    0.9703  -17.8772   31.3455 C   0  0  0  0  0  0  0  0  0  0  0  0
    0.1861  -19.1093   31.2181 N   0  0  0  0  0  0  0  0  0  0  0  0
    3.7182  -16.7528   29.0369 O   0  0  0  0  0  0  0  0  0  0  0  0
    4.5730  -13.2550   34.4325 C   0  0  0  0  0  0  0  0  0  0  0  0
    3.7087  -12.2767   35.2132 C   0  0  0  0  0  0  0  0  0  0  0  0
    4.0373   -6.0016   29.6923 C   0  0  1  0  0  0  0  0  0  0  0  0
    3.9867  -10.8587   34.8958 N   0  0  0  0  0  0  0  0  0  0  0  0
    3.4151   -4.7366   29.5779 O   0  0  0  0  0  0  0  0  0  0  0  0
    3.1627  -10.9091   29.5220 C   0  0  2  0  0  0  0  0  0  0  0  0
    3.2839  -10.2890   28.2064 N   0  0  0  0  0  0  0  0  0  0  0  0
    3.7577   -8.3902   35.1879 C   0  0  0  0  0  0  0  0  0  0  0  0
    3.4812   -7.1956   36.1566 N   0  0  0  0  0  0  0  0  0  0  0  0
    3.5916   -9.7879   35.8543 C   0  0  0  0  0  0  0  0  0  0  0  0
    1.1262  -15.0442   29.9486 O   0  0  0  0  0  0  0  0  0  0  0  0
    5.5062   -5.9241   29.2634 C   0  0  2  0  0  0  0  0  0  0  0  0
    5.6224   -5.4482   27.9323 O   0  0  0  0  0  0  0  0  0  0  0  0
    4.1469  -10.2623   30.4643 C   0  0  2  0  0  0  0  0  0  0  0  0
    6.1723   -7.3239   29.3972 C   0  0  2  0  0  0  0  0  0  0  0  0
    6.0665   -7.8231   30.7467 O   0  0  0  0  0  0  0  0  0  0  0  0
    4.0480  -10.9301   31.9028 C   0  0  2  0  0  0  0  0  0  0  0  0
    5.0076  -10.2767   32.7868 O   0  0  0  0  0  0  0  0  0  0  0  0
    7.6055   -7.2940   29.0204 C   0  0  0  0  0  0  0  0  0  0  0  0
    7.7200   -6.9852   27.7100 N   0  0  0  0  0  0  0  0  0  0  0  0
    4.3753  -12.4584   31.7752 C   0  0  1  0  0  0  0  0  0  0  0  0
    4.3246  -13.0680   33.0256 O   0  0  0  0  0  0  0  0  0  0  0  0
  1  2  1  6  0  0  0
  1  5  1  0  0  0  0
  1 29  1  0  0  0  0
  3  4  1  6  0  0  0
  3  7  1  0  0  0  0
  3 34  1  0  0  0  0
  5  6  1  6  0  0  0
  5 16  1  0  0  0  0
  7 19  1  0  0  0  0
  8  4  1  0  0  0  0
  8 24  2  0  0  0  0
  9  8  1  6  0  0  0
  9 10  1  0  0  0  0
  9 13  1  0  0  0  0
 10 11  1  0  0  0  0
 11 12  1  0  0  0  0
 14 15  1  0  0  0  0
 14 35  1  0  0  0  0
 15 17  1  0  0  0  0
 16 18  1  1  0  0  0
 16 25  1  0  0  0  0
 19 20  1  6  0  0  0
 19 27  1  0  0  0  0
 21 22  1  0  0  0  0
 21 23  1  0  0  0  0
 23 17  1  0  0  0  0
 25 26  1  6  0  0  0
 25 28  1  0  0  0  0
 27  2  1  1  0  0  0
 27 30  1  0  0  0  0
 28 29  1  0  0  0  0
 28 32  1  1  0  0  0
 30 31  1  1  0  0  0
 30 34  1  0  0  0  0
 32 33  2  0  0  0  0
 34 35  1  1  0  0  0
M  END
>  <CHROM.1>
-175.25322355,-81.12485341,163.66946121,-59.68219564,-175.97452261,-60.37882708
74.16623365,-159.39045150,-175.15070968,-169.96916148,-176.40348707,-64.44606058
-166.49461525,3.88926753,-10.85052196,31.15566595,0.32642430,1.27518190,1.16558690

>  <Name>
2f4t_lig

>  <RI>
0

>  <Rbt.Current_Directory>
/home/itssahil/PROJECTS/Mol_Feturizer/New_Systems/rnas/2f4t

>  <Rbt.Executable>
rbdock ($Id: //depot/dev/client3/rdock/2013.1/src/exe/rbdock.cxx#4 $)

>  <Rbt.Library>
libRbt.so (2013.1, Build901 2013/11/27)

>  <Rbt.Parameter_File>
/export/apps/rDock/src/rDock_2013.1_src/data/scripts/dock_solv.prm

>  <Rbt.Receptor>
prm/pocket_docking_7.prm

>  <SCORE>
-14.2047

>  <SCORE.INTER>
-6.7686

>  <SCORE.INTER.CONST>
1

>  <SCORE.INTER.POLAR>
-2.13064

>  <SCORE.INTER.ROT>
13

>  <SCORE.INTER.SOLV>
16.2471

>  <SCORE.INTER.VDW>
-15.0926

>  <SCORE.INTER.norm>
-0.193389

>  <SCORE.INTRA>
-7.44539

>  <SCORE.INTRA.DIHEDRAL>
-18.0922

>  <SCORE.INTRA.DIHEDRAL.0>
23.8882

>  <SCORE.INTRA.POLAR>
0

>  <SCORE.INTRA.POLAR.0>
0

>  <SCORE.INTRA.REPUL>
0

>  <SCORE.INTRA.REPUL.0>
0

>  <SCORE.INTRA.SOLV>
1.41264

>  <SCORE.INTRA.SOLV.lig_0>
-97.6888

>  <SCORE.INTRA.VDW>
0.894382

>  <SCORE.INTRA.VDW.0>
-3.9206

>  <SCORE.INTRA.norm>
-0.212725

>  <SCORE.RESTR>
0.00925067

>  <SCORE.RESTR.CAVITY>
0.00925067

>  <SCORE.RESTR.norm>
0.000264305

>  <SCORE.SYSTEM>
0

>  <SCORE.SYSTEM.CONST>
0

>  <SCORE.SYSTEM.DIHEDRAL>
0

>  <SCORE.SYSTEM.SOLV>
0

>  <SCORE.SYSTEM.norm>
0

>  <SCORE.heavy>
35

>  <SCORE.norm>
-0.40585

>  <RMSD>
5.704

$$$$
2f4t_lig
 OpenBabel11021811433D
libRbt.so/2013.1/901 2013/11/27
 35 36  0  0  0  0  0  0  0  0999 V2000
    2.8319   -6.9762   26.5327 C   0  0  2  0  0  0  0  0  0  0  0  0
    1.6610   -7.5709   27.1827 O   0  0  0  0  0  0  0  0  0  0  0  0
    1.1314  -10.7337   30.0764 C   0  0  2  0  0  0  0  0  0  0  0  0
    1.3565  -11.5757   31.2609 N   0  0  0  0  0  0  0  0  0  0  0  0
    3.2027   -5.7253   27.3855 C   0  0  2  0  0  0  0  0  0  0  0  0
    3.4303   -6.0964   28.7624 N   0  0  0  0  0  0  0  0  0  0  0  0
    2.4777  -10.5943   29.2753 C   0  0  0  0  0  0  0  0  0  0  0  0
    2.4800  -10.7657   32.3566 C   0  0  0  0  0  0  0  0  0  0  0  0
    2.3085  -11.9725   33.2524 C   0  0  1  0  0  0  0  0  0  0  0  0
    3.7058  -12.4795   33.6164 C   0  0  0  0  0  0  0  0  0  0  0  0
    4.5359  -13.0391   32.4490 C   0  0  0  0  0  0  0  0  0  0  0  0
    3.8726  -14.2459   31.9463 N   0  0  0  0  0  0  0  0  0  0  0  0
    1.7013  -11.6142   34.4661 O   0  0  0  0  0  0  0  0  0  0  0  0
   -1.8628   -9.8754   31.5327 C   0  0  0  0  0  0  0  0  0  0  0  0
   -1.8279  -11.3619   31.8528 C   0  0  0  0  0  0  0  0  0  0  0  0
    2.0690   -4.6497   27.2840 C   0  0  1  0  0  0  0  0  0  0  0  0
   -3.1456  -11.9155   32.2345 N   0  0  0  0  0  0  0  0  0  0  0  0
    2.3884   -3.5031   28.0480 O   0  0  0  0  0  0  0  0  0  0  0  0
    2.3129   -9.7151   28.0278 C   0  0  2  0  0  0  0  0  0  0  0  0
    3.5832   -9.5677   27.3244 N   0  0  0  0  0  0  0  0  0  0  0  0
   -3.3812  -14.3928   32.4321 C   0  0  0  0  0  0  0  0  0  0  0  0
   -2.1309  -14.7723   31.5750 N   0  0  0  0  0  0  0  0  0  0  0  0
   -3.2283  -13.0472   33.2010 C   0  0  0  0  0  0  0  0  0  0  0  0
    3.0088   -9.8388   32.3368 O   0  0  0  0  0  0  0  0  0  0  0  0
    1.8912   -4.2848   25.8066 C   0  0  2  0  0  0  0  0  0  0  0  0
    0.8826   -3.3008   25.6442 O   0  0  0  0  0  0  0  0  0  0  0  0
    1.8001   -8.3492   28.4103 C   0  0  2  0  0  0  0  0  0  0  0  0
    1.5415   -5.5584   24.9840 C   0  0  2  0  0  0  0  0  0  0  0  0
    2.5590   -6.5701   25.1348 O   0  0  0  0  0  0  0  0  0  0  0  0
    0.4236   -8.4804   29.1932 C   0  0  2  0  0  0  0  0  0  0  0  0
   -0.0441   -7.1427   29.5408 O   0  0  0  0  0  0  0  0  0  0  0  0
    1.3881   -5.2607   23.5401 C   0  0  0  0  0  0  0  0  0  0  0  0
    2.2313   -6.0400   22.8278 N   0  0  0  0  0  0  0  0  0  0  0  0
    0.6574   -9.3316   30.4893 C   0  0  1  0  0  0  0  0  0  0  0  0
   -0.5264   -9.4414   31.2136 O   0  0  0  0  0  0  0  0  0  0  0  0
  1  2  1  1  0  0  0
  1  5  1  0  0  0  0
  1 29  1  0  0  0  0
  3  4  1  1  0  0  0
  3  7  1  0  0  0  0
  3 34  1  0  0  0  0
  5  6  1  1  0  0  0
  5 16  1  0  0  0  0
  7 19  1  0  0  0  0
  8  4  1  0  0  0  0
  8 24  2  0  0  0  0
  9  8  1  6  0  0  0
  9 10  1  0  0  0  0
  9 13  1  0  0  0  0
 10 11  1  0  0  0  0
 11 12  1  0  0  0  0
 14 15  1  0  0  0  0
 14 35  1  0  0  0  0
 15 17  1  0  0  0  0
 16 18  1  1  0  0  0
 16 25  1  0  0  0  0
 19 20  1  1  0  0  0
 19 27  1  0  0  0  0
 21 22  1  0  0  0  0
 21 23  1  0  0  0  0
 23 17  1  0  0  0  0
 25 26  1  1  0  0  0
 25 28  1  0  0  0  0
 27  2  1  6  0  0  0
 27 30  1  0  0  0  0
 28 29  1  0  0  0  0
 28 32  1  6  0  0  0
 30 31  1  1  0  0  0
 30 34  1  0  0  0  0
 32 33  2  0  0  0  0
 34 35  1  6  0  0  0
M  END
>  <CHROM.1>
-76.34287244,64.74587282,128.94311783,-65.89814466,-65.21354067,178.39213746
68.52646595,-148.58532236,65.79454102,-97.94710925,-77.89479586,123.76073126
-48.07289359,1.28179572,-9.11128189,29.48038761,-1.37816256,0.03603594,2.38400956

>  <Name>
2f4t_lig

>  <RI>
0

>  <Rbt.Current_Directory>
/home/itssahil/PROJECTS/Mol_Feturizer/New_Systems/rnas/2f4t

>  <Rbt.Executable>
rbdock ($Id: //depot/dev/client3/rdock/2013.1/src/exe/rbdock.cxx#4 $)

>  <Rbt.Library>
libRbt.so (2013.1, Build901 2013/11/27)

>  <Rbt.Parameter_File>
/export/apps/rDock/src/rDock_2013.1_src/data/scripts/dock_solv.prm

>  <Rbt.Receptor>
prm/pocket_docking_7.prm

>  <SCORE>
-10.3086

>  <SCORE.INTER>
-7.20873

>  <SCORE.INTER.CONST>
1

>  <SCORE.INTER.POLAR>
-1.47552

>  <SCORE.INTER.ROT>
13

>  <SCORE.INTER.SOLV>
10.6441

>  <SCORE.INTER.VDW>
-15.7021

>  <SCORE.INTER.norm>
-0.205964

>  <SCORE.INTRA>
-3.09984

>  <SCORE.INTRA.DIHEDRAL>
-15.1182

>  <SCORE.INTRA.DIHEDRAL.0>
23.8882

>  <SCORE.INTRA.POLAR>
0

>  <SCORE.INTRA.POLAR.0>
0

>  <SCORE.INTRA.REPUL>
0

>  <SCORE.INTRA.REPUL.0>
0

>  <SCORE.INTRA.SOLV>
6.7364

>  <SCORE.INTRA.SOLV.lig_0>
-97.6888

>  <SCORE.INTRA.VDW>
1.09106

>  <SCORE.INTRA.VDW.0>
-3.9206

>  <SCORE.INTRA.norm>
-0.0885668

>  <SCORE.RESTR>
0

>  <SCORE.RESTR.CAVITY>
0

>  <SCORE.RESTR.norm>
0

>  <SCORE.SYSTEM>
0

>  <SCORE.SYSTEM.CONST>
0

>  <SCORE.SYSTEM.DIHEDRAL>
0

>  <SCORE.SYSTEM.SOLV>
0

>  <SCORE.SYSTEM.norm>
0

>  <SCORE.heavy>
35

>  <SCORE.norm>
-0.294531

>  <RMSD>
5.742

$$$$
2f4t_lig
 OpenBabel11021811433D
libRbt.so/2013.1/901 2013/11/27
 35 36  0  0  0  0  0  0  0  0999 V2000
    1.8210   -6.8340   26.4284 C   0  0  2  0  0  0  0  0  0  0  0  0
    3.2371   -6.4599   26.3841 O   0  0  0  0  0  0  0  0  0  0  0  0
    6.3485   -7.7944   29.0665 C   0  0  2  0  0  0  0  0  0  0  0  0
    7.2652   -7.8209   30.2161 N   0  0  0  0  0  0  0  0  0  0  0  0
    1.2080   -6.3402   25.0830 C   0  0  2  0  0  0  0  0  0  0  0  0
    1.9214   -6.9034   23.9608 N   0  0  0  0  0  0  0  0  0  0  0  0
    6.4437   -6.3931   28.3590 C   0  0  0  0  0  0  0  0  0  0  0  0
    6.6410   -6.7738   31.4939 C   0  0  0  0  0  0  0  0  0  0  0  0
    7.8610   -7.1916   32.2846 C   0  0  1  0  0  0  0  0  0  0  0  0
    8.6193   -5.9193   32.6696 C   0  0  0  0  0  0  0  0  0  0  0  0
    9.0859   -5.0416   31.4962 C   0  0  0  0  0  0  0  0  0  0  0  0
    9.6089   -3.7840   32.0384 N   0  0  0  0  0  0  0  0  0  0  0  0
    7.4908   -7.7995   33.4944 O   0  0  0  0  0  0  0  0  0  0  0  0
    4.8454  -10.6798   30.3254 C   0  0  0  0  0  0  0  0  0  0  0  0
    4.4793  -11.0202   31.7620 C   0  0  0  0  0  0  0  0  0  0  0  0
    1.2320   -4.7755   25.0231 C   0  0  1  0  0  0  0  0  0  0  0  0
    4.2143  -12.4594   31.9793 N   0  0  0  0  0  0  0  0  0  0  0  0
    0.6751   -4.3062   23.8107 O   0  0  0  0  0  0  0  0  0  0  0  0
    5.4998   -6.2958   27.1524 C   0  0  2  0  0  0  0  0  0  0  0  0
    5.5762   -4.9741   26.5379 N   0  0  0  0  0  0  0  0  0  0  0  0
    5.1722  -13.9926   33.7007 C   0  0  0  0  0  0  0  0  0  0  0  0
    5.1159  -15.3089   32.8604 N   0  0  0  0  0  0  0  0  0  0  0  0
    4.0343  -12.9846   33.3625 C   0  0  0  0  0  0  0  0  0  0  0  0
    5.7805   -6.1511   31.5987 O   0  0  0  0  0  0  0  0  0  0  0  0
    0.4441   -4.2419   26.2241 C   0  0  2  0  0  0  0  0  0  0  0  0
    0.4157   -2.8238   26.2235 O   0  0  0  0  0  0  0  0  0  0  0  0
    4.0763   -6.5613   27.5747 C   0  0  2  0  0  0  0  0  0  0  0  0
    1.0713   -4.7697   27.5467 C   0  0  2  0  0  0  0  0  0  0  0  0
    1.1057   -6.2119   27.5664 O   0  0  0  0  0  0  0  0  0  0  0  0
    3.9664   -7.9894   28.2626 C   0  0  2  0  0  0  0  0  0  0  0  0
    2.5781   -8.2138   28.6515 O   0  0  0  0  0  0  0  0  0  0  0  0
    0.3245   -4.3031   28.7389 C   0  0  0  0  0  0  0  0  0  0  0  0
    0.9911   -3.2788   29.3152 N   0  0  0  0  0  0  0  0  0  0  0  0
    4.8984   -8.0172   29.5235 C   0  0  1  0  0  0  0  0  0  0  0  0
    4.8030   -9.2484   30.1661 O   0  0  0  0  0  0  0  0  0  0  0  0
  1  2  1  6  0  0  0
  1  5  1  0  0  0  0
  1 29  1  0  0  0  0
  3  4  1  1  0  0  0
  3  7  1  0  0  0  0
  3 34  1  0  0  0  0
  5  6  1  6  0  0  0
  5 16  1  0  0  0  0
  7 19  1  0  0  0  0
  8  4  1  0  0  0  0
  8 24  2  0  0  0  0
  9  8  1  6  0  0  0
  9 10  1  0  0  0  0
  9 13  1  0  0  0  0
 10 11  1  0  0  0  0
 11 12  1  0  0  0  0
 14 15  1  0  0  0  0
 14 35  1  0  0  0  0
 15 17  1  0  0  0  0
 16 18  1  6  0  0  0
 16 25  1  0  0  0  0
 19 20  1  1  0  0  0
 19 27  1  0  0  0  0
 21 22  1  0  0  0  0
 21 23  1  0  0  0  0
 23 17  1  0  0  0  0
 25 26  1  1  0  0  0
 25 28  1  0  0  0  0
 27  2  1  6  0  0  0
 27 30  1  0  0  0  0
 28 29  1  0  0  0  0
 28 32  1  1  0  0  0
 30 31  1  1  0  0  0
 30 34  1  0  0  0  0
 32 33  2  0  0  0  0
 34 35  1  6  0  0  0
M  END
>  <CHROM.1>
169.42508890,70.85132350,123.22288354,-59.02454802,171.68849155,168.00990258
-179.56791075,171.28747393,-67.08569462,-116.23961022,172.09217217,-101.86115709
-63.52196834,4.23626258,-7.24646740,29.17159637,2.23594544,-0.62971252,-0.43363508

>  <Name>
2f4t_lig

>  <RI>
0

>  <Rbt.Current_Directory>
/home/itssahil/PROJECTS/Mol_Feturizer/New_Systems/rnas/2f4t

>  <Rbt.Executable>
rbdock ($Id: //depot/dev/client3/rdock/2013.1/src/exe/rbdock.cxx#4 $)

>  <Rbt.Library>
libRbt.so (2013.1, Build901 2013/11/27)

>  <Rbt.Parameter_File>
/export/apps/rDock/src/rDock_2013.1_src/data/scripts/dock_solv.prm

>  <Rbt.Receptor>
prm/pocket_docking_4.prm

>  <SCORE>
-14.1447

>  <SCORE.INTER>
-5.97275

>  <SCORE.INTER.CONST>
1

>  <SCORE.INTER.POLAR>
-0.84389

>  <SCORE.INTER.ROT>
13

>  <SCORE.INTER.SOLV>
17.3483

>  <SCORE.INTER.VDW>
-19.2183

>  <SCORE.INTER.norm>
-0.17065

>  <SCORE.INTRA>
-8.17724

>  <SCORE.INTRA.DIHEDRAL>
-17.2466

>  <SCORE.INTRA.DIHEDRAL.0>
23.8882

>  <SCORE.INTRA.POLAR>
0

>  <SCORE.INTRA.POLAR.0>
0

>  <SCORE.INTRA.REPUL>
0

>  <SCORE.INTRA.REPUL.0>
0

>  <SCORE.INTRA.SOLV>
0.144927

>  <SCORE.INTRA.SOLV.lig_0>
-97.6888

>  <SCORE.INTRA.VDW>
0.373579

>  <SCORE.INTRA.VDW.0>
-3.9206

>  <SCORE.INTRA.norm>
-0.233635

>  <SCORE.RESTR>
0.00531908

>  <SCORE.RESTR.CAVITY>
0.00531908

>  <SCORE.RESTR.norm>
0.000151974

>  <SCORE.SYSTEM>
0

>  <SCORE.SYSTEM.CONST>
0

>  <SCORE.SYSTEM.DIHEDRAL>
0

>  <SCORE.SYSTEM.SOLV>
0

>  <SCORE.SYSTEM.norm>
0

>  <SCORE.heavy>
35

>  <SCORE.norm>
-0.404134

>  <RMSD>
5.856

$$$$
2f4t_lig
 OpenBabel11021811433D
libRbt.so/2013.1/901 2013/11/27
 35 36  0  0  0  0  0  0  0  0999 V2000
    3.1374   -4.7651   27.5394 C   0  0  2  0  0  0  0  0  0  0  0  0
    2.4710   -5.2508   28.7506 O   0  0  0  0  0  0  0  0  0  0  0  0
    0.5420   -9.0111   29.6435 C   0  0  2  0  0  0  0  0  0  0  0  0
   -0.4766  -10.0716   29.6645 N   0  0  0  0  0  0  0  0  0  0  0  0
    3.9793   -3.5305   27.9827 C   0  0  2  0  0  0  0  0  0  0  0  0
    4.8925   -3.8902   29.0420 N   0  0  0  0  0  0  0  0  0  0  0  0
   -0.1189   -7.6482   30.0668 C   0  0  0  0  0  0  0  0  0  0  0  0
   -0.8444  -10.5043   31.3367 C   0  0  0  0  0  0  0  0  0  0  0  0
   -1.8270  -11.4944   30.7515 C   0  0  1  0  0  0  0  0  0  0  0  0
   -1.9949  -12.6307   31.7627 C   0  0  0  0  0  0  0  0  0  0  0  0
   -2.8724  -13.8070   31.3028 C   0  0  0  0  0  0  0  0  0  0  0  0
   -2.1997  -14.4769   30.1857 N   0  0  0  0  0  0  0  0  0  0  0  0
   -3.0978  -10.9156   30.6091 O   0  0  0  0  0  0  0  0  0  0  0  0
    2.6059  -11.1857   27.8727 C   0  0  0  0  0  0  0  0  0  0  0  0
    2.4212  -11.9162   29.1939 C   0  0  0  0  0  0  0  0  0  0  0  0
    3.0325   -2.3702   28.4405 C   0  0  1  0  0  0  0  0  0  0  0  0
    3.3869  -13.0177   29.4004 N   0  0  0  0  0  0  0  0  0  0  0  0
    3.7773   -1.2372   28.8429 O   0  0  0  0  0  0  0  0  0  0  0  0
    0.8925   -6.4935   30.0549 C   0  0  2  0  0  0  0  0  0  0  0  0
    0.2473   -5.2337   30.4113 N   0  0  0  0  0  0  0  0  0  0  0  0
    4.0891  -15.4115   29.4914 C   0  0  0  0  0  0  0  0  0  0  0  0
    3.6975  -16.8901   29.8114 N   0  0  0  0  0  0  0  0  0  0  0  0
    2.8983  -14.4128   29.5915 C   0  0  0  0  0  0  0  0  0  0  0  0
   -0.4943  -10.1759   32.2900 O   0  0  0  0  0  0  0  0  0  0  0  0
    2.1066   -2.0227   27.2702 C   0  0  2  0  0  0  0  0  0  0  0  0
    1.2269   -0.9649   27.6151 O   0  0  0  0  0  0  0  0  0  0  0  0
    1.5198   -6.3570   28.6901 C   0  0  2  0  0  0  0  0  0  0  0  0
    1.2975   -3.2810   26.8423 C   0  0  2  0  0  0  0  0  0  0  0  0
    2.1768   -4.3675   26.4846 O   0  0  0  0  0  0  0  0  0  0  0  0
    2.2170   -7.7214   28.2688 C   0  0  2  0  0  0  0  0  0  0  0  0
    2.8165   -7.5504   26.9495 O   0  0  0  0  0  0  0  0  0  0  0  0
    0.4063   -3.0019   25.6913 C   0  0  0  0  0  0  0  0  0  0  0  0
   -0.6764   -3.8077   25.7547 N   0  0  0  0  0  0  0  0  0  0  0  0
    1.1331   -8.8542   28.2338 C   0  0  1  0  0  0  0  0  0  0  0  0
    1.7082  -10.0591   27.8398 O   0  0  0  0  0  0  0  0  0  0  0  0
  1  2  1  1  0  0  0
  1  5  1  0  0  0  0
  1 29  1  0  0  0  0
  3  4  1  6  0  0  0
  3  7  1  0  0  0  0
  3 34  1  0  0  0  0
  5  6  1  1  0  0  0
  5 16  1  0  0  0  0
  7 19  1  0  0  0  0
  8  4  1  0  0  0  0
  8 24  2  0  0  0  0
  9  8  1  1  0  0  0
  9 10  1  0  0  0  0
  9 13  1  0  0  0  0
 10 11  1  0  0  0  0
 11 12  1  0  0  0  0
 14 15  1  0  0  0  0
 14 35  1  0  0  0  0
 15 17  1  0  0  0  0
 16 18  1  6  0  0  0
 16 25  1  0  0  0  0
 19 20  1  6  0  0  0
 19 27  1  0  0  0  0
 21 22  1  0  0  0  0
 21 23  1  0  0  0  0
 23 17  1  0  0  0  0
 25 26  1  1  0  0  0
 25 28  1  0  0  0  0
 27  2  1  1  0  0  0
 27 30  1  0  0  0  0
 28 29  1  0  0  0  0
 28 32  1  6  0  0  0
 30 31  1  6  0  0  0
 30 34  1  0  0  0  0
 32 33  2  0  0  0  0
 34 35  1  1  0  0  0
M  END
>  <CHROM.1>
175.88719690,-74.31765937,153.58708682,-175.13524440,65.76304722,-174.30502760
60.00181071,-120.32413964,174.59323458,168.30816531,-173.02713034,-150.55163899
-61.63438113,1.26317796,-8.11403912,28.95985145,-1.39901560,-0.33421684,2.95455733

>  <Name>
2f4t_lig

>  <RI>
0

>  <Rbt.Current_Directory>
/home/itssahil/PROJECTS/Mol_Feturizer/New_Systems/rnas/2f4t

>  <Rbt.Executable>
rbdock ($Id: //depot/dev/client3/rdock/2013.1/src/exe/rbdock.cxx#4 $)

>  <Rbt.Library>
libRbt.so (2013.1, Build901 2013/11/27)

>  <Rbt.Parameter_File>
/export/apps/rDock/src/rDock_2013.1_src/data/scripts/dock_solv.prm

>  <Rbt.Receptor>
prm/pocket_docking_7.prm

>  <SCORE>
-19.0048

>  <SCORE.INTER>
-9.24303

>  <SCORE.INTER.CONST>
1

>  <SCORE.INTER.POLAR>
0

>  <SCORE.INTER.ROT>
13

>  <SCORE.INTER.SOLV>
13.3555

>  <SCORE.INTER.VDW>
-22.8805

>  <SCORE.INTER.norm>
-0.264087

>  <SCORE.INTRA>
-9.76179

>  <SCORE.INTRA.DIHEDRAL>
-18.7597

>  <SCORE.INTRA.DIHEDRAL.0>
23.8882

>  <SCORE.INTRA.POLAR>
0

>  <SCORE.INTRA.POLAR.0>
0

>  <SCORE.INTRA.REPUL>
0

>  <SCORE.INTRA.REPUL.0>
0

>  <SCORE.INTRA.SOLV>
-0.366964

>  <SCORE.INTRA.SOLV.lig_0>
-97.6888

>  <SCORE.INTRA.VDW>
-0.198436

>  <SCORE.INTRA.VDW.0>
-3.9206

>  <SCORE.INTRA.norm>
-0.278908

>  <SCORE.RESTR>
0

>  <SCORE.RESTR.CAVITY>
0

>  <SCORE.RESTR.norm>
0

>  <SCORE.SYSTEM>
0

>  <SCORE.SYSTEM.CONST>
0

>  <SCORE.SYSTEM.DIHEDRAL>
0

>  <SCORE.SYSTEM.SOLV>
0

>  <SCORE.SYSTEM.norm>
0

>  <SCORE.heavy>
35

>  <SCORE.norm>
-0.542995

>  <RMSD>
5.960

$$$$
2f4t_lig
 OpenBabel11021811433D
libRbt.so/2013.1/901 2013/11/27
 35 36  0  0  0  0  0  0  0  0999 V2000
    3.2897   -5.9170   28.9420 C   0  0  2  0  0  0  0  0  0  0  0  0
    3.0769   -7.3208   28.5797 O   0  0  0  0  0  0  0  0  0  0  0  0
    2.4366  -11.0792   30.6099 C   0  0  2  0  0  0  0  0  0  0  0  0
    2.6250  -12.1888   31.5564 N   0  0  0  0  0  0  0  0  0  0  0  0
    2.2003   -5.1093   28.1735 C   0  0  2  0  0  0  0  0  0  0  0  0
    0.8805   -5.5978   28.4975 N   0  0  0  0  0  0  0  0  0  0  0  0
    3.7989  -10.7802   29.8829 C   0  0  0  0  0  0  0  0  0  0  0  0
    3.7405  -11.6936   32.8329 C   0  0  0  0  0  0  0  0  0  0  0  0
    3.5319  -13.0784   33.4047 C   0  0  1  0  0  0  0  0  0  0  0  0
    4.4947  -13.2411   34.5830 C   0  0  0  0  0  0  0  0  0  0  0  0
    4.5023  -14.6268   35.2501 C   0  0  0  0  0  0  0  0  0  0  0  0
    3.1855  -14.8579   35.8517 N   0  0  0  0  0  0  0  0  0  0  0  0
    2.2417  -13.2105   33.9414 O   0  0  0  0  0  0  0  0  0  0  0  0
   -0.5852  -10.4754   32.1806 C   0  0  0  0  0  0  0  0  0  0  0  0
   -0.7222  -11.9181   31.7188 C   0  0  0  0  0  0  0  0  0  0  0  0
    2.4566   -5.1931   26.6309 C   0  0  1  0  0  0  0  0  0  0  0  0
   -2.1167  -12.4121   31.7287 N   0  0  0  0  0  0  0  0  0  0  0  0
    1.4806   -4.4619   25.9146 O   0  0  0  0  0  0  0  0  0  0  0  0
    3.6726   -9.6206   28.8851 C   0  0  2  0  0  0  0  0  0  0  0  0
    4.9574   -9.3358   28.2539 N   0  0  0  0  0  0  0  0  0  0  0  0
   -4.4278  -11.8190   30.9949 C   0  0  0  0  0  0  0  0  0  0  0  0
   -5.0704  -12.8441   31.9840 N   0  0  0  0  0  0  0  0  0  0  0  0
   -2.9900  -12.2062   30.5386 C   0  0  0  0  0  0  0  0  0  0  0  0
    4.2847  -10.8009   33.0475 O   0  0  0  0  0  0  0  0  0  0  0  0
    3.8592   -4.6432   26.3518 C   0  0  2  0  0  0  0  0  0  0  0  0
    4.1520   -4.6788   24.9644 O   0  0  0  0  0  0  0  0  0  0  0  0
    3.1799   -8.3772   29.5824 C   0  0  2  0  0  0  0  0  0  0  0  0
    4.9173   -5.4595   27.1488 C   0  0  2  0  0  0  0  0  0  0  0  0
    4.6370   -5.4319   28.5638 O   0  0  0  0  0  0  0  0  0  0  0  0
    1.7878   -8.6631   30.2934 C   0  0  2  0  0  0  0  0  0  0  0  0
    1.3403   -7.4397   30.9506 O   0  0  0  0  0  0  0  0  0  0  0  0
    6.2908   -4.9455   26.9337 C   0  0  0  0  0  0  0  0  0  0  0  0
    7.0314   -5.8879   26.3099 N   0  0  0  0  0  0  0  0  0  0  0  0
    1.9828   -9.8090   31.3460 C   0  0  1  0  0  0  0  0  0  0  0  0
    0.7849  -10.0644   32.0076 O   0  0  0  0  0  0  0  0  0  0  0  0
  1  2  1  6  0  0  0
  1  5  1  0  0  0  0
  1 29  1  0  0  0  0
  3  4  1  1  0  0  0
  3  7  1  0  0  0  0
  3 34  1  0  0  0  0
  5  6  1  6  0  0  0
  5 16  1  0  0  0  0
  7 19  1  0  0  0  0
  8  4  1  0  0  0  0
  8 24  2  0  0  0  0
  9  8  1  1  0  0  0
  9 10  1  0  0  0  0
  9 13  1  0  0  0  0
 10 11  1  0  0  0  0
 11 12  1  0  0  0  0
 14 15  1  0  0  0  0
 14 35  1  0  0  0  0
 15 17  1  0  0  0  0
 16 18  1  6  0  0  0
 16 25  1  0  0  0  0
 19 20  1  1  0  0  0
 19 27  1  0  0  0  0
 21 22  1  0  0  0  0
 21 23  1  0  0  0  0
 23 17  1  0  0  0  0
 25 26  1  6  0  0  0
 25 28  1  0  0  0  0
 27  2  1  6  0  0  0
 27 30  1  0  0  0  0
 28 29  1  0  0  0  0
 28 32  1  1  0  0  0
 30 31  1  1  0  0  0
 30 34  1  0  0  0  0
 32 33  2  0  0  0  0
 34 35  1  6  0  0  0
M  END
>  <CHROM.1>
-138.93971257,64.95072108,173.74791791,-176.19845687,-64.44164934,-174.51112736
57.63399746,87.40059720,-55.10869528,-139.45292817,-149.03753022,-115.57748404
-54.69175847,2.29573032,-9.27730749,30.24431234,-1.26109749,0.09158210,2.42367773

>  <Name>
2f4t_lig

>  <RI>
0

>  <Rbt.Current_Directory>
/home/itssahil/PROJECTS/Mol_Feturizer/New_Systems/rnas/2f4t

>  <Rbt.Executable>
rbdock ($Id: //depot/dev/client3/rdock/2013.1/src/exe/rbdock.cxx#4 $)

>  <Rbt.Library>
libRbt.so (2013.1, Build901 2013/11/27)

>  <Rbt.Parameter_File>
/export/apps/rDock/src/rDock_2013.1_src/data/scripts/dock_solv.prm

>  <Rbt.Receptor>
prm/pocket_docking_8.prm

>  <SCORE>
-4.58807

>  <SCORE.INTER>
-1.11096

>  <SCORE.INTER.CONST>
1

>  <SCORE.INTER.POLAR>
-1.70594

>  <SCORE.INTER.ROT>
13

>  <SCORE.INTER.SOLV>
9.69817

>  <SCORE.INTER.VDW>
-10.5536

>  <SCORE.INTER.norm>
-0.0317417

>  <SCORE.INTRA>
-3.47711

>  <SCORE.INTRA.DIHEDRAL>
-10.9482

>  <SCORE.INTRA.DIHEDRAL.0>
23.8882

>  <SCORE.INTRA.POLAR>
0

>  <SCORE.INTRA.POLAR.0>
0

>  <SCORE.INTRA.REPUL>
0

>  <SCORE.INTRA.REPUL.0>
0

>  <SCORE.INTRA.SOLV>
4.40344

>  <SCORE.INTRA.SOLV.lig_0>
-97.6888

>  <SCORE.INTRA.VDW>
-0.204732

>  <SCORE.INTRA.VDW.0>
-3.9206

>  <SCORE.INTRA.norm>
-0.0993461

>  <SCORE.RESTR>
0

>  <SCORE.RESTR.CAVITY>
0

>  <SCORE.RESTR.norm>
0

>  <SCORE.SYSTEM>
0

>  <SCORE.SYSTEM.CONST>
0

>  <SCORE.SYSTEM.DIHEDRAL>
0

>  <SCORE.SYSTEM.SOLV>
0

>  <SCORE.SYSTEM.norm>
0

>  <SCORE.heavy>
35

>  <SCORE.norm>
-0.131088

>  <RMSD>
5.978

$$$$
2f4t_lig
 OpenBabel11021811433D
libRbt.so/2013.1/901 2013/11/27
 35 36  0  0  0  0  0  0  0  0999 V2000
    1.6156   -7.3025   26.3008 C   0  0  2  0  0  0  0  0  0  0  0  0
    3.0795   -7.2606   26.3525 O   0  0  0  0  0  0  0  0  0  0  0  0
    6.1023   -8.0279   29.3410 C   0  0  2  0  0  0  0  0  0  0  0  0
    6.8687   -7.9204   30.5915 N   0  0  0  0  0  0  0  0  0  0  0  0
    1.2303   -6.9240   24.8386 C   0  0  2  0  0  0  0  0  0  0  0  0
    1.8692   -7.8131   23.8969 N   0  0  0  0  0  0  0  0  0  0  0  0
    5.9476   -6.5988   28.7026 C   0  0  0  0  0  0  0  0  0  0  0  0
    8.0483   -6.6136   30.4509 C   0  0  0  0  0  0  0  0  0  0  0  0
    8.4467   -6.9652   31.8672 C   0  0  1  0  0  0  0  0  0  0  0  0
    9.2344   -5.7813   32.4326 C   0  0  0  0  0  0  0  0  0  0  0  0
    8.5198   -4.4205   32.3806 C   0  0  0  0  0  0  0  0  0  0  0  0
    7.3823   -4.4597   33.3045 N   0  0  0  0  0  0  0  0  0  0  0  0
    7.3158   -7.1014   32.6874 O   0  0  0  0  0  0  0  0  0  0  0  0
    5.3543  -11.1799   30.4206 C   0  0  0  0  0  0  0  0  0  0  0  0
    4.4299  -11.9149   31.3791 C   0  0  0  0  0  0  0  0  0  0  0  0
    1.6229   -5.4364   24.5468 C   0  0  1  0  0  0  0  0  0  0  0  0
    4.7760  -13.3422   31.5565 N   0  0  0  0  0  0  0  0  0  0  0  0
    1.2770   -5.0710   23.2250 O   0  0  0  0  0  0  0  0  0  0  0  0
    5.1447   -6.6400   27.3949 C   0  0  2  0  0  0  0  0  0  0  0  0
    4.9801   -5.2987   26.8436 N   0  0  0  0  0  0  0  0  0  0  0  0
    5.7601  -15.2560   32.8216 C   0  0  0  0  0  0  0  0  0  0  0  0
    5.9690  -15.9587   34.2016 N   0  0  0  0  0  0  0  0  0  0  0  0
    5.0280  -13.8851   32.9215 C   0  0  0  0  0  0  0  0  0  0  0  0
    8.3120   -5.9218   29.6822 O   0  0  0  0  0  0  0  0  0  0  0  0
    0.8994   -4.5461   25.5624 C   0  0  2  0  0  0  0  0  0  0  0  0
    1.2028   -3.1776   25.3454 O   0  0  0  0  0  0  0  0  0  0  0  0
    3.7839   -7.2460   27.6314 C   0  0  2  0  0  0  0  0  0  0  0  0
    1.2922   -4.9642   27.0088 C   0  0  2  0  0  0  0  0  0  0  0  0
    0.9876   -6.3538   27.2490 O   0  0  0  0  0  0  0  0  0  0  0  0
    3.9327   -8.7031   28.2476 C   0  0  2  0  0  0  0  0  0  0  0  0
    2.5999   -9.2589   28.4567 O   0  0  0  0  0  0  0  0  0  0  0  0
    0.5935   -4.1487   28.0304 C   0  0  0  0  0  0  0  0  0  0  0  0
    1.4536   -3.2462   28.5513 N   0  0  0  0  0  0  0  0  0  0  0  0
    4.7020   -8.6005   29.6102 C   0  0  1  0  0  0  0  0  0  0  0  0
    4.8242   -9.8599   30.1905 O   0  0  0  0  0  0  0  0  0  0  0  0
  1  2  1  6  0  0  0
  1  5  1  0  0  0  0
  1 29  1  0  0  0  0
  3  4  1  1  0  0  0
  3  7  1  0  0  0  0
  3 34  1  0  0  0  0
  5  6  1  6  0  0  0
  5 16  1  0  0  0  0
  7 19  1  0  0  0  0
  8  4  1  0  0  0  0
  8 24  2  0  0  0  0
  9  8  1  6  0  0  0
  9 10  1  0  0  0  0
  9 13  1  0  0  0  0
 10 11  1  0  0  0  0
 11 12  1  0  0  0  0
 14 15  1  0  0  0  0
 14 35  1  0  0  0  0
 15 17  1  0  0  0  0
 16 18  1  6  0  0  0
 16 25  1  0  0  0  0
 19 20  1  1  0  0  0
 19 27  1  0  0  0  0
 21 22  1  0  0  0  0
 21 23  1  0  0  0  0
 23 17  1  0  0  0  0
 25 26  1  6  0  0  0
 25 28  1  0  0  0  0
 27  2  1  6  0  0  0
 27 30  1  0  0  0  0
 28 29  1  0  0  0  0
 28 32  1  1  0  0  0
 30 31  1  1  0  0  0
 30 34  1  0  0  0  0
 32 33  2  0  0  0  0
 34 35  1  6  0  0  0
M  END
>  <CHROM.1>
165.20706782,-32.61062205,-162.73370427,55.21775062,67.74799354,172.57511872
-171.46912916,124.57175529,-175.47766922,-163.64614375,-156.84263690,-104.23323491
-39.44611016,4.40671693,-7.63469515,28.96677640,2.26576471,-0.73813635,-0.32982379

>  <Name>
2f4t_lig

>  <RI>
0

>  <Rbt.Current_Directory>
/home/itssahil/PROJECTS/Mol_Feturizer/New_Systems/rnas/2f4t

>  <Rbt.Executable>
rbdock ($Id: //depot/dev/client3/rdock/2013.1/src/exe/rbdock.cxx#4 $)

>  <Rbt.Library>
libRbt.so (2013.1, Build901 2013/11/27)

>  <Rbt.Parameter_File>
/export/apps/rDock/src/rDock_2013.1_src/data/scripts/dock_solv.prm

>  <Rbt.Receptor>
prm/pocket_docking_3.prm

>  <SCORE>
-3.45276

>  <SCORE.INTER>
-3.76485

>  <SCORE.INTER.CONST>
1

>  <SCORE.INTER.POLAR>
-1.15046

>  <SCORE.INTER.ROT>
13

>  <SCORE.INTER.SOLV>
21.9073

>  <SCORE.INTER.VDW>
-18.2441

>  <SCORE.INTER.norm>
-0.107567

>  <SCORE.INTRA>
0.0578234

>  <SCORE.INTRA.DIHEDRAL>
-13.739

>  <SCORE.INTRA.DIHEDRAL.0>
23.8882

>  <SCORE.INTRA.POLAR>
0

>  <SCORE.INTRA.POLAR.0>
0

>  <SCORE.INTRA.REPUL>
0

>  <SCORE.INTRA.REPUL.0>
0

>  <SCORE.INTRA.SOLV>
2.60054

>  <SCORE.INTRA.SOLV.lig_0>
-97.6888

>  <SCORE.INTRA.VDW>
5.62706

>  <SCORE.INTRA.VDW.0>
-3.9206

>  <SCORE.INTRA.norm>
0.0016521

>  <SCORE.RESTR>
0.254266

>  <SCORE.RESTR.CAVITY>
0.254266

>  <SCORE.RESTR.norm>
0.00726473

>  <SCORE.SYSTEM>
0

>  <SCORE.SYSTEM.CONST>
0

>  <SCORE.SYSTEM.DIHEDRAL>
0

>  <SCORE.SYSTEM.SOLV>
0

>  <SCORE.SYSTEM.norm>
0

>  <SCORE.heavy>
35

>  <SCORE.norm>
-0.0986503

>  <RMSD>
6.032

$$$$
2f4t_lig
 OpenBabel11021811433D
libRbt.so/2013.1/901 2013/11/27
 35 36  0  0  0  0  0  0  0  0999 V2000
    4.0481   -7.0810   26.5943 C   0  0  2  0  0  0  0  0  0  0  0  0
    3.3490   -7.2339   27.8730 O   0  0  0  0  0  0  0  0  0  0  0  0
    0.7883  -10.1905   29.7057 C   0  0  2  0  0  0  0  0  0  0  0  0
   -0.3468  -11.1042   29.9039 N   0  0  0  0  0  0  0  0  0  0  0  0
    5.1174   -5.9704   26.8239 C   0  0  2  0  0  0  0  0  0  0  0  0
    5.9877   -6.3201   27.9220 N   0  0  0  0  0  0  0  0  0  0  0  0
    0.2452   -8.7528   29.3718 C   0  0  0  0  0  0  0  0  0  0  0  0
   -0.9999  -10.8908   31.5308 C   0  0  0  0  0  0  0  0  0  0  0  0
   -2.0047  -11.9559   31.1512 C   0  0  1  0  0  0  0  0  0  0  0  0
   -1.3543  -13.3169   31.4092 C   0  0  0  0  0  0  0  0  0  0  0  0
   -0.9214  -13.5835   32.8606 C   0  0  0  0  0  0  0  0  0  0  0  0
   -0.3261  -14.9215   32.9276 N   0  0  0  0  0  0  0  0  0  0  0  0
   -3.1312  -11.9036   31.9869 O   0  0  0  0  0  0  0  0  0  0  0  0
    2.1074  -13.3722   29.0102 C   0  0  0  0  0  0  0  0  0  0  0  0
    3.4725  -13.8339   29.4966 C   0  0  0  0  0  0  0  0  0  0  0  0
    4.4164   -4.5959   27.0915 C   0  0  1  0  0  0  0  0  0  0  0  0
    3.6192  -15.3055   29.5367 N   0  0  0  0  0  0  0  0  0  0  0  0
    5.3703   -3.5722   27.2980 O   0  0  0  0  0  0  0  0  0  0  0  0
    1.3842   -7.7497   29.1421 C   0  0  2  0  0  0  0  0  0  0  0  0
    0.8562   -6.4343   28.7943 N   0  0  0  0  0  0  0  0  0  0  0  0
    2.6321  -17.5628   29.9387 C   0  0  0  0  0  0  0  0  0  0  0  0
    1.7449  -18.4761   30.8447 N   0  0  0  0  0  0  0  0  0  0  0  0
    2.7957  -16.1122   30.4814 C   0  0  0  0  0  0  0  0  0  0  0  0
   -0.7510  -10.2701   32.3626 O   0  0  0  0  0  0  0  0  0  0  0  0
    3.5273   -4.2734   25.8860 C   0  0  2  0  0  0  0  0  0  0  0  0
    2.8694   -3.0287   26.0586 O   0  0  0  0  0  0  0  0  0  0  0  0
    2.2897   -8.2260   28.0339 C   0  0  2  0  0  0  0  0  0  0  0  0
    2.4864   -5.4106   25.6753 C   0  0  2  0  0  0  0  0  0  0  0  0
    3.1383   -6.6849   25.4948 O   0  0  0  0  0  0  0  0  0  0  0  0
    2.8674   -9.6655   28.3789 C   0  0  2  0  0  0  0  0  0  0  0  0
    3.7413  -10.0902   27.2903 O   0  0  0  0  0  0  0  0  0  0  0  0
    1.6197   -5.1577   24.4999 C   0  0  0  0  0  0  0  0  0  0  0  0
    0.3922   -4.7789   24.9190 N   0  0  0  0  0  0  0  0  0  0  0  0
    1.6706  -10.6659   28.5409 C   0  0  1  0  0  0  0  0  0  0  0  0
    2.1458  -11.9449   28.8165 O   0  0  0  0  0  0  0  0  0  0  0  0
  1  2  1  1  0  0  0
  1  5  1  0  0  0  0
  1 29  1  0  0  0  0
  3  4  1  6  0  0  0
  3  7  1  0  0  0  0
  3 34  1  0  0  0  0
  5  6  1  1  0  0  0
  5 16  1  0  0  0  0
  7 19  1  0  0  0  0
  8  4  1  0  0  0  0
  8 24  2  0  0  0  0
  9  8  1  1  0  0  0
  9 10  1  0  0  0  0
  9 13  1  0  0  0  0
 10 11  1  0  0  0  0
 11 12  1  0  0  0  0
 14 15  1  0  0  0  0
 14 35  1  0  0  0  0
 15 17  1  0  0  0  0
 16 18  1  6  0  0  0
 16 25  1  0  0  0  0
 19 20  1  6  0  0  0
 19 27  1  0  0  0  0
 21 22  1  0  0  0  0
 21 23  1  0  0  0  0
 23 17  1  0  0  0  0
 25 26  1  1  0  0  0
 25 28  1  0  0  0  0
 27  2  1  1  0  0  0
 27 30  1  0  0  0  0
 28 29  1  0  0  0  0
 28 32  1  6  0  0  0
 30 31  1  6  0  0  0
 30 34  1  0  0  0  0
 32 33  2  0  0  0  0
 34 35  1  1  0  0  0
M  END
>  <CHROM.1>
-178.48798758,-80.09806955,84.68693442,59.80216419,179.87293551,-171.28795202
-174.26940390,-65.50035898,-178.30842441,154.72341011,-154.69173494,-105.67424184
70.59268677,1.85992204,-9.72196516,28.79469363,-1.27991096,-0.49577676,2.82730527

>  <Name>
2f4t_lig

>  <RI>
0

>  <Rbt.Current_Directory>
/home/itssahil/PROJECTS/Mol_Feturizer/New_Systems/rnas/2f4t

>  <Rbt.Executable>
rbdock ($Id: //depot/dev/client3/rdock/2013.1/src/exe/rbdock.cxx#4 $)

>  <Rbt.Library>
libRbt.so (2013.1, Build901 2013/11/27)

>  <Rbt.Parameter_File>
/export/apps/rDock/src/rDock_2013.1_src/data/scripts/dock_solv.prm

>  <Rbt.Receptor>
prm/pocket_docking_6.prm

>  <SCORE>
-16.2639

>  <SCORE.INTER>
-7.83559

>  <SCORE.INTER.CONST>
1

>  <SCORE.INTER.POLAR>
-0.59777

>  <SCORE.INTER.ROT>
13

>  <SCORE.INTER.SOLV>
11.2315

>  <SCORE.INTER.VDW>
-19.2417

>  <SCORE.INTER.norm>
-0.223874

>  <SCORE.INTRA>
-8.42945

>  <SCORE.INTRA.DIHEDRAL>
-17.0763

>  <SCORE.INTRA.DIHEDRAL.0>
23.8882

>  <SCORE.INTRA.POLAR>
0

>  <SCORE.INTRA.POLAR.0>
0

>  <SCORE.INTRA.REPUL>
0

>  <SCORE.INTRA.REPUL.0>
0

>  <SCORE.INTRA.SOLV>
-0.151518

>  <SCORE.INTRA.SOLV.lig_0>
-97.6888

>  <SCORE.INTRA.VDW>
0.184463

>  <SCORE.INTRA.VDW.0>
-3.9206

>  <SCORE.INTRA.norm>
-0.240841

>  <SCORE.RESTR>
0.00117621

>  <SCORE.RESTR.CAVITY>
0.00117621

>  <SCORE.RESTR.norm>
3.36061e-05

>  <SCORE.SYSTEM>
0

>  <SCORE.SYSTEM.CONST>
0

>  <SCORE.SYSTEM.DIHEDRAL>
0

>  <SCORE.SYSTEM.SOLV>
0

>  <SCORE.SYSTEM.norm>
0

>  <SCORE.heavy>
35

>  <SCORE.norm>
-0.464682

>  <RMSD>
6.104

$$$$
2f4t_lig
 OpenBabel11021811433D
libRbt.so/2013.1/901 2013/11/27
 35 36  0  0  0  0  0  0  0  0999 V2000
    6.5790   -5.2346   27.4876 C   0  0  2  0  0  0  0  0  0  0  0  0
    6.1035   -6.2815   26.5793 O   0  0  0  0  0  0  0  0  0  0  0  0
    2.5983   -7.7070   28.6623 C   0  0  2  0  0  0  0  0  0  0  0  0
    1.3762   -8.4736   28.9479 N   0  0  0  0  0  0  0  0  0  0  0  0
    7.6762   -4.4550   26.7014 C   0  0  2  0  0  0  0  0  0  0  0  0
    7.1475   -3.9467   25.4574 N   0  0  0  0  0  0  0  0  0  0  0  0
    2.4748   -7.0439   27.2415 C   0  0  0  0  0  0  0  0  0  0  0  0
    0.9750   -8.3287   30.6617 C   0  0  0  0  0  0  0  0  0  0  0  0
   -0.2153   -9.2076   30.3472 C   0  0  1  0  0  0  0  0  0  0  0  0
   -0.0500  -10.5084   31.1363 C   0  0  0  0  0  0  0  0  0  0  0  0
   -1.0310  -11.6360   30.7742 C   0  0  0  0  0  0  0  0  0  0  0  0
   -0.7482  -12.7892   31.6340 N   0  0  0  0  0  0  0  0  0  0  0  0
   -1.4053   -8.6253   30.8108 O   0  0  0  0  0  0  0  0  0  0  0  0
    4.1073   -9.3313   31.3468 C   0  0  0  0  0  0  0  0  0  0  0  0
    4.0389  -10.7980   31.7438 C   0  0  0  0  0  0  0  0  0  0  0  0
    8.9108   -5.3819   26.4387 C   0  0  1  0  0  0  0  0  0  0  0  0
    4.1343  -11.0204   33.2033 N   0  0  0  0  0  0  0  0  0  0  0  0
    9.9211   -4.6914   25.7296 O   0  0  0  0  0  0  0  0  0  0  0  0
    3.7273   -6.2348   26.8767 C   0  0  2  0  0  0  0  0  0  0  0  0
    3.6057   -5.6636   25.5391 N   0  0  0  0  0  0  0  0  0  0  0  0
    3.6144  -12.2205   35.3296 C   0  0  0  0  0  0  0  0  0  0  0  0
    3.1132  -13.5308   36.0179 N   0  0  0  0  0  0  0  0  0  0  0  0
    3.7565  -12.3404   33.7834 C   0  0  0  0  0  0  0  0  0  0  0  0
    1.4166   -7.8289   31.4949 O   0  0  0  0  0  0  0  0  0  0  0  0
    9.4355   -5.8696   27.7931 C   0  0  2  0  0  0  0  0  0  0  0  0
   10.5674   -6.7082   27.6273 O   0  0  0  0  0  0  0  0  0  0  0  0
    4.9539   -7.1111   26.9287 C   0  0  2  0  0  0  0  0  0  0  0  0
    8.3101   -6.6251   28.5571 C   0  0  2  0  0  0  0  0  0  0  0  0
    7.1507   -5.7856   28.7378 O   0  0  0  0  0  0  0  0  0  0  0  0
    5.1026   -7.7602   28.3715 C   0  0  2  0  0  0  0  0  0  0  0  0
    6.2998   -8.5941   28.3861 O   0  0  0  0  0  0  0  0  0  0  0  0
    8.7618   -7.0922   29.8893 C   0  0  0  0  0  0  0  0  0  0  0  0
    8.5320   -8.4188   30.0027 N   0  0  0  0  0  0  0  0  0  0  0  0
    3.8298   -8.6261   28.6708 C   0  0  1  0  0  0  0  0  0  0  0  0
    3.9422   -9.2323   29.9188 O   0  0  0  0  0  0  0  0  0  0  0  0
  1  2  1  6  0  0  0
  1  5  1  0  0  0  0
  1 29  1  0  0  0  0
  3  4  1  6  0  0  0
  3  7  1  0  0  0  0
  3 34  1  0  0  0  0
  5  6  1  6  0  0  0
  5 16  1  0  0  0  0
  7 19  1  0  0  0  0
  8  4  1  0  0  0  0
  8 24  2  0  0  0  0
  9  8  1  1  0  0  0
  9 10  1  0  0  0  0
  9 13  1  0  0  0  0
 10 11  1  0  0  0  0
 11 12  1  0  0  0  0
 14 15  1  0  0  0  0
 14 35  1  0  0  0  0
 15 17  1  0  0  0  0
 16 18  1  1  0  0  0
 16 25  1  0  0  0  0
 19 20  1  6  0  0  0
 19 27  1  0  0  0  0
 21 22  1  0  0  0  0
 21 23  1  0  0  0  0
 23 17  1  0  0  0  0
 25 26  1  6  0  0  0
 25 28  1  0  0  0  0
 27  2  1  1  0  0  0
 27 30  1  0  0  0  0
 28 29  1  0  0  0  0
 28 32  1  1  0  0  0
 30 31  1  6  0  0  0
 30 34  1  0  0  0  0
 32 33  2  0  0  0  0
 34 35  1  1  0  0  0
M  END
>  <CHROM.1>
-172.66368293,-143.35853024,116.70734127,-169.98579336,-179.05140998,-177.33756489
178.96618753,165.11522095,175.58981427,-166.48817886,69.63693732,-126.19723247
-61.54204062,4.54910955,-8.14870291,29.39895469,0.83592701,-0.11078799,-0.87991051

>  <Name>
2f4t_lig

>  <RI>
0

>  <Rbt.Current_Directory>
/home/itssahil/PROJECTS/Mol_Feturizer/New_Systems/rnas/2f4t

>  <Rbt.Executable>
rbdock ($Id: //depot/dev/client3/rdock/2013.1/src/exe/rbdock.cxx#4 $)

>  <Rbt.Library>
libRbt.so (2013.1, Build901 2013/11/27)

>  <Rbt.Parameter_File>
/export/apps/rDock/src/rDock_2013.1_src/data/scripts/dock_solv.prm

>  <Rbt.Receptor>
prm/pocket_docking_7.prm

>  <SCORE>
-17.416

>  <SCORE.INTER>
-7.45807

>  <SCORE.INTER.CONST>
1

>  <SCORE.INTER.POLAR>
-1.84505

>  <SCORE.INTER.ROT>
13

>  <SCORE.INTER.SOLV>
11.6643

>  <SCORE.INTER.VDW>
-14.9766

>  <SCORE.INTER.norm>
-0.213088

>  <SCORE.INTRA>
-9.95793

>  <SCORE.INTRA.DIHEDRAL>
-18.3053

>  <SCORE.INTRA.DIHEDRAL.0>
23.8882

>  <SCORE.INTRA.POLAR>
0

>  <SCORE.INTRA.POLAR.0>
0

>  <SCORE.INTRA.REPUL>
0

>  <SCORE.INTRA.REPUL.0>
0

>  <SCORE.INTRA.SOLV>
0.530783

>  <SCORE.INTRA.SOLV.lig_0>
-97.6888

>  <SCORE.INTRA.VDW>
-1.07065

>  <SCORE.INTRA.VDW.0>
-3.9206

>  <SCORE.INTRA.norm>
-0.284512

>  <SCORE.RESTR>
0

>  <SCORE.RESTR.CAVITY>
0

>  <SCORE.RESTR.norm>
0

>  <SCORE.SYSTEM>
0

>  <SCORE.SYSTEM.CONST>
0

>  <SCORE.SYSTEM.DIHEDRAL>
0

>  <SCORE.SYSTEM.SOLV>
0

>  <SCORE.SYSTEM.norm>
0

>  <SCORE.heavy>
35

>  <SCORE.norm>
-0.4976

>  <RMSD>
6.448

$$$$
2f4t_lig
 OpenBabel11021811433D
libRbt.so/2013.1/901 2013/11/27
 35 36  0  0  0  0  0  0  0  0999 V2000
    3.8131   -8.0103   31.6543 C   0  0  2  0  0  0  0  0  0  0  0  0
    3.1656   -9.1417   30.9850 O   0  0  0  0  0  0  0  0  0  0  0  0
    3.9873  -13.3820   31.0228 C   0  0  2  0  0  0  0  0  0  0  0  0
    4.6464  -14.6651   30.7364 N   0  0  0  0  0  0  0  0  0  0  0  0
    2.8250   -6.8126   31.5175 C   0  0  2  0  0  0  0  0  0  0  0  0
    1.5342   -7.1511   32.0696 N   0  0  0  0  0  0  0  0  0  0  0  0
    3.7060  -12.6298   29.6705 C   0  0  0  0  0  0  0  0  0  0  0  0
    4.0011  -15.9127   31.8069 C   0  0  0  0  0  0  0  0  0  0  0  0
    4.9461  -16.8580   31.0986 C   0  0  1  0  0  0  0  0  0  0  0  0
    6.0619  -17.2180   32.0822 C   0  0  0  0  0  0  0  0  0  0  0  0
    7.2137  -18.0572   31.5041 C   0  0  0  0  0  0  0  0  0  0  0  0
    8.0655  -18.4994   32.6123 N   0  0  0  0  0  0  0  0  0  0  0  0
    4.3052  -18.0667   30.7851 O   0  0  0  0  0  0  0  0  0  0  0  0
    4.8866  -13.8096   34.3527 C   0  0  0  0  0  0  0  0  0  0  0  0
    4.1262  -12.8452   35.2501 C   0  0  0  0  0  0  0  0  0  0  0  0
    2.6900   -6.3956   30.0141 C   0  0  1  0  0  0  0  0  0  0  0  0
    3.8209  -13.3983   36.5878 N   0  0  0  0  0  0  0  0  0  0  0  0
    1.8003   -5.3059   29.8684 O   0  0  0  0  0  0  0  0  0  0  0  0
    3.0261  -11.2730   29.9010 C   0  0  2  0  0  0  0  0  0  0  0  0
    2.8126  -10.5770   28.6360 N   0  0  0  0  0  0  0  0  0  0  0  0
    2.3082  -14.2162   38.3973 C   0  0  0  0  0  0  0  0  0  0  0  0
    3.3516  -15.2155   38.9929 N   0  0  0  0  0  0  0  0  0  0  0  0
    2.4751  -13.9744   36.8679 C   0  0  0  0  0  0  0  0  0  0  0  0
    3.2708  -15.9278   32.5851 O   0  0  0  0  0  0  0  0  0  0  0  0
    4.0846   -6.0301   29.4953 C   0  0  2  0  0  0  0  0  0  0  0  0
    4.0319   -5.6291   28.1358 O   0  0  0  0  0  0  0  0  0  0  0  0
    3.8701  -10.4077   30.8032 C   0  0  2  0  0  0  0  0  0  0  0  0
    5.0476   -7.2404   29.6651 C   0  0  2  0  0  0  0  0  0  0  0  0
    5.1163   -7.6607   31.0436 O   0  0  0  0  0  0  0  0  0  0  0  0
    4.1324  -11.1485   32.1842 C   0  0  2  0  0  0  0  0  0  0  0  0
    4.9446  -10.2814   33.0313 O   0  0  0  0  0  0  0  0  0  0  0  0
    6.4203   -6.9255   29.2030 C   0  0  0  0  0  0  0  0  0  0  0  0
    6.5514   -7.2815   27.9062 N   0  0  0  0  0  0  0  0  0  0  0  0
    4.8837  -12.4957   31.9015 C   0  0  1  0  0  0  0  0  0  0  0  0
    5.1538  -13.1566   33.0964 O   0  0  0  0  0  0  0  0  0  0  0  0
  1  2  1  6  0  0  0
  1  5  1  0  0  0  0
  1 29  1  0  0  0  0
  3  4  1  6  0  0  0
  3  7  1  0  0  0  0
  3 34  1  0  0  0  0
  5  6  1  6  0  0  0
  5 16  1  0  0  0  0
  7 19  1  0  0  0  0
  8  4  1  0  0  0  0
  8 24  2  0  0  0  0
  9  8  1  1  0  0  0
  9 10  1  0  0  0  0
  9 13  1  0  0  0  0
 10 11  1  0  0  0  0
 11 12  1  0  0  0  0
 14 15  1  0  0  0  0
 14 35  1  0  0  0  0
 15 17  1  0  0  0  0
 16 18  1  1  0  0  0
 16 25  1  0  0  0  0
 19 20  1  6  0  0  0
 19 27  1  0  0  0  0
 21 22  1  0  0  0  0
 21 23  1  0  0  0  0
 23 17  1  0  0  0  0
 25 26  1  6  0  0  0
 25 28  1  0  0  0  0
 27  2  1  1  0  0  0
 27 30  1  0  0  0  0
 28 29  1  0  0  0  0
 28 32  1  1  0  0  0
 30 31  1  1  0  0  0
 30 34  1  0  0  0  0
 32 33  2  0  0  0  0
 34 35  1  1  0  0  0
M  END
>  <CHROM.1>
173.89538181,-140.18353301,109.06644610,-173.72368145,-170.56468282,-178.69121339
-57.85837812,-98.48243568,-60.68932229,-168.49203764,-171.13210589,-92.34458740
-59.79401474,4.19705377,-11.64261228,31.87734242,1.81667435,1.17056401,-0.63066730

>  <Name>
2f4t_lig

>  <RI>
0

>  <Rbt.Current_Directory>
/home/itssahil/PROJECTS/Mol_Feturizer/New_Systems/rnas/2f4t

>  <Rbt.Executable>
rbdock ($Id: //depot/dev/client3/rdock/2013.1/src/exe/rbdock.cxx#4 $)

>  <Rbt.Library>
libRbt.so (2013.1, Build901 2013/11/27)

>  <Rbt.Parameter_File>
/export/apps/rDock/src/rDock_2013.1_src/data/scripts/dock_solv.prm

>  <Rbt.Receptor>
prm/pocket_docking_7.prm

>  <SCORE>
-14.3712

>  <SCORE.INTER>
-4.79391

>  <SCORE.INTER.CONST>
1

>  <SCORE.INTER.POLAR>
-2.01576

>  <SCORE.INTER.ROT>
13

>  <SCORE.INTER.SOLV>
12.3845

>  <SCORE.INTER.VDW>
-12.8716

>  <SCORE.INTER.norm>
-0.136969

>  <SCORE.INTRA>
-9.5773

>  <SCORE.INTRA.DIHEDRAL>
-17.4356

>  <SCORE.INTRA.DIHEDRAL.0>
23.8882

>  <SCORE.INTRA.POLAR>
0

>  <SCORE.INTRA.POLAR.0>
0

>  <SCORE.INTRA.REPUL>
0

>  <SCORE.INTRA.REPUL.0>
0

>  <SCORE.INTRA.SOLV>
0.251417

>  <SCORE.INTRA.SOLV.lig_0>
-97.6888

>  <SCORE.INTRA.VDW>
-0.985226

>  <SCORE.INTRA.VDW.0>
-3.9206

>  <SCORE.INTRA.norm>
-0.273637

>  <SCORE.RESTR>
0

>  <SCORE.RESTR.CAVITY>
0

>  <SCORE.RESTR.norm>
0

>  <SCORE.SYSTEM>
0

>  <SCORE.SYSTEM.CONST>
0

>  <SCORE.SYSTEM.DIHEDRAL>
0

>  <SCORE.SYSTEM.SOLV>
0

>  <SCORE.SYSTEM.norm>
0

>  <SCORE.heavy>
35

>  <SCORE.norm>
-0.410606

>  <RMSD>
6.458

$$$$
2f4t_lig
 OpenBabel11021811433D
libRbt.so/2013.1/901 2013/11/27
 35 36  0  0  0  0  0  0  0  0999 V2000
    0.3101   -6.6061   30.8449 C   0  0  2  0  0  0  0  0  0  0  0  0
    0.5185   -7.5355   29.7313 O   0  0  0  0  0  0  0  0  0  0  0  0
    2.1546  -11.5280   29.5291 C   0  0  2  0  0  0  0  0  0  0  0  0
    3.1389  -12.6206   29.5348 N   0  0  0  0  0  0  0  0  0  0  0  0
   -0.9270   -5.7428   30.4529 C   0  0  2  0  0  0  0  0  0  0  0  0
   -2.0687   -6.5833   30.1782 N   0  0  0  0  0  0  0  0  0  0  0  0
    2.6183  -10.4171   28.5169 C   0  0  0  0  0  0  0  0  0  0  0  0
    2.2990  -14.1720   29.6158 C   0  0  0  0  0  0  0  0  0  0  0  0
    3.6758  -14.7976   29.5823 C   0  0  1  0  0  0  0  0  0  0  0  0
    3.9390  -15.4084   30.9606 C   0  0  0  0  0  0  0  0  0  0  0  0
    5.3098  -16.0820   31.1395 C   0  0  0  0  0  0  0  0  0  0  0  0
    5.3101  -17.3384   30.3842 N   0  0  0  0  0  0  0  0  0  0  0  0
    3.7194  -15.8664   28.6735 O   0  0  0  0  0  0  0  0  0  0  0  0
    1.2571  -12.4482   33.1031 C   0  0  0  0  0  0  0  0  0  0  0  0
    1.0256  -13.9396   32.9145 C   0  0  0  0  0  0  0  0  0  0  0  0
   -0.5881   -4.8494   29.2121 C   0  0  1  0  0  0  0  0  0  0  0  0
    0.5710  -14.6273   34.1429 N   0  0  0  0  0  0  0  0  0  0  0  0
   -1.6974   -4.0536   28.8426 O   0  0  0  0  0  0  0  0  0  0  0  0
    1.6357   -9.2386   28.4710 C   0  0  2  0  0  0  0  0  0  0  0  0
    2.1078   -8.2037   27.5564 N   0  0  0  0  0  0  0  0  0  0  0  0
    0.3574  -16.5764   35.6879 C   0  0  0  0  0  0  0  0  0  0  0  0
    1.4255  -16.0497   36.6997 N   0  0  0  0  0  0  0  0  0  0  0  0
    0.6037  -16.1154   34.2209 C   0  0  0  0  0  0  0  0  0  0  0  0
    1.2746  -14.4678   29.6645 O   0  0  0  0  0  0  0  0  0  0  0  0
    0.6136   -3.9702   29.5737 C   0  0  2  0  0  0  0  0  0  0  0  0
    0.9668   -3.1230   28.4923 O   0  0  0  0  0  0  0  0  0  0  0  0
    1.4655   -8.6411   29.8454 C   0  0  2  0  0  0  0  0  0  0  0  0
    1.8218   -4.8636   29.9777 C   0  0  2  0  0  0  0  0  0  0  0  0
    1.4816   -5.7308   31.0793 O   0  0  0  0  0  0  0  0  0  0  0  0
    0.9668   -9.7512   30.8672 C   0  0  2  0  0  0  0  0  0  0  0  0
    0.8078   -9.1372   32.1813 O   0  0  0  0  0  0  0  0  0  0  0  0
    3.0028   -4.0562   30.3652 C   0  0  0  0  0  0  0  0  0  0  0  0
    2.7850   -3.4909   31.5730 N   0  0  0  0  0  0  0  0  0  0  0  0
    2.0323  -10.9003   30.9263 C   0  0  1  0  0  0  0  0  0  0  0  0
    1.6374  -11.8771   31.8360 O   0  0  0  0  0  0  0  0  0  0  0  0
  1  2  1  6  0  0  0
  1  5  1  0  0  0  0
  1 29  1  0  0  0  0
  3  4  1  1  0  0  0
  3  7  1  0  0  0  0
  3 34  1  0  0  0  0
  5  6  1  6  0  0  0
  5 16  1  0  0  0  0
  7 19  1  0  0  0  0
  8  4  1  0  0  0  0
  8 24  2  0  0  0  0
  9  8  1  1  0  0  0
  9 10  1  0  0  0  0
  9 13  1  0  0  0  0
 10 11  1  0  0  0  0
 11 12  1  0  0  0  0
 14 15  1  0  0  0  0
 14 35  1  0  0  0  0
 15 17  1  0  0  0  0
 16 18  1  1  0  0  0
 16 25  1  0  0  0  0
 19 20  1  6  0  0  0
 19 27  1  0  0  0  0
 21 22  1  0  0  0  0
 21 23  1  0  0  0  0
 23 17  1  0  0  0  0
 25 26  1  6  0  0  0
 25 28  1  0  0  0  0
 27  2  1  6  0  0  0
 27 30  1  0  0  0  0
 28 29  1  0  0  0  0
 28 32  1  1  0  0  0
 30 31  1  1  0  0  0
 30 34  1  0  0  0  0
 32 33  2  0  0  0  0
 34 35  1  1  0  0  0
M  END
>  <CHROM.1>
-170.20173972,-139.83495929,110.39595132,-179.12549110,-72.40421432,-177.50490035
-178.05891421,-165.74495330,-60.41344658,168.57483624,-169.60413858,72.85362596
-178.98832236,1.57412041,-10.30883885,30.75516881,1.88811309,0.97266398,-0.48871957

>  <Name>
2f4t_lig

>  <RI>
0

>  <Rbt.Current_Directory>
/home/itssahil/PROJECTS/Mol_Feturizer/New_Systems/rnas/2f4t

>  <Rbt.Executable>
rbdock ($Id: //depot/dev/client3/rdock/2013.1/src/exe/rbdock.cxx#4 $)

>  <Rbt.Library>
libRbt.so (2013.1, Build901 2013/11/27)

>  <Rbt.Parameter_File>
/export/apps/rDock/src/rDock_2013.1_src/data/scripts/dock_solv.prm

>  <Rbt.Receptor>
prm/pocket_docking_6.prm

>  <SCORE>
-4.1767

>  <SCORE.INTER>
4.10874

>  <SCORE.INTER.CONST>
1

>  <SCORE.INTER.POLAR>
0

>  <SCORE.INTER.ROT>
13

>  <SCORE.INTER.SOLV>
12.8938

>  <SCORE.INTER.VDW>
-13.8254

>  <SCORE.INTER.norm>
0.117392

>  <SCORE.INTRA>
-8.28544

>  <SCORE.INTRA.DIHEDRAL>
-16.9768

>  <SCORE.INTRA.DIHEDRAL.0>
23.8882

>  <SCORE.INTRA.POLAR>
0

>  <SCORE.INTRA.POLAR.0>
0

>  <SCORE.INTRA.REPUL>
0

>  <SCORE.INTRA.REPUL.0>
0

>  <SCORE.INTRA.SOLV>
2.15459

>  <SCORE.INTRA.SOLV.lig_0>
-97.6888

>  <SCORE.INTRA.VDW>
-0.874337

>  <SCORE.INTRA.VDW.0>
-3.9206

>  <SCORE.INTRA.norm>
-0.236727

>  <SCORE.RESTR>
0

>  <SCORE.RESTR.CAVITY>
0

>  <SCORE.RESTR.norm>
0

>  <SCORE.SYSTEM>
0

>  <SCORE.SYSTEM.CONST>
0

>  <SCORE.SYSTEM.DIHEDRAL>
0

>  <SCORE.SYSTEM.SOLV>
0

>  <SCORE.SYSTEM.norm>
0

>  <SCORE.heavy>
35

>  <SCORE.norm>
-0.119334

>  <RMSD>
6.481

$$$$
2f4t_lig
 OpenBabel11021811433D
libRbt.so/2013.1/901 2013/11/27
 35 36  0  0  0  0  0  0  0  0999 V2000
    8.5600   -6.8774   28.1899 C   0  0  2  0  0  0  0  0  0  0  0  0
    7.8544   -6.3171   29.3455 O   0  0  0  0  0  0  0  0  0  0  0  0
    5.8251   -9.7616   30.9810 C   0  0  2  0  0  0  0  0  0  0  0  0
    4.9293  -10.5668   31.8247 N   0  0  0  0  0  0  0  0  0  0  0  0
   10.0387   -6.4029   28.3229 C   0  0  2  0  0  0  0  0  0  0  0  0
   10.5923   -6.8099   29.5931 N   0  0  0  0  0  0  0  0  0  0  0  0
    6.7128   -8.8416   31.8971 C   0  0  0  0  0  0  0  0  0  0  0  0
    3.8658   -9.4986   32.7449 C   0  0  0  0  0  0  0  0  0  0  0  0
    3.2704  -10.7643   33.3209 C   0  0  1  0  0  0  0  0  0  0  0  0
    2.3927  -10.3625   34.5085 C   0  0  0  0  0  0  0  0  0  0  0  0
    1.7030  -11.5209   35.2485 C   0  0  0  0  0  0  0  0  0  0  0  0
    0.7665  -10.9545   36.2238 N   0  0  0  0  0  0  0  0  0  0  0  0
    2.4102  -11.3795   32.3979 O   0  0  0  0  0  0  0  0  0  0  0  0
    3.2675  -10.0043   28.1839 C   0  0  0  0  0  0  0  0  0  0  0  0
    1.9582   -9.2858   28.4720 C   0  0  0  0  0  0  0  0  0  0  0  0
   10.1216   -4.8478   28.1577 C   0  0  1  0  0  0  0  0  0  0  0  0
    1.3584   -9.6496   29.7745 N   0  0  0  0  0  0  0  0  0  0  0  0
   11.4573   -4.3966   28.2705 O   0  0  0  0  0  0  0  0  0  0  0  0
    7.6665   -7.9641   31.0744 C   0  0  2  0  0  0  0  0  0  0  0  0
    8.4496   -7.0913   31.9434 N   0  0  0  0  0  0  0  0  0  0  0  0
   -0.5110   -8.0336   30.1284 C   0  0  0  0  0  0  0  0  0  0  0  0
    0.0664   -7.3567   31.4130 N   0  0  0  0  0  0  0  0  0  0  0  0
   -0.1134   -9.5317   29.9775 C   0  0  0  0  0  0  0  0  0  0  0  0
    3.7469   -8.4404   32.8169 O   0  0  0  0  0  0  0  0  0  0  0  0
    9.5402   -4.4840   26.7876 C   0  0  2  0  0  0  0  0  0  0  0  0
    9.5965   -3.0839   26.5674 O   0  0  0  0  0  0  0  0  0  0  0  0
    6.8911   -7.1180   30.0957 C   0  0  2  0  0  0  0  0  0  0  0  0
    8.0722   -4.9891   26.6832 C   0  0  2  0  0  0  0  0  0  0  0  0
    7.9958   -6.4132   26.9016 O   0  0  0  0  0  0  0  0  0  0  0  0
    6.0154   -8.0429   29.1457 C   0  0  2  0  0  0  0  0  0  0  0  0
    5.2859   -7.1926   28.2109 O   0  0  0  0  0  0  0  0  0  0  0  0
    7.4743   -4.6858   25.3613 C   0  0  0  0  0  0  0  0  0  0  0  0
    7.4688   -5.8038   24.6026 N   0  0  0  0  0  0  0  0  0  0  0  0
    5.0157   -8.8705   30.0260 C   0  0  1  0  0  0  0  0  0  0  0  0
    4.2129   -9.6719   29.2191 O   0  0  0  0  0  0  0  0  0  0  0  0
  1  2  1  1  0  0  0
  1  5  1  0  0  0  0
  1 29  1  0  0  0  0
  3  4  1  1  0  0  0
  3  7  1  0  0  0  0
  3 34  1  0  0  0  0
  5  6  1  1  0  0  0
  5 16  1  0  0  0  0
  7 19  1  0  0  0  0
  8  4  1  0  0  0  0
  8 24  2  0  0  0  0
  9  8  1  6  0  0  0
  9 10  1  0  0  0  0
  9 13  1  0  0  0  0
 10 11  1  0  0  0  0
 11 12  1  0  0  0  0
 14 15  1  0  0  0  0
 14 35  1  0  0  0  0
 15 17  1  0  0  0  0
 16 18  1  6  0  0  0
 16 25  1  0  0  0  0
 19 20  1  1  0  0  0
 19 27  1  0  0  0  0
 21 22  1  0  0  0  0
 21 23  1  0  0  0  0
 23 17  1  0  0  0  0
 25 26  1  1  0  0  0
 25 28  1  0  0  0  0
 27  2  1  6  0  0  0
 27 30  1  0  0  0  0
 28 29  1  0  0  0  0
 28 32  1  6  0  0  0
 30 31  1  6  0  0  0
 30 34  1  0  0  0  0
 32 33  2  0  0  0  0
 34 35  1  6  0  0  0
M  END
>  <CHROM.1>
-137.51181713,61.25504937,167.86296703,-179.32588477,-172.19304983,-59.74657793
-59.04497323,-153.99011497,-65.56988548,-74.40294498,82.61145024,102.25646615
-177.55021618,5.53667004,-7.90320118,29.94246190,-0.71983291,0.28693070,2.01006427

>  <Name>
2f4t_lig

>  <RI>
0

>  <Rbt.Current_Directory>
/home/itssahil/PROJECTS/Mol_Feturizer/New_Systems/rnas/2f4t

>  <Rbt.Executable>
rbdock ($Id: //depot/dev/client3/rdock/2013.1/src/exe/rbdock.cxx#4 $)

>  <Rbt.Library>
libRbt.so (2013.1, Build901 2013/11/27)

>  <Rbt.Parameter_File>
/export/apps/rDock/src/rDock_2013.1_src/data/scripts/dock_solv.prm

>  <Rbt.Receptor>
prm/pocket_docking_7.prm

>  <SCORE>
-13.3781

>  <SCORE.INTER>
-9.91148

>  <SCORE.INTER.CONST>
1

>  <SCORE.INTER.POLAR>
-1.85358

>  <SCORE.INTER.ROT>
13

>  <SCORE.INTER.SOLV>
10.2059

>  <SCORE.INTER.VDW>
-16.0977

>  <SCORE.INTER.norm>
-0.283185

>  <SCORE.INTRA>
-3.46999

>  <SCORE.INTRA.DIHEDRAL>
-12.8119

>  <SCORE.INTRA.DIHEDRAL.0>
23.8882

>  <SCORE.INTRA.POLAR>
0

>  <SCORE.INTRA.POLAR.0>
0

>  <SCORE.INTRA.REPUL>
0

>  <SCORE.INTRA.REPUL.0>
0

>  <SCORE.INTRA.SOLV>
5.16041

>  <SCORE.INTRA.SOLV.lig_0>
-97.6888

>  <SCORE.INTRA.VDW>
0.355728

>  <SCORE.INTRA.VDW.0>
-3.9206

>  <SCORE.INTRA.norm>
-0.0991427

>  <SCORE.RESTR>
0.00335852

>  <SCORE.RESTR.CAVITY>
0.00335852

>  <SCORE.RESTR.norm>
9.59578e-05

>  <SCORE.SYSTEM>
0

>  <SCORE.SYSTEM.CONST>
0

>  <SCORE.SYSTEM.DIHEDRAL>
0

>  <SCORE.SYSTEM.SOLV>
0

>  <SCORE.SYSTEM.norm>
0

>  <SCORE.heavy>
35

>  <SCORE.norm>
-0.382232

>  <RMSD>
6.556

$$$$
2f4t_lig
 OpenBabel11021811433D
libRbt.so/2013.1/901 2013/11/27
 35 36  0  0  0  0  0  0  0  0999 V2000
    3.3599   -7.6920   32.6880 C   0  0  2  0  0  0  0  0  0  0  0  0
    2.7020   -8.6373   31.7821 O   0  0  0  0  0  0  0  0  0  0  0  0
    3.6831  -12.7152   30.7501 C   0  0  2  0  0  0  0  0  0  0  0  0
    4.3515  -13.8556   30.1055 N   0  0  0  0  0  0  0  0  0  0  0  0
    2.2598   -6.6721   33.1113 C   0  0  2  0  0  0  0  0  0  0  0  0
    1.1333   -7.3543   33.7038 N   0  0  0  0  0  0  0  0  0  0  0  0
    3.2134  -11.6977   29.6467 C   0  0  0  0  0  0  0  0  0  0  0  0
    3.3665  -15.3078   30.3054 C   0  0  0  0  0  0  0  0  0  0  0  0
    4.4476  -16.0190   29.5221 C   0  0  1  0  0  0  0  0  0  0  0  0
    5.0055  -17.1322   30.4117 C   0  0  0  0  0  0  0  0  0  0  0  0
    5.7795  -16.6653   31.6559 C   0  0  0  0  0  0  0  0  0  0  0  0
    6.3210  -17.8466   32.3343 N   0  0  0  0  0  0  0  0  0  0  0  0
    3.9109  -16.6603   28.3948 O   0  0  0  0  0  0  0  0  0  0  0  0
    4.9892  -13.8351   33.7632 C   0  0  0  0  0  0  0  0  0  0  0  0
    4.2933  -13.1658   34.9385 C   0  0  0  0  0  0  0  0  0  0  0  0
    1.8047   -5.8273   31.8737 C   0  0  1  0  0  0  0  0  0  0  0  0
    4.2049  -14.0244   36.1401 N   0  0  0  0  0  0  0  0  0  0  0  0
    0.8088   -4.8913   32.2376 O   0  0  0  0  0  0  0  0  0  0  0  0
    2.5149  -10.4743   30.2565 C   0  0  2  0  0  0  0  0  0  0  0  0
    2.1251   -9.5266   29.2172 N   0  0  0  0  0  0  0  0  0  0  0  0
    3.2546  -15.8521   37.5499 C   0  0  0  0  0  0  0  0  0  0  0  0
    2.5849  -14.8808   38.5746 N   0  0  0  0  0  0  0  0  0  0  0  0
    3.3745  -15.2618   36.1138 C   0  0  0  0  0  0  0  0  0  0  0  0
    2.4339  -15.5212   30.7786 O   0  0  0  0  0  0  0  0  0  0  0  0
    3.0367   -5.1150   31.3057 C   0  0  2  0  0  0  0  0  0  0  0  0
    2.6908   -4.3183   30.1844 O   0  0  0  0  0  0  0  0  0  0  0  0
    3.4273   -9.7817   31.2377 C   0  0  2  0  0  0  0  0  0  0  0  0
    4.1197   -6.1607   30.9127 C   0  0  2  0  0  0  0  0  0  0  0  0
    4.4865   -6.9791   32.0429 O   0  0  0  0  0  0  0  0  0  0  0  0
    3.8812  -10.7960   32.3736 C   0  0  2  0  0  0  0  0  0  0  0  0
    4.7555  -10.0913   33.3053 O   0  0  0  0  0  0  0  0  0  0  0  0
    5.3455   -5.5170   30.3837 C   0  0  0  0  0  0  0  0  0  0  0  0
    6.1246   -5.1183   31.4132 N   0  0  0  0  0  0  0  0  0  0  0  0
    4.6439  -11.9936   31.7078 C   0  0  1  0  0  0  0  0  0  0  0  0
    5.0802  -12.8878   32.6814 O   0  0  0  0  0  0  0  0  0  0  0  0
  1  2  1  6  0  0  0
  1  5  1  0  0  0  0
  1 29  1  0  0  0  0
  3  4  1  6  0  0  0
  3  7  1  0  0  0  0
  3 34  1  0  0  0  0
  5  6  1  6  0  0  0
  5 16  1  0  0  0  0
  7 19  1  0  0  0  0
  8  4  1  0  0  0  0
  8 24  2  0  0  0  0
  9  8  1  1  0  0  0
  9 10  1  0  0  0  0
  9 13  1  0  0  0  0
 10 11  1  0  0  0  0
 11 12  1  0  0  0  0
 14 15  1  0  0  0  0
 14 35  1  0  0  0  0
 15 17  1  0  0  0  0
 16 18  1  1  0  0  0
 16 25  1  0  0  0  0
 19 20  1  6  0  0  0
 19 27  1  0  0  0  0
 21 22  1  0  0  0  0
 21 23  1  0  0  0  0
 23 17  1  0  0  0  0
 25 26  1  6  0  0  0
 25 28  1  0  0  0  0
 27  2  1  1  0  0  0
 27 30  1  0  0  0  0
 28 29  1  0  0  0  0
 28 32  1  1  0  0  0
 30 31  1  1  0  0  0
 30 34  1  0  0  0  0
 32 33  2  0  0  0  0
 34 35  1  1  0  0  0
M  END
>  <CHROM.1>
-176.91869023,-112.08309790,120.44330138,-67.23608726,-175.97985504,-176.98457600
-58.99578137,-65.88889205,60.32371215,-170.58195001,-174.96235730,82.51351002
-58.03098203,3.69463985,-11.14783251,32.10129965,2.38074725,1.39927189,-0.92068904

>  <Name>
2f4t_lig

>  <RI>
0

>  <Rbt.Current_Directory>
/home/itssahil/PROJECTS/Mol_Feturizer/New_Systems/rnas/2f4t

>  <Rbt.Executable>
rbdock ($Id: //depot/dev/client3/rdock/2013.1/src/exe/rbdock.cxx#4 $)

>  <Rbt.Library>
libRbt.so (2013.1, Build901 2013/11/27)

>  <Rbt.Parameter_File>
/export/apps/rDock/src/rDock_2013.1_src/data/scripts/dock_solv.prm

>  <Rbt.Receptor>
prm/pocket_docking_7.prm

>  <SCORE>
-13.8532

>  <SCORE.INTER>
-4.76539

>  <SCORE.INTER.CONST>
1

>  <SCORE.INTER.POLAR>
-1.71302

>  <SCORE.INTER.ROT>
13

>  <SCORE.INTER.SOLV>
8.62177

>  <SCORE.INTER.VDW>
-12.6075

>  <SCORE.INTER.norm>
-0.136154

>  <SCORE.INTRA>
-9.08786

>  <SCORE.INTRA.DIHEDRAL>
-18.1103

>  <SCORE.INTRA.DIHEDRAL.0>
23.8882

>  <SCORE.INTRA.POLAR>
0

>  <SCORE.INTRA.POLAR.0>
0

>  <SCORE.INTRA.REPUL>
0

>  <SCORE.INTRA.REPUL.0>
0

>  <SCORE.INTRA.SOLV>
0.160237

>  <SCORE.INTRA.SOLV.lig_0>
-97.6888

>  <SCORE.INTRA.VDW>
-0.112843

>  <SCORE.INTRA.VDW.0>
-3.9206

>  <SCORE.INTRA.norm>
-0.259653

>  <SCORE.RESTR>
0

>  <SCORE.RESTR.CAVITY>
0

>  <SCORE.RESTR.norm>
0

>  <SCORE.SYSTEM>
0

>  <SCORE.SYSTEM.CONST>
0

>  <SCORE.SYSTEM.DIHEDRAL>
0

>  <SCORE.SYSTEM.SOLV>
0

>  <SCORE.SYSTEM.norm>
0

>  <SCORE.heavy>
35

>  <SCORE.norm>
-0.395807

>  <RMSD>
6.743

$$$$
2f4t_lig
 OpenBabel11021811433D
libRbt.so/2013.1/901 2013/11/27
 35 36  0  0  0  0  0  0  0  0999 V2000
   -0.5701   -6.7959   21.5384 C   0  0  2  0  0  0  0  0  0  0  0  0
   -0.7056   -6.1256   22.8344 O   0  0  0  0  0  0  0  0  0  0  0  0
    1.7396   -5.8766   26.3863 C   0  0  2  0  0  0  0  0  0  0  0  0
    2.9340   -5.7717   27.2380 N   0  0  0  0  0  0  0  0  0  0  0  0
   -1.7383   -6.2589   20.6573 C   0  0  2  0  0  0  0  0  0  0  0  0
   -1.6917   -4.8181   20.5721 N   0  0  0  0  0  0  0  0  0  0  0  0
    1.9404   -7.0448   25.3525 C   0  0  0  0  0  0  0  0  0  0  0  0
    4.3090   -5.2421   26.2645 C   0  0  0  0  0  0  0  0  0  0  0  0
    5.1068   -5.3107   27.5479 C   0  0  1  0  0  0  0  0  0  0  0  0
    5.6097   -6.7477   27.7025 C   0  0  0  0  0  0  0  0  0  0  0  0
    6.2895   -7.0745   29.0428 C   0  0  0  0  0  0  0  0  0  0  0  0
    6.6220   -8.5022   29.0569 N   0  0  0  0  0  0  0  0  0  0  0  0
    6.2554   -4.5078   27.4682 O   0  0  0  0  0  0  0  0  0  0  0  0
    1.0949   -2.1806   26.9758 C   0  0  0  0  0  0  0  0  0  0  0  0
    1.5450   -2.0709   28.4246 C   0  0  0  0  0  0  0  0  0  0  0  0
   -3.1127   -6.7332   21.2388 C   0  0  1  0  0  0  0  0  0  0  0  0
    3.0126   -2.1457   28.5950 N   0  0  0  0  0  0  0  0  0  0  0  0
   -4.1871   -6.2600   20.4501 O   0  0  0  0  0  0  0  0  0  0  0  0
    0.7289   -7.2008   24.4228 C   0  0  2  0  0  0  0  0  0  0  0  0
    0.9556   -8.2627   23.4475 N   0  0  0  0  0  0  0  0  0  0  0  0
    4.8671   -0.5856   29.1938 C   0  0  0  0  0  0  0  0  0  0  0  0
    4.1585   -0.0055   30.4600 N   0  0  0  0  0  0  0  0  0  0  0  0
    3.8806   -1.0484   28.0812 C   0  0  0  0  0  0  0  0  0  0  0  0
    4.4486   -4.9989   25.2347 O   0  0  0  0  0  0  0  0  0  0  0  0
   -3.1065   -8.2648   21.2838 C   0  0  2  0  0  0  0  0  0  0  0  0
   -4.3336   -8.7631   21.7915 O   0  0  0  0  0  0  0  0  0  0  0  0
    0.4567   -5.9100   23.6916 C   0  0  2  0  0  0  0  0  0  0  0  0
   -1.9180   -8.7650   22.1546 C   0  0  2  0  0  0  0  0  0  0  0  0
   -0.6600   -8.2700   21.6507 O   0  0  0  0  0  0  0  0  0  0  0  0
    0.2217   -4.7309   24.7305 C   0  0  2  0  0  0  0  0  0  0  0  0
   -0.0439   -3.5026   23.9891 O   0  0  0  0  0  0  0  0  0  0  0  0
   -1.8522  -10.2449   22.2048 C   0  0  0  0  0  0  0  0  0  0  0  0
   -2.2353  -10.6711   23.4284 N   0  0  0  0  0  0  0  0  0  0  0  0
    1.5082   -4.5694   25.6126 C   0  0  1  0  0  0  0  0  0  0  0  0
    1.3445   -3.5232   26.5163 O   0  0  0  0  0  0  0  0  0  0  0  0
  1  2  1  1  0  0  0
  1  5  1  0  0  0  0
  1 29  1  0  0  0  0
  3  4  1  6  0  0  0
  3  7  1  0  0  0  0
  3 34  1  0  0  0  0
  5  6  1  1  0  0  0
  5 16  1  0  0  0  0
  7 19  1  0  0  0  0
  8  4  1  0  0  0  0
  8 24  2  0  0  0  0
  9  8  1  6  0  0  0
  9 10  1  0  0  0  0
  9 13  1  0  0  0  0
 10 11  1  0  0  0  0
 11 12  1  0  0  0  0
 14 15  1  0  0  0  0
 14 35  1  0  0  0  0
 15 17  1  0  0  0  0
 16 18  1  6  0  0  0
 16 25  1  0  0  0  0
 19 20  1  6  0  0  0
 19 27  1  0  0  0  0
 21 22  1  0  0  0  0
 21 23  1  0  0  0  0
 23 17  1  0  0  0  0
 25 26  1  1  0  0  0
 25 28  1  0  0  0  0
 27  2  1  1  0  0  0
 27 30  1  0  0  0  0
 28 29  1  0  0  0  0
 28 32  1  6  0  0  0
 30 31  1  6  0  0  0
 30 34  1  0  0  0  0
 32 33  2  0  0  0  0
 34 35  1  1  0  0  0
M  END
>  <CHROM.1>
-153.26882651,66.87531549,86.37821340,-172.21302652,176.10998348,69.09207631
-164.60889758,67.54429467,-61.75327808,130.16330399,-80.55164877,-107.78425861
-176.89592826,1.21664007,-5.65777505,24.99895709,2.53905068,0.65060932,-2.85132045

>  <Name>
2f4t_lig

>  <RI>
0

>  <Rbt.Current_Directory>
/home/itssahil/PROJECTS/Mol_Feturizer/New_Systems/rnas/2f4t

>  <Rbt.Executable>
rbdock ($Id: //depot/dev/client3/rdock/2013.1/src/exe/rbdock.cxx#4 $)

>  <Rbt.Library>
libRbt.so (2013.1, Build901 2013/11/27)

>  <Rbt.Parameter_File>
/export/apps/rDock/src/rDock_2013.1_src/data/scripts/dock_solv.prm

>  <Rbt.Receptor>
prm/pocket_docking_7.prm

>  <SCORE>
-10.7593

>  <SCORE.INTER>
-6.91281

>  <SCORE.INTER.CONST>
1

>  <SCORE.INTER.POLAR>
-0.524084

>  <SCORE.INTER.ROT>
13

>  <SCORE.INTER.SOLV>
16.4331

>  <SCORE.INTER.VDW>
-20.606

>  <SCORE.INTER.norm>
-0.197509

>  <SCORE.INTRA>
-3.84653

>  <SCORE.INTRA.DIHEDRAL>
-13.7306

>  <SCORE.INTRA.DIHEDRAL.0>
23.8882

>  <SCORE.INTRA.POLAR>
0

>  <SCORE.INTRA.POLAR.0>
0

>  <SCORE.INTRA.REPUL>
0

>  <SCORE.INTRA.REPUL.0>
0

>  <SCORE.INTRA.SOLV>
5.07714

>  <SCORE.INTRA.SOLV.lig_0>
-97.6888

>  <SCORE.INTRA.VDW>
0.480223

>  <SCORE.INTRA.VDW.0>
-3.9206

>  <SCORE.INTRA.norm>
-0.109901

>  <SCORE.RESTR>
0

>  <SCORE.RESTR.CAVITY>
0

>  <SCORE.RESTR.norm>
0

>  <SCORE.SYSTEM>
0

>  <SCORE.SYSTEM.CONST>
0

>  <SCORE.SYSTEM.DIHEDRAL>
0

>  <SCORE.SYSTEM.SOLV>
0

>  <SCORE.SYSTEM.norm>
0

>  <SCORE.heavy>
35

>  <SCORE.norm>
-0.30741

>  <RMSD>
6.806

$$$$
2f4t_lig
 OpenBabel11021811433D
libRbt.so/2013.1/901 2013/11/27
 35 36  0  0  0  0  0  0  0  0999 V2000
    8.9713   -6.2283   28.0683 C   0  0  2  0  0  0  0  0  0  0  0  0
    7.6696   -5.7794   28.5697 O   0  0  0  0  0  0  0  0  0  0  0  0
    3.9843   -7.8182   29.5281 C   0  0  2  0  0  0  0  0  0  0  0  0
    2.7297   -8.5640   29.3479 N   0  0  0  0  0  0  0  0  0  0  0  0
    9.9890   -5.1194   28.4736 C   0  0  2  0  0  0  0  0  0  0  0  0
    9.9620   -4.8997   29.9006 N   0  0  0  0  0  0  0  0  0  0  0  0
    3.9865   -6.5680   28.5740 C   0  0  0  0  0  0  0  0  0  0  0  0
    1.4214   -7.7324   30.1939 C   0  0  0  0  0  0  0  0  0  0  0  0
    0.5293   -8.8414   29.6814 C   0  0  1  0  0  0  0  0  0  0  0  0
   -0.8442   -8.6674   30.3333 C   0  0  0  0  0  0  0  0  0  0  0  0
   -0.9033   -8.9429   31.8452 C   0  0  0  0  0  0  0  0  0  0  0  0
   -0.5689  -10.3521   32.0721 N   0  0  0  0  0  0  0  0  0  0  0  0
    0.3176   -8.7168   28.2995 O   0  0  0  0  0  0  0  0  0  0  0  0
    5.6963  -11.0147   30.6447 C   0  0  0  0  0  0  0  0  0  0  0  0
    4.5243  -11.7724   31.2493 C   0  0  0  0  0  0  0  0  0  0  0  0
    9.6728   -3.7922   27.7048 C   0  0  1  0  0  0  0  0  0  0  0  0
    4.8298  -13.1872   31.5556 N   0  0  0  0  0  0  0  0  0  0  0  0
   10.5889   -2.7732   28.0550 O   0  0  0  0  0  0  0  0  0  0  0  0
    5.2785   -5.7496   28.7060 C   0  0  2  0  0  0  0  0  0  0  0  0
    5.2744   -4.6193   27.7826 N   0  0  0  0  0  0  0  0  0  0  0  0
    3.7225  -13.9027   33.6754 C   0  0  0  0  0  0  0  0  0  0  0  0
    3.8744  -14.2747   35.1855 N   0  0  0  0  0  0  0  0  0  0  0  0
    5.0763  -13.6096   32.9635 C   0  0  0  0  0  0  0  0  0  0  0  0
    1.3556   -6.8463   30.7851 O   0  0  0  0  0  0  0  0  0  0  0  0
    9.7374   -4.0865   26.2025 C   0  0  2  0  0  0  0  0  0  0  0  0
    9.4717   -2.9177   25.4440 O   0  0  0  0  0  0  0  0  0  0  0  0
    6.4810   -6.6143   28.4209 C   0  0  2  0  0  0  0  0  0  0  0  0
    8.7240   -5.2095   25.8380 C   0  0  2  0  0  0  0  0  0  0  0  0
    8.9811   -6.4084   26.5983 O   0  0  0  0  0  0  0  0  0  0  0  0
    6.5024   -7.8636   29.4026 C   0  0  2  0  0  0  0  0  0  0  0  0
    7.6794   -8.6720   29.1025 O   0  0  0  0  0  0  0  0  0  0  0  0
    8.7700   -5.5509   24.3963 C   0  0  0  0  0  0  0  0  0  0  0  0
    7.5155   -5.5549   23.8946 N   0  0  0  0  0  0  0  0  0  0  0  0
    5.1944   -8.7010   29.1851 C   0  0  1  0  0  0  0  0  0  0  0  0
    5.1959   -9.8205   30.0125 O   0  0  0  0  0  0  0  0  0  0  0  0
  1  2  1  6  0  0  0
  1  5  1  0  0  0  0
  1 29  1  0  0  0  0
  3  4  1  6  0  0  0
  3  7  1  0  0  0  0
  3 34  1  0  0  0  0
  5  6  1  1  0  0  0
  5 16  1  0  0  0  0
  7 19  1  0  0  0  0
  8  4  1  0  0  0  0
  8 24  2  0  0  0  0
  9  8  1  1  0  0  0
  9 10  1  0  0  0  0
  9 13  1  0  0  0  0
 10 11  1  0  0  0  0
 11 12  1  0  0  0  0
 14 15  1  0  0  0  0
 14 35  1  0  0  0  0
 15 17  1  0  0  0  0
 16 18  1  6  0  0  0
 16 25  1  0  0  0  0
 19 20  1  6  0  0  0
 19 27  1  0  0  0  0
 21 22  1  0  0  0  0
 21 23  1  0  0  0  0
 23 17  1  0  0  0  0
 25 26  1  6  0  0  0
 25 28  1  0  0  0  0
 27  2  1  1  0  0  0
 27 30  1  0  0  0  0
 28 29  1  0  0  0  0
 28 32  1  6  0  0  0
 30 31  1  6  0  0  0
 30 34  1  0  0  0  0
 32 33  2  0  0  0  0
 34 35  1  1  0  0  0
M  END
>  <CHROM.1>
-177.10444204,-77.46830243,172.93628463,-68.88411652,-63.27061678,162.28042725
-163.64354154,103.79602939,-176.66335175,84.64807304,-165.88907715,-130.61741593
-168.48563796,5.47789334,-7.74287644,29.19025935,-0.86148218,-0.04307476
2.52133208

>  <Name>
2f4t_lig

>  <RI>
0

>  <Rbt.Current_Directory>
/home/itssahil/PROJECTS/Mol_Feturizer/New_Systems/rnas/2f4t

>  <Rbt.Executable>
rbdock ($Id: //depot/dev/client3/rdock/2013.1/src/exe/rbdock.cxx#4 $)

>  <Rbt.Library>
libRbt.so (2013.1, Build901 2013/11/27)

>  <Rbt.Parameter_File>
/export/apps/rDock/src/rDock_2013.1_src/data/scripts/dock_solv.prm

>  <Rbt.Receptor>
prm/pocket_docking_8.prm

>  <SCORE>
-16.8102

>  <SCORE.INTER>
-9.05061

>  <SCORE.INTER.CONST>
1

>  <SCORE.INTER.POLAR>
-2.46388

>  <SCORE.INTER.ROT>
13

>  <SCORE.INTER.SOLV>
8.1322

>  <SCORE.INTER.VDW>
-12.7982

>  <SCORE.INTER.norm>
-0.258589

>  <SCORE.INTRA>
-7.75962

>  <SCORE.INTRA.DIHEDRAL>
-16.1333

>  <SCORE.INTRA.DIHEDRAL.0>
23.8882

>  <SCORE.INTRA.POLAR>
0

>  <SCORE.INTRA.POLAR.0>
0

>  <SCORE.INTRA.REPUL>
0

>  <SCORE.INTRA.REPUL.0>
0

>  <SCORE.INTRA.SOLV>
-0.0571856

>  <SCORE.INTRA.SOLV.lig_0>
-97.6888

>  <SCORE.INTRA.VDW>
0.335647

>  <SCORE.INTRA.VDW.0>
-3.9206

>  <SCORE.INTRA.norm>
-0.221703

>  <SCORE.RESTR>
0

>  <SCORE.RESTR.CAVITY>
0

>  <SCORE.RESTR.norm>
0

>  <SCORE.SYSTEM>
0

>  <SCORE.SYSTEM.CONST>
0

>  <SCORE.SYSTEM.DIHEDRAL>
0

>  <SCORE.SYSTEM.SOLV>
0

>  <SCORE.SYSTEM.norm>
0

>  <SCORE.heavy>
35

>  <SCORE.norm>
-0.480292

>  <RMSD>
6.814

$$$$
2f4t_lig
 OpenBabel11021811433D
libRbt.so/2013.1/901 2013/11/27
 35 36  0  0  0  0  0  0  0  0999 V2000
    8.2646   -7.0265   28.4984 C   0  0  2  0  0  0  0  0  0  0  0  0
    7.5755   -6.5553   29.7027 O   0  0  0  0  0  0  0  0  0  0  0  0
    4.3717   -8.3090   32.0087 C   0  0  2  0  0  0  0  0  0  0  0  0
    3.0146   -8.7138   32.4048 N   0  0  0  0  0  0  0  0  0  0  0  0
    9.7147   -6.4621   28.5895 C   0  0  2  0  0  0  0  0  0  0  0  0
   10.3472   -6.8779   29.8193 N   0  0  0  0  0  0  0  0  0  0  0  0
    4.3808   -6.7696   31.6864 C   0  0  0  0  0  0  0  0  0  0  0  0
    3.1099   -9.9314   33.6804 C   0  0  0  0  0  0  0  0  0  0  0  0
    1.5974   -9.9218   33.6547 C   0  0  1  0  0  0  0  0  0  0  0  0
    1.1150  -11.1568   34.4188 C   0  0  0  0  0  0  0  0  0  0  0  0
   -0.4039  -11.3976   34.4040 C   0  0  0  0  0  0  0  0  0  0  0  0
   -0.6816  -12.6454   35.1215 N   0  0  0  0  0  0  0  0  0  0  0  0
    1.0907   -8.8150   34.3537 O   0  0  0  0  0  0  0  0  0  0  0  0
    5.1739  -11.6878   31.6467 C   0  0  0  0  0  0  0  0  0  0  0  0
    4.2275  -12.7747   31.1604 C   0  0  0  0  0  0  0  0  0  0  0  0
    9.6917   -4.9000   28.4815 C   0  0  1  0  0  0  0  0  0  0  0  0
    4.7441  -14.1452   31.3690 N   0  0  0  0  0  0  0  0  0  0  0  0
   10.9997   -4.3674   28.5572 O   0  0  0  0  0  0  0  0  0  0  0  0
    5.7713   -6.2835   31.2545 C   0  0  2  0  0  0  0  0  0  0  0  0
    5.7451   -4.8626   30.9221 N   0  0  0  0  0  0  0  0  0  0  0  0
    4.4483  -16.2314   32.7075 C   0  0  0  0  0  0  0  0  0  0  0  0
    4.5776  -16.9416   34.0935 N   0  0  0  0  0  0  0  0  0  0  0  0
    4.8094  -14.7170   32.7439 C   0  0  0  0  0  0  0  0  0  0  0  0
    3.9093  -10.4156   34.1958 O   0  0  0  0  0  0  0  0  0  0  0  0
    9.0299   -4.5254   27.1513 C   0  0  2  0  0  0  0  0  0  0  0  0
    8.9878   -3.1176   26.9835 O   0  0  0  0  0  0  0  0  0  0  0  0
    6.2519   -7.0613   30.0549 C   0  0  2  0  0  0  0  0  0  0  0  0
    7.5937   -5.1207   27.0873 C   0  0  2  0  0  0  0  0  0  0  0  0
    7.6171   -6.5537   27.2532 O   0  0  0  0  0  0  0  0  0  0  0  0
    6.2752   -8.6158   30.3835 C   0  0  2  0  0  0  0  0  0  0  0  0
    6.7497   -9.3341   29.2054 O   0  0  0  0  0  0  0  0  0  0  0  0
    6.9214   -4.8092   25.8036 C   0  0  0  0  0  0  0  0  0  0  0  0
    7.1867   -5.7856   24.9081 N   0  0  0  0  0  0  0  0  0  0  0  0
    4.8232   -9.0764   30.7564 C   0  0  1  0  0  0  0  0  0  0  0  0
    4.8047  -10.4426   31.0229 O   0  0  0  0  0  0  0  0  0  0  0  0
  1  2  1  1  0  0  0
  1  5  1  0  0  0  0
  1 29  1  0  0  0  0
  3  4  1  6  0  0  0
  3  7  1  0  0  0  0
  3 34  1  0  0  0  0
  5  6  1  1  0  0  0
  5 16  1  0  0  0  0
  7 19  1  0  0  0  0
  8  4  1  0  0  0  0
  8 24  2  0  0  0  0
  9  8  1  1  0  0  0
  9 10  1  0  0  0  0
  9 13  1  0  0  0  0
 10 11  1  0  0  0  0
 11 12  1  0  0  0  0
 14 15  1  0  0  0  0
 14 35  1  0  0  0  0
 15 17  1  0  0  0  0
 16 18  1  6  0  0  0
 16 25  1  0  0  0  0
 19 20  1  6  0  0  0
 19 27  1  0  0  0  0
 21 22  1  0  0  0  0
 21 23  1  0  0  0  0
 23 17  1  0  0  0  0
 25 26  1  1  0  0  0
 25 28  1  0  0  0  0
 27  2  1  1  0  0  0
 27 30  1  0  0  0  0
 28 29  1  0  0  0  0
 28 32  1  6  0  0  0
 30 31  1  6  0  0  0
 30 34  1  0  0  0  0
 32 33  2  0  0  0  0
 34 35  1  1  0  0  0
M  END
>  <CHROM.1>
-170.58760976,-143.17634150,165.64206084,-174.90188822,177.31179342,161.43721004
173.80761590,71.77119730,176.33210176,142.52114961,-174.41258712,89.86699371
-64.41156087,5.54968372,-8.75289135,30.74550515,-0.84927644,-0.61715290,2.94939058

>  <Name>
2f4t_lig

>  <RI>
0

>  <Rbt.Current_Directory>
/home/itssahil/PROJECTS/Mol_Feturizer/New_Systems/rnas/2f4t

>  <Rbt.Executable>
rbdock ($Id: //depot/dev/client3/rdock/2013.1/src/exe/rbdock.cxx#4 $)

>  <Rbt.Library>
libRbt.so (2013.1, Build901 2013/11/27)

>  <Rbt.Parameter_File>
/export/apps/rDock/src/rDock_2013.1_src/data/scripts/dock_solv.prm

>  <Rbt.Receptor>
prm/pocket_docking_6.prm

>  <SCORE>
-18.2503

>  <SCORE.INTER>
-9.51937

>  <SCORE.INTER.CONST>
1

>  <SCORE.INTER.POLAR>
-3.51963

>  <SCORE.INTER.ROT>
13

>  <SCORE.INTER.SOLV>
9.52098

>  <SCORE.INTER.VDW>
-10.0545

>  <SCORE.INTER.norm>
-0.271982

>  <SCORE.INTRA>
-8.77542

>  <SCORE.INTRA.DIHEDRAL>
-17.4764

>  <SCORE.INTRA.DIHEDRAL.0>
23.8882

>  <SCORE.INTRA.POLAR>
0

>  <SCORE.INTRA.POLAR.0>
0

>  <SCORE.INTRA.REPUL>
0

>  <SCORE.INTRA.REPUL.0>
0

>  <SCORE.INTRA.SOLV>
-0.974977

>  <SCORE.INTRA.SOLV.lig_0>
-97.6888

>  <SCORE.INTRA.VDW>
0.450247

>  <SCORE.INTRA.VDW.0>
-3.9206

>  <SCORE.INTRA.norm>
-0.250726

>  <SCORE.RESTR>
0.0444887

>  <SCORE.RESTR.CAVITY>
0.0444887

>  <SCORE.RESTR.norm>
0.00127111

>  <SCORE.SYSTEM>
0

>  <SCORE.SYSTEM.CONST>
0

>  <SCORE.SYSTEM.DIHEDRAL>
0

>  <SCORE.SYSTEM.SOLV>
0

>  <SCORE.SYSTEM.norm>
0

>  <SCORE.heavy>
35

>  <SCORE.norm>
-0.521437

>  <RMSD>
6.954

$$$$
2f4t_lig
 OpenBabel11021811433D
libRbt.so/2013.1/901 2013/11/27
 35 36  0  0  0  0  0  0  0  0999 V2000
    7.6040   -4.0534   32.6559 C   0  0  2  0  0  0  0  0  0  0  0  0
    6.4721   -4.7081   33.3173 O   0  0  0  0  0  0  0  0  0  0  0  0
    6.2836   -8.4580   31.1820 C   0  0  2  0  0  0  0  0  0  0  0  0
    5.9723   -9.8635   30.8812 N   0  0  0  0  0  0  0  0  0  0  0  0
    7.6874   -2.6235   33.2709 C   0  0  2  0  0  0  0  0  0  0  0  0
    7.8170   -2.6934   34.7075 N   0  0  0  0  0  0  0  0  0  0  0  0
    6.9746   -8.3698   32.5921 C   0  0  0  0  0  0  0  0  0  0  0  0
    4.7947  -10.4708   32.0488 C   0  0  0  0  0  0  0  0  0  0  0  0
    4.8765  -11.7770   31.2904 C   0  0  1  0  0  0  0  0  0  0  0  0
    4.1454  -12.8372   32.1169 C   0  0  0  0  0  0  0  0  0  0  0  0
    4.8629  -13.2941   33.3982 C   0  0  0  0  0  0  0  0  0  0  0  0
    4.0488  -14.3307   34.0398 N   0  0  0  0  0  0  0  0  0  0  0  0
    4.1840  -11.6941   30.0723 O   0  0  0  0  0  0  0  0  0  0  0  0
    3.4164   -7.3917   28.9340 C   0  0  0  0  0  0  0  0  0  0  0  0
    3.5976   -8.3896   27.8005 C   0  0  0  0  0  0  0  0  0  0  0  0
    6.4227   -1.7913   32.8707 C   0  0  1  0  0  0  0  0  0  0  0  0
    3.0068   -7.9432   26.5198 N   0  0  0  0  0  0  0  0  0  0  0  0
    6.4809   -0.4873   33.4153 O   0  0  0  0  0  0  0  0  0  0  0  0
    7.3171   -6.9225   32.9721 C   0  0  2  0  0  0  0  0  0  0  0  0
    7.9195   -6.8625   34.3001 N   0  0  0  0  0  0  0  0  0  0  0  0
    1.1527   -7.3472   24.9583 C   0  0  0  0  0  0  0  0  0  0  0  0
    1.9854   -6.2009   24.2992 N   0  0  0  0  0  0  0  0  0  0  0  0
    1.5500   -7.6400   26.4353 C   0  0  0  0  0  0  0  0  0  0  0  0
    4.2898  -10.0518   32.8906 O   0  0  0  0  0  0  0  0  0  0  0  0
    6.3539   -1.7373   31.3409 C   0  0  2  0  0  0  0  0  0  0  0  0
    5.2326   -0.9838   30.9091 O   0  0  0  0  0  0  0  0  0  0  0  0
    6.0758   -6.0659   32.9550 C   0  0  2  0  0  0  0  0  0  0  0  0
    6.2914   -3.1801   30.7617 C   0  0  2  0  0  0  0  0  0  0  0  0
    7.4269   -3.9612   31.1884 O   0  0  0  0  0  0  0  0  0  0  0  0
    5.3890   -6.1253   31.5233 C   0  0  2  0  0  0  0  0  0  0  0  0
    4.1981   -5.2823   31.5424 O   0  0  0  0  0  0  0  0  0  0  0  0
    6.2530   -3.1812   29.2800 C   0  0  0  0  0  0  0  0  0  0  0  0
    4.9844   -3.3870   28.8628 N   0  0  0  0  0  0  0  0  0  0  0  0
    5.0012   -7.6119   31.2090 C   0  0  1  0  0  0  0  0  0  0  0  0
    4.3704   -7.6937   29.9707 O   0  0  0  0  0  0  0  0  0  0  0  0
  1  2  1  1  0  0  0
  1  5  1  0  0  0  0
  1 29  1  0  0  0  0
  3  4  1  1  0  0  0
  3  7  1  0  0  0  0
  3 34  1  0  0  0  0
  5  6  1  1  0  0  0
  5 16  1  0  0  0  0
  7 19  1  0  0  0  0
  8  4  1  0  0  0  0
  8 24  2  0  0  0  0
  9  8  1  1  0  0  0
  9 10  1  0  0  0  0
  9 13  1  0  0  0  0
 10 11  1  0  0  0  0
 11 12  1  0  0  0  0
 14 15  1  0  0  0  0
 14 35  1  0  0  0  0
 15 17  1  0  0  0  0
 16 18  1  1  0  0  0
 16 25  1  0  0  0  0
 19 20  1  1  0  0  0
 19 27  1  0  0  0  0
 21 22  1  0  0  0  0
 21 23  1  0  0  0  0
 23 17  1  0  0  0  0
 25 26  1  1  0  0  0
 25 28  1  0  0  0  0
 27  2  1  6  0  0  0
 27 30  1  0  0  0  0
 28 29  1  0  0  0  0
 28 32  1  6  0  0  0
 30 31  1  1  0  0  0
 30 34  1  0  0  0  0
 32 33  2  0  0  0  0
 34 35  1  6  0  0  0
M  END
>  <CHROM.1>
178.31285867,63.93518459,169.53561245,-71.93358991,-178.34969038,-161.31164299
-172.61038418,-59.07220100,-55.69862277,-173.76323233,49.46796977,-101.16747433
-172.10039475,5.24844158,-6.70986572,31.04112117,-0.97559061,1.02875292,2.79684399

>  <Name>
2f4t_lig

>  <RI>
0

>  <Rbt.Current_Directory>
/home/itssahil/PROJECTS/Mol_Feturizer/New_Systems/rnas/2f4t

>  <Rbt.Executable>
rbdock ($Id: //depot/dev/client3/rdock/2013.1/src/exe/rbdock.cxx#4 $)

>  <Rbt.Library>
libRbt.so (2013.1, Build901 2013/11/27)

>  <Rbt.Parameter_File>
/export/apps/rDock/src/rDock_2013.1_src/data/scripts/dock_solv.prm

>  <Rbt.Receptor>
prm/pocket_docking_5.prm

>  <SCORE>
-9.18332

>  <SCORE.INTER>
-0.635002

>  <SCORE.INTER.CONST>
1

>  <SCORE.INTER.POLAR>
-0.938083

>  <SCORE.INTER.ROT>
13

>  <SCORE.INTER.SOLV>
17.5971

>  <SCORE.INTER.VDW>
-15.4288

>  <SCORE.INTER.norm>
-0.0181429

>  <SCORE.INTRA>
-8.54832

>  <SCORE.INTRA.DIHEDRAL>
-19.0231

>  <SCORE.INTRA.DIHEDRAL.0>
23.8882

>  <SCORE.INTRA.POLAR>
0

>  <SCORE.INTRA.POLAR.0>
0

>  <SCORE.INTRA.REPUL>
0

>  <SCORE.INTRA.REPUL.0>
0

>  <SCORE.INTRA.SOLV>
1.88569

>  <SCORE.INTRA.SOLV.lig_0>
-97.6888

>  <SCORE.INTRA.VDW>
0.0203656

>  <SCORE.INTRA.VDW.0>
-3.9206

>  <SCORE.INTRA.norm>
-0.244238

>  <SCORE.RESTR>
0

>  <SCORE.RESTR.CAVITY>
0

>  <SCORE.RESTR.norm>
0

>  <SCORE.SYSTEM>
0

>  <SCORE.SYSTEM.CONST>
0

>  <SCORE.SYSTEM.DIHEDRAL>
0

>  <SCORE.SYSTEM.SOLV>
0

>  <SCORE.SYSTEM.norm>
0

>  <SCORE.heavy>
35

>  <SCORE.norm>
-0.262381

>  <RMSD>
7.013

$$$$
2f4t_lig
 OpenBabel11021811433D
libRbt.so/2013.1/901 2013/11/27
 35 36  0  0  0  0  0  0  0  0999 V2000
    7.7618   -5.3731   27.7917 C   0  0  2  0  0  0  0  0  0  0  0  0
    7.1989   -6.7260   27.8052 O   0  0  0  0  0  0  0  0  0  0  0  0
    3.1887   -8.1038   28.6283 C   0  0  2  0  0  0  0  0  0  0  0  0
    1.9916   -8.5021   29.3839 N   0  0  0  0  0  0  0  0  0  0  0  0
    9.0526   -5.4578   26.9222 C   0  0  2  0  0  0  0  0  0  0  0  0
    8.7486   -5.9721   25.6074 N   0  0  0  0  0  0  0  0  0  0  0  0
    4.4364   -8.8836   29.1839 C   0  0  0  0  0  0  0  0  0  0  0  0
    1.6253  -10.1989   29.0588 C   0  0  0  0  0  0  0  0  0  0  0  0
    0.4612  -10.0182   30.0077 C   0  0  1  0  0  0  0  0  0  0  0  0
   -0.2580  -11.3645   30.1176 C   0  0  0  0  0  0  0  0  0  0  0  0
   -1.5505  -11.3628   30.9510 C   0  0  0  0  0  0  0  0  0  0  0  0
   -2.0716  -12.7321   30.9997 N   0  0  0  0  0  0  0  0  0  0  0  0
    0.9114   -9.7160   31.3024 O   0  0  0  0  0  0  0  0  0  0  0  0
    1.5397   -4.7544   27.9318 C   0  0  0  0  0  0  0  0  0  0  0  0
    1.3459   -3.8778   29.1596 C   0  0  0  0  0  0  0  0  0  0  0  0
   10.1216   -6.3553   27.6323 C   0  0  1  0  0  0  0  0  0  0  0  0
    2.6134   -3.3714   29.7303 N   0  0  0  0  0  0  0  0  0  0  0  0
   11.3040   -6.4415   26.8609 O   0  0  0  0  0  0  0  0  0  0  0  0
    5.7255   -8.5038   28.4420 C   0  0  2  0  0  0  0  0  0  0  0  0
    6.8743   -9.2090   29.0017 N   0  0  0  0  0  0  0  0  0  0  0  0
    2.4743   -0.8811   29.8329 C   0  0  0  0  0  0  0  0  0  0  0  0
    2.7278   -0.7014   31.3644 N   0  0  0  0  0  0  0  0  0  0  0  0
    3.2109   -2.1066   29.2158 C   0  0  0  0  0  0  0  0  0  0  0  0
    2.0676  -10.9581   28.4529 O   0  0  0  0  0  0  0  0  0  0  0  0
   10.4146   -5.7471   29.0077 C   0  0  2  0  0  0  0  0  0  0  0  0
   11.3892   -6.5081   29.7025 O   0  0  0  0  0  0  0  0  0  0  0  0
    5.9673   -7.0178   28.5333 C   0  0  2  0  0  0  0  0  0  0  0  0
    9.1025   -5.6602   29.8396 C   0  0  2  0  0  0  0  0  0  0  0  0
    8.0996   -4.8863   29.1491 O   0  0  0  0  0  0  0  0  0  0  0  0
    4.7234   -6.2233   27.9447 C   0  0  2  0  0  0  0  0  0  0  0  0
    4.9947   -4.7931   28.0438 O   0  0  0  0  0  0  0  0  0  0  0  0
    9.3299   -5.0498   31.1710 C   0  0  0  0  0  0  0  0  0  0  0  0
   10.1462   -5.8449   31.8971 N   0  0  0  0  0  0  0  0  0  0  0  0
    3.4459   -6.5959   28.7746 C   0  0  1  0  0  0  0  0  0  0  0  0
    2.3417   -5.8932   28.3006 O   0  0  0  0  0  0  0  0  0  0  0  0
  1  2  1  1  0  0  0
  1  5  1  0  0  0  0
  1 29  1  0  0  0  0
  3  4  1  1  0  0  0
  3  7  1  0  0  0  0
  3 34  1  0  0  0  0
  5  6  1  6  0  0  0
  5 16  1  0  0  0  0
  7 19  1  0  0  0  0
  8  4  1  0  0  0  0
  8 24  2  0  0  0  0
  9  8  1  6  0  0  0
  9 10  1  0  0  0  0
  9 13  1  0  0  0  0
 10 11  1  0  0  0  0
 11 12  1  0  0  0  0
 14 15  1  0  0  0  0
 14 35  1  0  0  0  0
 15 17  1  0  0  0  0
 16 18  1  6  0  0  0
 16 25  1  0  0  0  0
 19 20  1  1  0  0  0
 19 27  1  0  0  0  0
 21 22  1  0  0  0  0
 21 23  1  0  0  0  0
 23 17  1  0  0  0  0
 25 26  1  1  0  0  0
 25 28  1  0  0  0  0
 27  2  1  6  0  0  0
 27 30  1  0  0  0  0
 28 29  1  0  0  0  0
 28 32  1  1  0  0  0
 30 31  1  1  0  0  0
 30 34  1  0  0  0  0
 32 33  2  0  0  0  0
 34 35  1  6  0  0  0
M  END
>  <CHROM.1>
-179.87052306,-66.32688179,-178.72910706,-175.06230070,-177.54999934,60.10942357
-59.51240535,87.05487857,68.67930842,79.09258792,-175.43464770,-64.28166642
-176.29076821,4.90682938,-6.73237509,29.07505428,-0.41907272,-0.15142591
-3.12906123

>  <Name>
2f4t_lig

>  <RI>
0

>  <Rbt.Current_Directory>
/home/itssahil/PROJECTS/Mol_Feturizer/New_Systems/rnas/2f4t

>  <Rbt.Executable>
rbdock ($Id: //depot/dev/client3/rdock/2013.1/src/exe/rbdock.cxx#4 $)

>  <Rbt.Library>
libRbt.so (2013.1, Build901 2013/11/27)

>  <Rbt.Parameter_File>
/export/apps/rDock/src/rDock_2013.1_src/data/scripts/dock_solv.prm

>  <Rbt.Receptor>
prm/pocket_docking_7.prm

>  <SCORE>
-12.1535

>  <SCORE.INTER>
-4.07514

>  <SCORE.INTER.CONST>
1

>  <SCORE.INTER.POLAR>
-1.12135

>  <SCORE.INTER.ROT>
13

>  <SCORE.INTER.SOLV>
14.3519

>  <SCORE.INTER.VDW>
-16.0296

>  <SCORE.INTER.norm>
-0.116432

>  <SCORE.INTRA>
-8.07839

>  <SCORE.INTRA.DIHEDRAL>
-19.8616

>  <SCORE.INTRA.DIHEDRAL.0>
23.8882

>  <SCORE.INTRA.POLAR>
0

>  <SCORE.INTRA.POLAR.0>
0

>  <SCORE.INTRA.REPUL>
0

>  <SCORE.INTRA.REPUL.0>
0

>  <SCORE.INTRA.SOLV>
1.45743

>  <SCORE.INTRA.SOLV.lig_0>
-97.6888

>  <SCORE.INTRA.VDW>
1.12369

>  <SCORE.INTRA.VDW.0>
-3.9206

>  <SCORE.INTRA.norm>
-0.230811

>  <SCORE.RESTR>
0

>  <SCORE.RESTR.CAVITY>
0

>  <SCORE.RESTR.norm>
0

>  <SCORE.SYSTEM>
0

>  <SCORE.SYSTEM.CONST>
0

>  <SCORE.SYSTEM.DIHEDRAL>
0

>  <SCORE.SYSTEM.SOLV>
0

>  <SCORE.SYSTEM.norm>
0

>  <SCORE.heavy>
35

>  <SCORE.norm>
-0.347244

>  <RMSD>
7.049

$$$$
2f4t_lig
 OpenBabel11021811433D
libRbt.so/2013.1/901 2013/11/27
 35 36  0  0  0  0  0  0  0  0999 V2000
    8.2422   -4.2142   29.5799 C   0  0  2  0  0  0  0  0  0  0  0  0
    9.1088   -5.3919   29.6758 O   0  0  0  0  0  0  0  0  0  0  0  0
    6.1942   -8.5471   30.1308 C   0  0  2  0  0  0  0  0  0  0  0  0
    5.6145   -9.8979   30.1744 N   0  0  0  0  0  0  0  0  0  0  0  0
    9.1914   -3.0084   29.3063 C   0  0  2  0  0  0  0  0  0  0  0  0
    9.9842   -3.2425   28.1222 N   0  0  0  0  0  0  0  0  0  0  0  0
    6.9698   -8.3586   28.7756 C   0  0  0  0  0  0  0  0  0  0  0  0
    3.8873   -9.8115   29.8167 C   0  0  0  0  0  0  0  0  0  0  0  0
    3.8866  -11.3149   29.9843 C   0  0  1  0  0  0  0  0  0  0  0  0
    3.6519  -11.6140   31.4666 C   0  0  0  0  0  0  0  0  0  0  0  0
    3.5992  -13.1037   31.8450 C   0  0  0  0  0  0  0  0  0  0  0  0
    4.8714  -13.7236   31.4623 N   0  0  0  0  0  0  0  0  0  0  0  0
    2.8077  -11.8956   29.2994 O   0  0  0  0  0  0  0  0  0  0  0  0
    5.5759   -8.2476   33.5650 C   0  0  0  0  0  0  0  0  0  0  0  0
    4.1770   -8.1523   32.9755 C   0  0  0  0  0  0  0  0  0  0  0  0
   10.1133   -2.7572   30.5470 C   0  0  1  0  0  0  0  0  0  0  0  0
    3.1342   -7.8357   33.9759 N   0  0  0  0  0  0  0  0  0  0  0  0
   10.9802   -1.6628   30.3208 O   0  0  0  0  0  0  0  0  0  0  0  0
    7.6102   -6.9675   28.6713 C   0  0  2  0  0  0  0  0  0  0  0  0
    8.3573   -6.8313   27.4250 N   0  0  0  0  0  0  0  0  0  0  0  0
    1.7619   -6.3366   35.4255 C   0  0  0  0  0  0  0  0  0  0  0  0
    0.4375   -6.5727   34.6304 N   0  0  0  0  0  0  0  0  0  0  0  0
    3.0464   -6.4648   34.5543 C   0  0  0  0  0  0  0  0  0  0  0  0
    3.2075   -9.0201   29.5914 O   0  0  0  0  0  0  0  0  0  0  0  0
    9.2156   -2.4960   31.7609 C   0  0  2  0  0  0  0  0  0  0  0  0
    9.9912   -2.2472   32.9221 O   0  0  0  0  0  0  0  0  0  0  0  0
    8.5420   -6.7283   29.8330 C   0  0  2  0  0  0  0  0  0  0  0  0
    8.2699   -3.7098   31.9921 C   0  0  2  0  0  0  0  0  0  0  0  0
    7.4702   -3.9761   30.8212 O   0  0  0  0  0  0  0  0  0  0  0  0
    7.7577   -6.8863   31.2059 C   0  0  2  0  0  0  0  0  0  0  0  0
    8.6869   -6.6427   32.3042 O   0  0  0  0  0  0  0  0  0  0  0  0
    7.3593   -3.4918   33.1411 C   0  0  0  0  0  0  0  0  0  0  0  0
    7.3523   -4.5924   33.9250 N   0  0  0  0  0  0  0  0  0  0  0  0
    7.1776   -8.3407   31.2933 C   0  0  1  0  0  0  0  0  0  0  0  0
    6.5072   -8.5202   32.4999 O   0  0  0  0  0  0  0  0  0  0  0  0
  1  2  1  1  0  0  0
  1  5  1  0  0  0  0
  1 29  1  0  0  0  0
  3  4  1  6  0  0  0
  3  7  1  0  0  0  0
  3 34  1  0  0  0  0
  5  6  1  6  0  0  0
  5 16  1  0  0  0  0
  7 19  1  0  0  0  0
  8  4  1  0  0  0  0
  8 24  2  0  0  0  0
  9  8  1  1  0  0  0
  9 10  1  0  0  0  0
  9 13  1  0  0  0  0
 10 11  1  0  0  0  0
 11 12  1  0  0  0  0
 14 15  1  0  0  0  0
 14 35  1  0  0  0  0
 15 17  1  0  0  0  0
 16 18  1  6  0  0  0
 16 25  1  0  0  0  0
 19 20  1  6  0  0  0
 19 27  1  0  0  0  0
 21 22  1  0  0  0  0
 21 23  1  0  0  0  0
 23 17  1  0  0  0  0
 25 26  1  1  0  0  0
 25 28  1  0  0  0  0
 27  2  1  6  0  0  0
 27 30  1  0  0  0  0
 28 29  1  0  0  0  0
 28 32  1  1  0  0  0
 30 31  1  1  0  0  0
 30 34  1  0  0  0  0
 32 33  2  0  0  0  0
 34 35  1  1  0  0  0
M  END
>  <CHROM.1>
-175.51237685,-102.43774085,87.92356005,179.27920034,59.04888346,-178.38293318
56.02052404,72.48776730,-60.50389783,172.36482864,57.20227205,-133.33901872
-67.42232330,6.42757258,-6.92529541,31.24022484,-0.57343290,-0.72092380,-2.47839636

>  <Name>
2f4t_lig

>  <RI>
0

>  <Rbt.Current_Directory>
/home/itssahil/PROJECTS/Mol_Feturizer/New_Systems/rnas/2f4t

>  <Rbt.Executable>
rbdock ($Id: //depot/dev/client3/rdock/2013.1/src/exe/rbdock.cxx#4 $)

>  <Rbt.Library>
libRbt.so (2013.1, Build901 2013/11/27)

>  <Rbt.Parameter_File>
/export/apps/rDock/src/rDock_2013.1_src/data/scripts/dock_solv.prm

>  <Rbt.Receptor>
prm/pocket_docking_7.prm

>  <SCORE>
-12.5972

>  <SCORE.INTER>
-3.21016

>  <SCORE.INTER.CONST>
1

>  <SCORE.INTER.POLAR>
-1.55683

>  <SCORE.INTER.ROT>
13

>  <SCORE.INTER.SOLV>
10.9822

>  <SCORE.INTER.VDW>
-12.8781

>  <SCORE.INTER.norm>
-0.0917189

>  <SCORE.INTRA>
-9.38699

>  <SCORE.INTRA.DIHEDRAL>
-19.7493

>  <SCORE.INTRA.DIHEDRAL.0>
23.8882

>  <SCORE.INTRA.POLAR>
0

>  <SCORE.INTRA.POLAR.0>
0

>  <SCORE.INTRA.REPUL>
0

>  <SCORE.INTRA.REPUL.0>
0

>  <SCORE.INTRA.SOLV>
3.19944

>  <SCORE.INTRA.SOLV.lig_0>
-97.6888

>  <SCORE.INTRA.VDW>
-1.11205

>  <SCORE.INTRA.VDW.0>
-3.9206

>  <SCORE.INTRA.norm>
-0.2682

>  <SCORE.RESTR>
0

>  <SCORE.RESTR.CAVITY>
0

>  <SCORE.RESTR.norm>
0

>  <SCORE.SYSTEM>
0

>  <SCORE.SYSTEM.CONST>
0

>  <SCORE.SYSTEM.DIHEDRAL>
0

>  <SCORE.SYSTEM.SOLV>
0

>  <SCORE.SYSTEM.norm>
0

>  <SCORE.heavy>
35

>  <SCORE.norm>
-0.359919

>  <RMSD>
7.063

$$$$
2f4t_lig
 OpenBabel11021811433D
libRbt.so/2013.1/901 2013/11/27
 35 36  0  0  0  0  0  0  0  0999 V2000
    9.4268   -6.9345   27.7403 C   0  0  2  0  0  0  0  0  0  0  0  0
    9.4413   -6.7236   29.1903 O   0  0  0  0  0  0  0  0  0  0  0  0
    6.8970   -8.6307   32.1138 C   0  0  2  0  0  0  0  0  0  0  0  0
    5.7559   -8.8626   33.0121 N   0  0  0  0  0  0  0  0  0  0  0  0
   10.6170   -6.1005   27.1769 C   0  0  2  0  0  0  0  0  0  0  0  0
   11.8563   -6.4911   27.8070 N   0  0  0  0  0  0  0  0  0  0  0  0
    7.4728   -7.1893   32.3676 C   0  0  0  0  0  0  0  0  0  0  0  0
    4.5014   -7.6605   32.6959 C   0  0  0  0  0  0  0  0  0  0  0  0
    3.7112   -8.3564   33.7819 C   0  0  1  0  0  0  0  0  0  0  0  0
    4.3031   -7.9318   35.1277 C   0  0  0  0  0  0  0  0  0  0  0  0
    3.7223   -8.6395   36.3634 C   0  0  0  0  0  0  0  0  0  0  0  0
    3.6507  -10.0765   36.0827 N   0  0  0  0  0  0  0  0  0  0  0  0
    2.3781   -7.9171   33.7924 O   0  0  0  0  0  0  0  0  0  0  0  0
    5.0594  -11.1356   30.5668 C   0  0  0  0  0  0  0  0  0  0  0  0
    5.2625  -11.7168   31.9576 C   0  0  0  0  0  0  0  0  0  0  0  0
   10.3493   -4.5718   27.3862 C   0  0  1  0  0  0  0  0  0  0  0  0
    4.5273  -12.9806   32.1833 N   0  0  0  0  0  0  0  0  0  0  0  0
   11.4166   -3.7960   26.8769 O   0  0  0  0  0  0  0  0  0  0  0  0
    8.6641   -6.8793   31.4506 C   0  0  2  0  0  0  0  0  0  0  0  0
    9.1545   -5.5232   31.6762 N   0  0  0  0  0  0  0  0  0  0  0  0
    3.9247  -15.0840   33.3851 C   0  0  0  0  0  0  0  0  0  0  0  0
    4.1190  -16.0101   32.1415 N   0  0  0  0  0  0  0  0  0  0  0  0
    4.8368  -13.8217   33.3742 C   0  0  0  0  0  0  0  0  0  0  0  0
    4.4055   -6.8365   32.0243 O   0  0  0  0  0  0  0  0  0  0  0  0
    9.0366   -4.2182   26.6794 C   0  0  2  0  0  0  0  0  0  0  0  0
    8.7397   -2.8384   26.8198 O   0  0  0  0  0  0  0  0  0  0  0  0
    8.2662   -7.0249   30.0030 C   0  0  2  0  0  0  0  0  0  0  0  0
    7.8762   -5.0820   27.2526 C   0  0  2  0  0  0  0  0  0  0  0  0
    8.1597   -6.4900   27.1155 O   0  0  0  0  0  0  0  0  0  0  0  0
    7.7124   -8.4894   29.7319 C   0  0  2  0  0  0  0  0  0  0  0  0
    7.3440   -8.5950   28.3239 O   0  0  0  0  0  0  0  0  0  0  0  0
    6.5875   -4.7963   26.5786 C   0  0  0  0  0  0  0  0  0  0  0  0
    6.1367   -5.9182   25.9753 N   0  0  0  0  0  0  0  0  0  0  0  0
    6.4606   -8.7343   30.6441 C   0  0  1  0  0  0  0  0  0  0  0  0
    5.9339  -10.0013   30.4093 O   0  0  0  0  0  0  0  0  0  0  0  0
  1  2  1  1  0  0  0
  1  5  1  0  0  0  0
  1 29  1  0  0  0  0
  3  4  1  1  0  0  0
  3  7  1  0  0  0  0
  3 34  1  0  0  0  0
  5  6  1  1  0  0  0
  5 16  1  0  0  0  0
  7 19  1  0  0  0  0
  8  4  1  0  0  0  0
  8 24  2  0  0  0  0
  9  8  1  6  0  0  0
  9 10  1  0  0  0  0
  9 13  1  0  0  0  0
 10 11  1  0  0  0  0
 11 12  1  0  0  0  0
 14 15  1  0  0  0  0
 14 35  1  0  0  0  0
 15 17  1  0  0  0  0
 16 18  1  6  0  0  0
 16 25  1  0  0  0  0
 19 20  1  6  0  0  0
 19 27  1  0  0  0  0
 21 22  1  0  0  0  0
 21 23  1  0  0  0  0
 23 17  1  0  0  0  0
 25 26  1  1  0  0  0
 25 28  1  0  0  0  0
 27  2  1  6  0  0  0
 27 30  1  0  0  0  0
 28 29  1  0  0  0  0
 28 32  1  6  0  0  0
 30 31  1  6  0  0  0
 30 34  1  0  0  0  0
 32 33  2  0  0  0  0
 34 35  1  1  0  0  0
M  END
>  <CHROM.1>
162.14946882,59.96534086,76.50189641,-174.34721888,45.83169141,-173.50746788
-64.26588499,167.24731811,61.33382195,179.64577411,172.50176779,118.75212791
58.25917706,6.78618948,-8.04943899,30.55033161,-0.46630066,-0.96771496,-2.89541045

>  <Name>
2f4t_lig

>  <RI>
0

>  <Rbt.Current_Directory>
/home/itssahil/PROJECTS/Mol_Feturizer/New_Systems/rnas/2f4t

>  <Rbt.Executable>
rbdock ($Id: //depot/dev/client3/rdock/2013.1/src/exe/rbdock.cxx#4 $)

>  <Rbt.Library>
libRbt.so (2013.1, Build901 2013/11/27)

>  <Rbt.Parameter_File>
/export/apps/rDock/src/rDock_2013.1_src/data/scripts/dock_solv.prm

>  <Rbt.Receptor>
prm/pocket_docking_8.prm

>  <SCORE>
-14.7519

>  <SCORE.INTER>
-8.73968

>  <SCORE.INTER.CONST>
1

>  <SCORE.INTER.POLAR>
-1.28542

>  <SCORE.INTER.ROT>
13

>  <SCORE.INTER.SOLV>
19.6539

>  <SCORE.INTER.VDW>
-20.3597

>  <SCORE.INTER.norm>
-0.249705

>  <SCORE.INTRA>
-6.01221

>  <SCORE.INTRA.DIHEDRAL>
-19.023

>  <SCORE.INTRA.DIHEDRAL.0>
23.8882

>  <SCORE.INTRA.POLAR>
0

>  <SCORE.INTRA.POLAR.0>
0

>  <SCORE.INTRA.REPUL>
0

>  <SCORE.INTRA.REPUL.0>
0

>  <SCORE.INTRA.SOLV>
2.44189

>  <SCORE.INTRA.SOLV.lig_0>
-97.6888

>  <SCORE.INTRA.VDW>
2.27835

>  <SCORE.INTRA.VDW.0>
-3.9206

>  <SCORE.INTRA.norm>
-0.171778

>  <SCORE.RESTR>
0

>  <SCORE.RESTR.CAVITY>
0

>  <SCORE.RESTR.norm>
0

>  <SCORE.SYSTEM>
0

>  <SCORE.SYSTEM.CONST>
0

>  <SCORE.SYSTEM.DIHEDRAL>
0

>  <SCORE.SYSTEM.SOLV>
0

>  <SCORE.SYSTEM.norm>
0

>  <SCORE.heavy>
35

>  <SCORE.norm>
-0.421483

>  <RMSD>
7.246

$$$$
2f4t_lig
 OpenBabel11021811433D
libRbt.so/2013.1/901 2013/11/27
 35 36  0  0  0  0  0  0  0  0999 V2000
   -2.4235   -4.6925   21.4133 C   0  0  2  0  0  0  0  0  0  0  0  0
   -1.7375   -5.8036   22.0781 O   0  0  0  0  0  0  0  0  0  0  0  0
    1.5477   -5.9547   24.8784 C   0  0  2  0  0  0  0  0  0  0  0  0
    2.9184   -5.8848   25.4065 N   0  0  0  0  0  0  0  0  0  0  0  0
   -3.9439   -5.0296   21.4805 C   0  0  2  0  0  0  0  0  0  0  0  0
   -4.3608   -5.2329   22.8481 N   0  0  0  0  0  0  0  0  0  0  0  0
    1.5257   -6.8897   23.6140 C   0  0  0  0  0  0  0  0  0  0  0  0
    3.0980   -7.0314   26.7376 C   0  0  0  0  0  0  0  0  0  0  0  0
    4.5280   -6.5455   26.8216 C   0  0  1  0  0  0  0  0  0  0  0  0
    5.2052   -7.2997   27.9681 C   0  0  0  0  0  0  0  0  0  0  0  0
    6.5726   -6.7517   28.4096 C   0  0  0  0  0  0  0  0  0  0  0  0
    7.0499   -7.5543   29.5397 N   0  0  0  0  0  0  0  0  0  0  0  0
    5.2425   -6.8859   25.6624 O   0  0  0  0  0  0  0  0  0  0  0  0
    0.7786   -3.2398   26.9000 C   0  0  0  0  0  0  0  0  0  0  0  0
    1.6444   -2.0231   27.1894 C   0  0  0  0  0  0  0  0  0  0  0  0
   -4.2524   -6.2977   20.6150 C   0  0  1  0  0  0  0  0  0  0  0  0
    3.0955   -2.3088   27.1560 N   0  0  0  0  0  0  0  0  0  0  0  0
   -5.6293   -6.6182   20.6587 O   0  0  0  0  0  0  0  0  0  0  0  0
    0.1203   -6.9972   23.0060 C   0  0  2  0  0  0  0  0  0  0  0  0
    0.1334   -7.8362   21.8119 N   0  0  0  0  0  0  0  0  0  0  0  0
    4.1372   -0.8904   28.9264 C   0  0  0  0  0  0  0  0  0  0  0  0
    5.0236   -0.8192   30.2114 N   0  0  0  0  0  0  0  0  0  0  0  0
    3.8792   -2.3415   28.4234 C   0  0  0  0  0  0  0  0  0  0  0  0
    2.4483   -7.7278   27.2194 O   0  0  0  0  0  0  0  0  0  0  0  0
   -3.8077   -6.0112   19.1770 C   0  0  2  0  0  0  0  0  0  0  0  0
   -4.0716   -7.1203   18.3332 O   0  0  0  0  0  0  0  0  0  0  0  0
   -0.4018   -5.6298   22.6418 C   0  0  2  0  0  0  0  0  0  0  0  0
   -2.2921   -5.6602   19.1506 C   0  0  2  0  0  0  0  0  0  0  0  0
   -2.0051   -4.5312   20.0018 O   0  0  0  0  0  0  0  0  0  0  0  0
   -0.4119   -4.6884   23.9219 C   0  0  2  0  0  0  0  0  0  0  0  0
   -0.9272   -3.3796   23.5338 O   0  0  0  0  0  0  0  0  0  0  0  0
   -1.8198   -5.3458   17.7812 C   0  0  0  0  0  0  0  0  0  0  0  0
   -0.7993   -6.1698   17.4569 N   0  0  0  0  0  0  0  0  0  0  0  0
    1.0528   -4.5593   24.4671 C   0  0  1  0  0  0  0  0  0  0  0  0
    1.0820   -3.7163   25.5745 O   0  0  0  0  0  0  0  0  0  0  0  0
  1  2  1  6  0  0  0
  1  5  1  0  0  0  0
  1 29  1  0  0  0  0
  3  4  1  6  0  0  0
  3  7  1  0  0  0  0
  3 34  1  0  0  0  0
  5  6  1  1  0  0  0
  5 16  1  0  0  0  0
  7 19  1  0  0  0  0
  8  4  1  0  0  0  0
  8 24  2  0  0  0  0
  9  8  1  6  0  0  0
  9 10  1  0  0  0  0
  9 13  1  0  0  0  0
 10 11  1  0  0  0  0
 11 12  1  0  0  0  0
 14 15  1  0  0  0  0
 14 35  1  0  0  0  0
 15 17  1  0  0  0  0
 16 18  1  6  0  0  0
 16 25  1  0  0  0  0
 19 20  1  6  0  0  0
 19 27  1  0  0  0  0
 21 22  1  0  0  0  0
 21 23  1  0  0  0  0
 23 17  1  0  0  0  0
 25 26  1  6  0  0  0
 25 28  1  0  0  0  0
 27  2  1  1  0  0  0
 27 30  1  0  0  0  0
 28 29  1  0  0  0  0
 28 32  1  6  0  0  0
 30 31  1  6  0  0  0
 30 34  1  0  0  0  0
 32 33  2  0  0  0  0
 34 35  1  1  0  0  0
M  END
>  <CHROM.1>
-157.21307645,-97.16911905,179.22955022,-167.91928027,177.90564498,-61.15858712
172.94688257,-107.86890880,-176.74134011,-76.08339956,-169.33034521,-123.11408633
-58.45832213,0.62143041,-5.29781025,24.02799283,2.62786423,0.67442018,-2.55619434

>  <Name>
2f4t_lig

>  <RI>
0

>  <Rbt.Current_Directory>
/home/itssahil/PROJECTS/Mol_Feturizer/New_Systems/rnas/2f4t

>  <Rbt.Executable>
rbdock ($Id: //depot/dev/client3/rdock/2013.1/src/exe/rbdock.cxx#4 $)

>  <Rbt.Library>
libRbt.so (2013.1, Build901 2013/11/27)

>  <Rbt.Parameter_File>
/export/apps/rDock/src/rDock_2013.1_src/data/scripts/dock_solv.prm

>  <Rbt.Receptor>
prm/pocket_docking_7.prm

>  <SCORE>
-23.9945

>  <SCORE.INTER>
-15.7315

>  <SCORE.INTER.CONST>
1

>  <SCORE.INTER.POLAR>
-1.95758

>  <SCORE.INTER.ROT>
13

>  <SCORE.INTER.SOLV>
16.0161

>  <SCORE.INTER.VDW>
-21.5678

>  <SCORE.INTER.norm>
-0.449473

>  <SCORE.INTRA>
-8.26295

>  <SCORE.INTRA.DIHEDRAL>
-16.5378

>  <SCORE.INTRA.DIHEDRAL.0>
23.8882

>  <SCORE.INTRA.POLAR>
0

>  <SCORE.INTRA.POLAR.0>
0

>  <SCORE.INTRA.REPUL>
0

>  <SCORE.INTRA.REPUL.0>
0

>  <SCORE.INTRA.SOLV>
-0.524262

>  <SCORE.INTRA.SOLV.lig_0>
-97.6888

>  <SCORE.INTRA.VDW>
0.268062

>  <SCORE.INTRA.VDW.0>
-3.9206

>  <SCORE.INTRA.norm>
-0.236084

>  <SCORE.RESTR>
0

>  <SCORE.RESTR.CAVITY>
0

>  <SCORE.RESTR.norm>
0

>  <SCORE.SYSTEM>
0

>  <SCORE.SYSTEM.CONST>
0

>  <SCORE.SYSTEM.DIHEDRAL>
0

>  <SCORE.SYSTEM.SOLV>
0

>  <SCORE.SYSTEM.norm>
0

>  <SCORE.heavy>
35

>  <SCORE.norm>
-0.685557

>  <RMSD>
7.257

$$$$
2f4t_lig
 OpenBabel11021811433D
libRbt.so/2013.1/901 2013/11/27
 35 36  0  0  0  0  0  0  0  0999 V2000
   -2.4185   -4.6401   21.6400 C   0  0  2  0  0  0  0  0  0  0  0  0
   -1.7757   -5.7989   22.2655 O   0  0  0  0  0  0  0  0  0  0  0  0
    1.5649   -6.1524   24.9807 C   0  0  2  0  0  0  0  0  0  0  0  0
    2.9505   -6.1669   25.4734 N   0  0  0  0  0  0  0  0  0  0  0  0
   -3.9517   -4.9099   21.7186 C   0  0  2  0  0  0  0  0  0  0  0  0
   -4.3607   -5.1317   23.0857 N   0  0  0  0  0  0  0  0  0  0  0  0
    1.4533   -7.0836   23.7182 C   0  0  0  0  0  0  0  0  0  0  0  0
    3.0330   -7.0882   26.9778 C   0  0  0  0  0  0  0  0  0  0  0  0
    4.5134   -6.7774   26.9615 C   0  0  1  0  0  0  0  0  0  0  0  0
    4.7195   -5.4723   27.7335 C   0  0  0  0  0  0  0  0  0  0  0  0
    6.1145   -4.8373   27.6072 C   0  0  0  0  0  0  0  0  0  0  0  0
    7.0828   -5.7107   28.2768 N   0  0  0  0  0  0  0  0  0  0  0  0
    5.2391   -7.7555   27.6592 O   0  0  0  0  0  0  0  0  0  0  0  0
    1.1336   -2.6853   26.4670 C   0  0  0  0  0  0  0  0  0  0  0  0
    1.8302   -2.8987   27.8022 C   0  0  0  0  0  0  0  0  0  0  0  0
   -4.3282   -6.1386   20.8237 C   0  0  1  0  0  0  0  0  0  0  0  0
    1.7616   -1.7241   28.6991 N   0  0  0  0  0  0  0  0  0  0  0  0
   -5.7176   -6.3978   20.8773 O   0  0  0  0  0  0  0  0  0  0  0  0
    0.0288   -7.1045   23.1466 C   0  0  2  0  0  0  0  0  0  0  0  0
   -0.0402   -7.9421   21.9534 N   0  0  0  0  0  0  0  0  0  0  0  0
    3.8803   -1.6460   30.0169 C   0  0  0  0  0  0  0  0  0  0  0  0
    4.3537   -0.2243   29.5734 N   0  0  0  0  0  0  0  0  0  0  0  0
    2.3317   -1.8007   30.0741 C   0  0  0  0  0  0  0  0  0  0  0  0
    2.3198   -7.6077   27.5783 O   0  0  0  0  0  0  0  0  0  0  0  0
   -3.8886   -5.8333   19.3880 C   0  0  2  0  0  0  0  0  0  0  0  0
   -4.2130   -6.9058   18.5184 O   0  0  0  0  0  0  0  0  0  0  0  0
   -0.4178   -5.7075   22.7945 C   0  0  2  0  0  0  0  0  0  0  0  0
   -2.3590   -5.5505   19.3506 C   0  0  2  0  0  0  0  0  0  0  0  0
   -2.0105   -4.4594   20.2278 O   0  0  0  0  0  0  0  0  0  0  0  0
   -0.3374   -4.7680   24.0735 C   0  0  2  0  0  0  0  0  0  0  0  0
   -0.7814   -3.4299   23.6975 O   0  0  0  0  0  0  0  0  0  0  0  0
   -1.8897   -5.2204   17.9839 C   0  0  0  0  0  0  0  0  0  0  0  0
   -0.8627   -6.0333   17.6521 N   0  0  0  0  0  0  0  0  0  0  0  0
    1.1460   -4.7291   24.5808 C   0  0  1  0  0  0  0  0  0  0  0  0
    1.2552   -3.8901   25.6862 O   0  0  0  0  0  0  0  0  0  0  0  0
  1  2  1  6  0  0  0
  1  5  1  0  0  0  0
  1 29  1  0  0  0  0
  3  4  1  6  0  0  0
  3  7  1  0  0  0  0
  3 34  1  0  0  0  0
  5  6  1  1  0  0  0
  5 16  1  0  0  0  0
  7 19  1  0  0  0  0
  8  4  1  0  0  0  0
  8 24  2  0  0  0  0
  9  8  1  1  0  0  0
  9 10  1  0  0  0  0
  9 13  1  0  0  0  0
 10 11  1  0  0  0  0
 11 12  1  0  0  0  0
 14 15  1  0  0  0  0
 14 35  1  0  0  0  0
 15 17  1  0  0  0  0
 16 18  1  6  0  0  0
 16 25  1  0  0  0  0
 19 20  1  6  0  0  0
 19 27  1  0  0  0  0
 21 22  1  0  0  0  0
 21 23  1  0  0  0  0
 23 17  1  0  0  0  0
 25 26  1  6  0  0  0
 25 28  1  0  0  0  0
 27  2  1  1  0  0  0
 27 30  1  0  0  0  0
 28 29  1  0  0  0  0
 28 32  1  6  0  0  0
 30 31  1  6  0  0  0
 30 34  1  0  0  0  0
 32 33  2  0  0  0  0
 34 35  1  1  0  0  0
M  END
>  <CHROM.1>
-158.29713408,-107.52333410,90.74779428,-168.70196850,-67.64367301,-179.55900581
-174.01313774,176.62834583,67.45809988,78.62598676,-170.49380649,-126.42292901
-173.51773213,0.48406364,-5.14987425,24.26576698,2.49698517,0.61176616,-2.42392438

>  <Name>
2f4t_lig

>  <RI>
0

>  <Rbt.Current_Directory>
/home/itssahil/PROJECTS/Mol_Feturizer/New_Systems/rnas/2f4t

>  <Rbt.Executable>
rbdock ($Id: //depot/dev/client3/rdock/2013.1/src/exe/rbdock.cxx#4 $)

>  <Rbt.Library>
libRbt.so (2013.1, Build901 2013/11/27)

>  <Rbt.Parameter_File>
/export/apps/rDock/src/rDock_2013.1_src/data/scripts/dock_solv.prm

>  <Rbt.Receptor>
prm/pocket_docking_8.prm

>  <SCORE>
-23.4293

>  <SCORE.INTER>
-15.6989

>  <SCORE.INTER.CONST>
1

>  <SCORE.INTER.POLAR>
-2.05557

>  <SCORE.INTER.ROT>
13

>  <SCORE.INTER.SOLV>
15.2863

>  <SCORE.INTER.VDW>
-20.9761

>  <SCORE.INTER.norm>
-0.448539

>  <SCORE.INTRA>
-7.73043

>  <SCORE.INTRA.DIHEDRAL>
-16.2685

>  <SCORE.INTRA.DIHEDRAL.0>
23.8882

>  <SCORE.INTRA.POLAR>
0

>  <SCORE.INTRA.POLAR.0>
0

>  <SCORE.INTRA.REPUL>
0

>  <SCORE.INTRA.REPUL.0>
0

>  <SCORE.INTRA.SOLV>
1.84647

>  <SCORE.INTRA.SOLV.lig_0>
-97.6888

>  <SCORE.INTRA.VDW>
-0.519416

>  <SCORE.INTRA.VDW.0>
-3.9206

>  <SCORE.INTRA.norm>
-0.220869

>  <SCORE.RESTR>
0

>  <SCORE.RESTR.CAVITY>
0

>  <SCORE.RESTR.norm>
0

>  <SCORE.SYSTEM>
0

>  <SCORE.SYSTEM.CONST>
0

>  <SCORE.SYSTEM.DIHEDRAL>
0

>  <SCORE.SYSTEM.SOLV>
0

>  <SCORE.SYSTEM.norm>
0

>  <SCORE.heavy>
35

>  <SCORE.norm>
-0.669409

>  <RMSD>
7.304

$$$$
2f4t_lig
 OpenBabel11021811433D
libRbt.so/2013.1/901 2013/11/27
 35 36  0  0  0  0  0  0  0  0999 V2000
    2.6311  -11.0405   29.3046 C   0  0  2  0  0  0  0  0  0  0  0  0
    3.0812  -10.4703   30.5772 O   0  0  0  0  0  0  0  0  0  0  0  0
    6.0115   -7.4004   31.3809 C   0  0  2  0  0  0  0  0  0  0  0  0
    7.3164   -6.7566   31.5936 N   0  0  0  0  0  0  0  0  0  0  0  0
    1.1076  -11.3202   29.4785 C   0  0  2  0  0  0  0  0  0  0  0  0
    0.4075  -10.1139   29.8529 N   0  0  0  0  0  0  0  0  0  0  0  0
    5.9016   -8.6683   32.3050 C   0  0  0  0  0  0  0  0  0  0  0  0
    8.5392   -7.5582   30.6031 C   0  0  0  0  0  0  0  0  0  0  0  0
    9.5132   -6.5591   31.1873 C   0  0  1  0  0  0  0  0  0  0  0  0
   10.8744   -6.8044   30.5325 C   0  0  0  0  0  0  0  0  0  0  0  0
   11.0767   -6.1541   29.1536 C   0  0  0  0  0  0  0  0  0  0  0  0
   10.0543   -6.6757   28.2416 N   0  0  0  0  0  0  0  0  0  0  0  0
    9.1522   -5.2468   30.8439 O   0  0  0  0  0  0  0  0  0  0  0  0
    5.9877   -5.9768   27.8598 C   0  0  0  0  0  0  0  0  0  0  0  0
    6.1583   -4.5037   28.1978 C   0  0  0  0  0  0  0  0  0  0  0  0
    0.8854  -12.4420   30.5484 C   0  0  1  0  0  0  0  0  0  0  0  0
    5.1073   -3.9777   29.0964 N   0  0  0  0  0  0  0  0  0  0  0  0
   -0.4920  -12.7146   30.7182 O   0  0  0  0  0  0  0  0  0  0  0  0
    4.5617   -9.3950   32.1227 C   0  0  2  0  0  0  0  0  0  0  0  0
    4.5001  -10.5892   32.9594 N   0  0  0  0  0  0  0  0  0  0  0  0
    5.9622   -2.4919   30.9110 C   0  0  0  0  0  0  0  0  0  0  0  0
    6.2629   -2.3004   32.4325 N   0  0  0  0  0  0  0  0  0  0  0  0
    5.3572   -3.8840   30.5627 C   0  0  0  0  0  0  0  0  0  0  0  0
    8.5300   -8.3772   29.9188 O   0  0  0  0  0  0  0  0  0  0  0  0
    1.6332  -13.6961   30.0842 C   0  0  2  0  0  0  0  0  0  0  0  0
    1.4624  -14.7600   31.0066 O   0  0  0  0  0  0  0  0  0  0  0  0
    4.3708   -9.7934   30.6805 C   0  0  2  0  0  0  0  0  0  0  0  0
    3.1449  -13.3754   29.9027 C   0  0  2  0  0  0  0  0  0  0  0  0
    3.3384  -12.2965   28.9646 O   0  0  0  0  0  0  0  0  0  0  0  0
    4.4494   -8.5125   29.7434 C   0  0  2  0  0  0  0  0  0  0  0  0
    4.2548   -8.9345   28.3602 O   0  0  0  0  0  0  0  0  0  0  0  0
    3.9078  -14.5531   29.4252 C   0  0  0  0  0  0  0  0  0  0  0  0
    4.9540  -14.7765   30.2506 N   0  0  0  0  0  0  0  0  0  0  0  0
    5.8568   -7.8432   29.9177 C   0  0  1  0  0  0  0  0  0  0  0  0
    5.9679   -6.7317   29.0869 O   0  0  0  0  0  0  0  0  0  0  0  0
  1  2  1  1  0  0  0
  1  5  1  0  0  0  0
  1 29  1  0  0  0  0
  3  4  1  6  0  0  0
  3  7  1  0  0  0  0
  3 34  1  0  0  0  0
  5  6  1  1  0  0  0
  5 16  1  0  0  0  0
  7 19  1  0  0  0  0
  8  4  1  0  0  0  0
  8 24  2  0  0  0  0
  9  8  1  6  0  0  0
  9 10  1  0  0  0  0
  9 13  1  0  0  0  0
 10 11  1  0  0  0  0
 11 12  1  0  0  0  0
 14 15  1  0  0  0  0
 14 35  1  0  0  0  0
 15 17  1  0  0  0  0
 16 18  1  6  0  0  0
 16 25  1  0  0  0  0
 19 20  1  1  0  0  0
 19 27  1  0  0  0  0
 21 22  1  0  0  0  0
 21 23  1  0  0  0  0
 23 17  1  0  0  0  0
 25 26  1  1  0  0  0
 25 28  1  0  0  0  0
 27  2  1  1  0  0  0
 27 30  1  0  0  0  0
 28 29  1  0  0  0  0
 28 32  1  6  0  0  0
 30 31  1  6  0  0  0
 30 34  1  0  0  0  0
 32 33  2  0  0  0  0
 34 35  1  6  0  0  0
M  END
>  <CHROM.1>
-165.23569956,83.64538115,-177.20295157,82.45564502,-59.53104780,-57.35804783
176.19043659,97.11082934,-179.85692030,90.46931004,-176.98235563,-126.67836423
-178.43687783,5.18540255,-8.76311770,30.20982919,2.23329830,-0.01968388,-3.13125066

>  <Name>
2f4t_lig

>  <RI>
0

>  <Rbt.Current_Directory>
/home/itssahil/PROJECTS/Mol_Feturizer/New_Systems/rnas/2f4t

>  <Rbt.Executable>
rbdock ($Id: //depot/dev/client3/rdock/2013.1/src/exe/rbdock.cxx#4 $)

>  <Rbt.Library>
libRbt.so (2013.1, Build901 2013/11/27)

>  <Rbt.Parameter_File>
/export/apps/rDock/src/rDock_2013.1_src/data/scripts/dock_solv.prm

>  <Rbt.Receptor>
prm/pocket_docking_6.prm

>  <SCORE>
-14.2887

>  <SCORE.INTER>
-9.13826

>  <SCORE.INTER.CONST>
1

>  <SCORE.INTER.POLAR>
-1.64079

>  <SCORE.INTER.ROT>
13

>  <SCORE.INTER.SOLV>
11.3968

>  <SCORE.INTER.VDW>
-16.6885

>  <SCORE.INTER.norm>
-0.261093

>  <SCORE.INTRA>
-5.15043

>  <SCORE.INTRA.DIHEDRAL>
-17.6387

>  <SCORE.INTRA.DIHEDRAL.0>
23.8882

>  <SCORE.INTRA.POLAR>
0

>  <SCORE.INTRA.POLAR.0>
0

>  <SCORE.INTRA.REPUL>
0

>  <SCORE.INTRA.REPUL.0>
0

>  <SCORE.INTRA.SOLV>
5.07669

>  <SCORE.INTRA.SOLV.lig_0>
-97.6888

>  <SCORE.INTRA.VDW>
1.13059

>  <SCORE.INTRA.VDW.0>
-3.9206

>  <SCORE.INTRA.norm>
-0.147155

>  <SCORE.RESTR>
0

>  <SCORE.RESTR.CAVITY>
0

>  <SCORE.RESTR.norm>
0

>  <SCORE.SYSTEM>
0

>  <SCORE.SYSTEM.CONST>
0

>  <SCORE.SYSTEM.DIHEDRAL>
0

>  <SCORE.SYSTEM.SOLV>
0

>  <SCORE.SYSTEM.norm>
0

>  <SCORE.heavy>
35

>  <SCORE.norm>
-0.408248

>  <RMSD>
7.329

$$$$
2f4t_lig
 OpenBabel11021811433D
libRbt.so/2013.1/901 2013/11/27
 35 36  0  0  0  0  0  0  0  0999 V2000
   -0.3466   -6.7630   21.5082 C   0  0  2  0  0  0  0  0  0  0  0  0
   -0.7510   -5.5797   22.2721 O   0  0  0  0  0  0  0  0  0  0  0  0
    1.3967   -3.5793   25.4412 C   0  0  2  0  0  0  0  0  0  0  0  0
    1.8740   -3.2461   26.7917 N   0  0  0  0  0  0  0  0  0  0  0  0
   -1.2637   -6.7900   20.2481 C   0  0  2  0  0  0  0  0  0  0  0  0
   -1.1493   -5.5553   19.5079 N   0  0  0  0  0  0  0  0  0  0  0  0
   -0.1752   -3.6333   25.4450 C   0  0  0  0  0  0  0  0  0  0  0  0
    1.4631   -4.5555   27.9033 C   0  0  0  0  0  0  0  0  0  0  0  0
    2.1413   -3.7210   28.9672 C   0  0  1  0  0  0  0  0  0  0  0  0
    1.0725   -2.8331   29.6084 C   0  0  0  0  0  0  0  0  0  0  0  0
    1.5981   -1.7099   30.5179 C   0  0  0  0  0  0  0  0  0  0  0  0
    0.4535   -0.9314   31.0005 N   0  0  0  0  0  0  0  0  0  0  0  0
    2.6378   -4.5317   29.9999 O   0  0  0  0  0  0  0  0  0  0  0  0
    4.6580   -4.7855   25.5393 C   0  0  0  0  0  0  0  0  0  0  0  0
    4.9712   -6.0145   26.3789 C   0  0  0  0  0  0  0  0  0  0  0  0
   -2.7501   -7.0448   20.6701 C   0  0  1  0  0  0  0  0  0  0  0  0
    6.3844   -6.0919   26.8094 N   0  0  0  0  0  0  0  0  0  0  0  0
   -3.5993   -7.0778   19.5395 O   0  0  0  0  0  0  0  0  0  0  0  0
   -0.7390   -3.9881   24.0620 C   0  0  2  0  0  0  0  0  0  0  0  0
   -2.1956   -4.0721   24.1005 N   0  0  0  0  0  0  0  0  0  0  0  0
    8.2582   -5.8824   28.4454 C   0  0  0  0  0  0  0  0  0  0  0  0
    8.8138   -5.2082   29.7410 N   0  0  0  0  0  0  0  0  0  0  0  0
    6.8190   -5.4224   28.0681 C   0  0  0  0  0  0  0  0  0  0  0  0
    0.9597   -5.4915   27.8050 O   0  0  0  0  0  0  0  0  0  0  0  0
   -2.8072   -8.3740   21.4300 C   0  0  2  0  0  0  0  0  0  0  0  0
   -4.1341   -8.6728   21.8321 O   0  0  0  0  0  0  0  0  0  0  0  0
   -0.1817   -5.3074   23.5889 C   0  0  2  0  0  0  0  0  0  0  0  0
   -1.8667   -8.3178   22.6683 C   0  0  2  0  0  0  0  0  0  0  0  0
   -0.5106   -8.0177   22.2778 O   0  0  0  0  0  0  0  0  0  0  0  0
    1.4059   -5.2500   23.5526 C   0  0  2  0  0  0  0  0  0  0  0  0
    1.9082   -6.5380   23.0857 O   0  0  0  0  0  0  0  0  0  0  0  0
   -1.8651   -9.5944   23.4214 C   0  0  0  0  0  0  0  0  0  0  0  0
   -1.2068  -10.5358   22.7101 N   0  0  0  0  0  0  0  0  0  0  0  0
    1.9349   -4.9485   24.9977 C   0  0  1  0  0  0  0  0  0  0  0  0
    3.3266   -4.9196   25.0050 O   0  0  0  0  0  0  0  0  0  0  0  0
  1  2  1  1  0  0  0
  1  5  1  0  0  0  0
  1 29  1  0  0  0  0
  3  4  1  1  0  0  0
  3  7  1  0  0  0  0
  3 34  1  0  0  0  0
  5  6  1  1  0  0  0
  5 16  1  0  0  0  0
  7 19  1  0  0  0  0
  8  4  1  0  0  0  0
  8 24  2  0  0  0  0
  9  8  1  6  0  0  0
  9 10  1  0  0  0  0
  9 13  1  0  0  0  0
 10 11  1  0  0  0  0
 11 12  1  0  0  0  0
 14 15  1  0  0  0  0
 14 35  1  0  0  0  0
 15 17  1  0  0  0  0
 16 18  1  6  0  0  0
 16 25  1  0  0  0  0
 19 20  1  1  0  0  0
 19 27  1  0  0  0  0
 21 22  1  0  0  0  0
 21 23  1  0  0  0  0
 23 17  1  0  0  0  0
 25 26  1  1  0  0  0
 25 28  1  0  0  0  0
 27  2  1  6  0  0  0
 27 30  1  0  0  0  0
 28 29  1  0  0  0  0
 28 32  1  6  0  0  0
 30 31  1  1  0  0  0
 30 34  1  0  0  0  0
 32 33  2  0  0  0  0
 34 35  1  6  0  0  0
M  END
>  <CHROM.1>
174.23348502,65.42725972,91.04389377,-168.27048526,177.77760107,171.04808297
72.80042817,87.33319539,178.79917691,168.71261147,176.67640627,71.72890978
60.67015298,1.04355708,-5.58639590,24.99318847,-2.29328630,-0.29022787,0.90931745

>  <Name>
2f4t_lig

>  <RI>
0

>  <Rbt.Current_Directory>
/home/itssahil/PROJECTS/Mol_Feturizer/New_Systems/rnas/2f4t

>  <Rbt.Executable>
rbdock ($Id: //depot/dev/client3/rdock/2013.1/src/exe/rbdock.cxx#4 $)

>  <Rbt.Library>
libRbt.so (2013.1, Build901 2013/11/27)

>  <Rbt.Parameter_File>
/export/apps/rDock/src/rDock_2013.1_src/data/scripts/dock_solv.prm

>  <Rbt.Receptor>
prm/pocket_docking_6.prm

>  <SCORE>
-26.4486

>  <SCORE.INTER>
-17.297

>  <SCORE.INTER.CONST>
1

>  <SCORE.INTER.POLAR>
-1.62445

>  <SCORE.INTER.ROT>
13

>  <SCORE.INTER.SOLV>
19.7905

>  <SCORE.INTER.VDW>
-24.98

>  <SCORE.INTER.norm>
-0.494201

>  <SCORE.INTRA>
-9.1516

>  <SCORE.INTRA.DIHEDRAL>
-17.9769

>  <SCORE.INTRA.DIHEDRAL.0>
23.8882

>  <SCORE.INTRA.POLAR>
0

>  <SCORE.INTRA.POLAR.0>
0

>  <SCORE.INTRA.REPUL>
0

>  <SCORE.INTRA.REPUL.0>
0

>  <SCORE.INTRA.SOLV>
-0.98368

>  <SCORE.INTRA.SOLV.lig_0>
-97.6888

>  <SCORE.INTRA.VDW>
0.328689

>  <SCORE.INTRA.VDW.0>
-3.9206

>  <SCORE.INTRA.norm>
-0.261474

>  <SCORE.RESTR>
0

>  <SCORE.RESTR.CAVITY>
0

>  <SCORE.RESTR.norm>
0

>  <SCORE.SYSTEM>
0

>  <SCORE.SYSTEM.CONST>
0

>  <SCORE.SYSTEM.DIHEDRAL>
0

>  <SCORE.SYSTEM.SOLV>
0

>  <SCORE.SYSTEM.norm>
0

>  <SCORE.heavy>
35

>  <SCORE.norm>
-0.755675

>  <RMSD>
7.391

$$$$
2f4t_lig
 OpenBabel11021811433D
libRbt.so/2013.1/901 2013/11/27
 35 36  0  0  0  0  0  0  0  0999 V2000
   -1.4522   -6.2630   22.3427 C   0  0  2  0  0  0  0  0  0  0  0  0
   -0.1528   -5.6593   22.6497 O   0  0  0  0  0  0  0  0  0  0  0  0
    1.2880   -3.2290   25.9170 C   0  0  2  0  0  0  0  0  0  0  0  0
    1.5139   -2.7505   27.2891 N   0  0  0  0  0  0  0  0  0  0  0  0
   -1.2215   -7.8044   22.3654 C   0  0  2  0  0  0  0  0  0  0  0  0
   -0.6755   -8.2193   23.6363 N   0  0  0  0  0  0  0  0  0  0  0  0
   -0.2543   -3.4319   25.6855 C   0  0  0  0  0  0  0  0  0  0  0  0
    0.7831   -3.8775   28.4356 C   0  0  0  0  0  0  0  0  0  0  0  0
    1.3038   -2.9519   29.5128 C   0  0  1  0  0  0  0  0  0  0  0  0
    0.4191   -3.1371   30.7477 C   0  0  0  0  0  0  0  0  0  0  0  0
   -1.0035   -2.5630   30.6398 C   0  0  0  0  0  0  0  0  0  0  0  0
   -1.5830   -2.5063   31.9851 N   0  0  0  0  0  0  0  0  0  0  0  0
    2.5988   -3.3211   29.9087 O   0  0  0  0  0  0  0  0  0  0  0  0
    4.7490   -4.7840   26.0566 C   0  0  0  0  0  0  0  0  0  0  0  0
    5.5761   -3.5228   26.2534 C   0  0  0  0  0  0  0  0  0  0  0  0
   -0.2712   -8.2234   21.1933 C   0  0  1  0  0  0  0  0  0  0  0  0
    5.3278   -2.8488   27.5467 N   0  0  0  0  0  0  0  0  0  0  0  0
   -0.0525   -9.6207   21.1931 O   0  0  0  0  0  0  0  0  0  0  0  0
   -0.5583   -3.9427   24.2701 C   0  0  2  0  0  0  0  0  0  0  0  0
   -1.9904   -4.1617   24.0930 N   0  0  0  0  0  0  0  0  0  0  0  0
    5.6646   -1.0866   29.2824 C   0  0  0  0  0  0  0  0  0  0  0  0
    6.5203   -1.9430   30.2706 N   0  0  0  0  0  0  0  0  0  0  0  0
    5.8577   -1.4766   27.7871 C   0  0  0  0  0  0  0  0  0  0  0  0
    0.2331   -4.7876   28.3445 O   0  0  0  0  0  0  0  0  0  0  0  0
   -0.9143   -7.7751   19.8768 C   0  0  2  0  0  0  0  0  0  0  0  0
   -0.1070   -8.1366   18.7681 O   0  0  0  0  0  0  0  0  0  0  0  0
    0.1740   -5.2350   24.0081 C   0  0  2  0  0  0  0  0  0  0  0  0
   -1.1473   -6.2368   19.8972 C   0  0  2  0  0  0  0  0  0  0  0  0
   -1.9699   -5.8505   21.0178 O   0  0  0  0  0  0  0  0  0  0  0  0
    1.7367   -5.0297   24.2097 C   0  0  2  0  0  0  0  0  0  0  0  0
    2.4113   -6.2957   23.9427 O   0  0  0  0  0  0  0  0  0  0  0  0
   -1.7960   -5.7580   18.6535 C   0  0  0  0  0  0  0  0  0  0  0  0
   -1.5095   -4.4502   18.4712 N   0  0  0  0  0  0  0  0  0  0  0  0
    2.0009   -4.5705   25.6857 C   0  0  1  0  0  0  0  0  0  0  0  0
    3.3663   -4.4088   25.9029 O   0  0  0  0  0  0  0  0  0  0  0  0
  1  2  1  6  0  0  0
  1  5  1  0  0  0  0
  1 29  1  0  0  0  0
  3  4  1  1  0  0  0
  3  7  1  0  0  0  0
  3 34  1  0  0  0  0
  5  6  1  1  0  0  0
  5 16  1  0  0  0  0
  7 19  1  0  0  0  0
  8  4  1  0  0  0  0
  8 24  2  0  0  0  0
  9  8  1  6  0  0  0
  9 10  1  0  0  0  0
  9 13  1  0  0  0  0
 10 11  1  0  0  0  0
 11 12  1  0  0  0  0
 14 15  1  0  0  0  0
 14 35  1  0  0  0  0
 15 17  1  0  0  0  0
 16 18  1  6  0  0  0
 16 25  1  0  0  0  0
 19 20  1  1  0  0  0
 19 27  1  0  0  0  0
 21 22  1  0  0  0  0
 21 23  1  0  0  0  0
 23 17  1  0  0  0  0
 25 26  1  6  0  0  0
 25 28  1  0  0  0  0
 27  2  1  6  0  0  0
 27 30  1  0  0  0  0
 28 29  1  0  0  0  0
 28 32  1  6  0  0  0
 30 31  1  1  0  0  0
 30 34  1  0  0  0  0
 32 33  2  0  0  0  0
 34 35  1  6  0  0  0
M  END
>  <CHROM.1>
-96.99516589,55.56811391,154.96087945,-71.65393589,-165.40884891,68.79222301
176.96322037,-168.47513677,66.35978986,-170.90571706,-76.13622423,-155.99271037
173.41224433,1.01665369,-4.76256124,25.07851729,1.96046297,-0.13779167,-1.97317610

>  <Name>
2f4t_lig

>  <RI>
0

>  <Rbt.Current_Directory>
/home/itssahil/PROJECTS/Mol_Feturizer/New_Systems/rnas/2f4t

>  <Rbt.Executable>
rbdock ($Id: //depot/dev/client3/rdock/2013.1/src/exe/rbdock.cxx#4 $)

>  <Rbt.Library>
libRbt.so (2013.1, Build901 2013/11/27)

>  <Rbt.Parameter_File>
/export/apps/rDock/src/rDock_2013.1_src/data/scripts/dock_solv.prm

>  <Rbt.Receptor>
prm/pocket_docking_7.prm

>  <SCORE>
-20.1175

>  <SCORE.INTER>
-15.5028

>  <SCORE.INTER.CONST>
1

>  <SCORE.INTER.POLAR>
-1.55235

>  <SCORE.INTER.ROT>
13

>  <SCORE.INTER.SOLV>
15.7712

>  <SCORE.INTER.VDW>
-22.6845

>  <SCORE.INTER.norm>
-0.442938

>  <SCORE.INTRA>
-4.61464

>  <SCORE.INTRA.DIHEDRAL>
-12.693

>  <SCORE.INTRA.DIHEDRAL.0>
23.8882

>  <SCORE.INTRA.POLAR>
0

>  <SCORE.INTRA.POLAR.0>
0

>  <SCORE.INTRA.REPUL>
0

>  <SCORE.INTRA.REPUL.0>
0

>  <SCORE.INTRA.SOLV>
4.01656

>  <SCORE.INTRA.SOLV.lig_0>
-97.6888

>  <SCORE.INTRA.VDW>
-0.276399

>  <SCORE.INTRA.VDW.0>
-3.9206

>  <SCORE.INTRA.norm>
-0.131847

>  <SCORE.RESTR>
0

>  <SCORE.RESTR.CAVITY>
0

>  <SCORE.RESTR.norm>
0

>  <SCORE.SYSTEM>
0

>  <SCORE.SYSTEM.CONST>
0

>  <SCORE.SYSTEM.DIHEDRAL>
0

>  <SCORE.SYSTEM.SOLV>
0

>  <SCORE.SYSTEM.norm>
0

>  <SCORE.heavy>
35

>  <SCORE.norm>
-0.574785

>  <RMSD>
7.462

$$$$
2f4t_lig
 OpenBabel11021811433D
libRbt.so/2013.1/901 2013/11/27
 35 36  0  0  0  0  0  0  0  0999 V2000
    1.3343  -12.3238   31.6242 C   0  0  2  0  0  0  0  0  0  0  0  0
    1.9669  -12.5924   30.3300 O   0  0  0  0  0  0  0  0  0  0  0  0
    4.7514   -9.3019   30.0532 C   0  0  2  0  0  0  0  0  0  0  0  0
    5.8900   -8.4887   29.6003 N   0  0  0  0  0  0  0  0  0  0  0  0
    0.3434  -13.5024   31.8663 C   0  0  2  0  0  0  0  0  0  0  0  0
    1.0348  -14.7691   31.8109 N   0  0  0  0  0  0  0  0  0  0  0  0
    5.2532  -10.7529   30.3943 C   0  0  0  0  0  0  0  0  0  0  0  0
    7.0913   -8.3836   30.8905 C   0  0  0  0  0  0  0  0  0  0  0  0
    7.8985   -7.5450   29.9244 C   0  0  1  0  0  0  0  0  0  0  0  0
    9.1677   -7.0959   30.6519 C   0  0  0  0  0  0  0  0  0  0  0  0
   10.0398   -6.0756   29.9011 C   0  0  0  0  0  0  0  0  0  0  0  0
    9.2776   -4.8315   29.7587 N   0  0  0  0  0  0  0  0  0  0  0  0
    8.3324   -8.3143   28.8335 O   0  0  0  0  0  0  0  0  0  0  0  0
    2.4771   -7.0965   27.9581 C   0  0  0  0  0  0  0  0  0  0  0  0
    2.8382   -5.7455   28.5563 C   0  0  0  0  0  0  0  0  0  0  0  0
   -0.8131  -13.4583   30.8112 C   0  0  1  0  0  0  0  0  0  0  0  0
    2.3821   -5.5766   29.9534 N   0  0  0  0  0  0  0  0  0  0  0  0
   -1.7270  -14.5180   31.0166 O   0  0  0  0  0  0  0  0  0  0  0  0
    4.1069  -11.6590   30.8649 C   0  0  2  0  0  0  0  0  0  0  0  0
    4.5897  -13.0095   31.1360 N   0  0  0  0  0  0  0  0  0  0  0  0
    0.7337   -5.0402   31.7497 C   0  0  0  0  0  0  0  0  0  0  0  0
    1.3342   -6.0891   32.7402 N   0  0  0  0  0  0  0  0  0  0  0  0
    0.9309   -5.4108   30.2500 C   0  0  0  0  0  0  0  0  0  0  0  0
    7.1578   -8.7648   31.8852 O   0  0  0  0  0  0  0  0  0  0  0  0
   -1.5174  -12.1032   30.9347 C   0  0  2  0  0  0  0  0  0  0  0  0
   -2.5889  -12.0016   30.0110 O   0  0  0  0  0  0  0  0  0  0  0  0
    3.0232  -11.7241   29.8179 C   0  0  2  0  0  0  0  0  0  0  0  0
   -0.4959  -10.9518   30.7067 C   0  0  2  0  0  0  0  0  0  0  0  0
    0.6007  -11.0373   31.6403 O   0  0  0  0  0  0  0  0  0  0  0  0
    2.4893  -10.2636   29.4907 C   0  0  2  0  0  0  0  0  0  0  0  0
    1.4408  -10.3661   28.4811 O   0  0  0  0  0  0  0  0  0  0  0  0
   -1.1253   -9.6170   30.8451 C   0  0  0  0  0  0  0  0  0  0  0  0
   -0.6897   -8.8090   29.8537 N   0  0  0  0  0  0  0  0  0  0  0  0
    3.6813   -9.3970   28.9546 C   0  0  1  0  0  0  0  0  0  0  0  0
    3.2392   -8.1171   28.6316 O   0  0  0  0  0  0  0  0  0  0  0  0
  1  2  1  6  0  0  0
  1  5  1  0  0  0  0
  1 29  1  0  0  0  0
  3  4  1  6  0  0  0
  3  7  1  0  0  0  0
  3 34  1  0  0  0  0
  5  6  1  6  0  0  0
  5 16  1  0  0  0  0
  7 19  1  0  0  0  0
  8  4  1  0  0  0  0
  8 24  2  0  0  0  0
  9  8  1  1  0  0  0
  9 10  1  0  0  0  0
  9 13  1  0  0  0  0
 10 11  1  0  0  0  0
 11 12  1  0  0  0  0
 14 15  1  0  0  0  0
 14 35  1  0  0  0  0
 15 17  1  0  0  0  0
 16 18  1  1  0  0  0
 16 25  1  0  0  0  0
 19 20  1  6  0  0  0
 19 27  1  0  0  0  0
 21 22  1  0  0  0  0
 21 23  1  0  0  0  0
 23 17  1  0  0  0  0
 25 26  1  6  0  0  0
 25 28  1  0  0  0  0
 27  2  1  1  0  0  0
 27 30  1  0  0  0  0
 28 29  1  0  0  0  0
 28 32  1  1  0  0  0
 30 31  1  6  0  0  0
 30 34  1  0  0  0  0
 32 33  2  0  0  0  0
 34 35  1  1  0  0  0
M  END
>  <CHROM.1>
-176.22538821,-61.02703410,177.67095640,-172.25010051,64.74234534,-68.00584489
177.25347233,-71.31221220,-57.69595363,-171.53431110,55.30579453,-136.77128599
-179.92696438,2.97032154,-9.57075125,30.32715996,-2.53592264,0.02443594,-0.12561930

>  <Name>
2f4t_lig

>  <RI>
0

>  <Rbt.Current_Directory>
/home/itssahil/PROJECTS/Mol_Feturizer/New_Systems/rnas/2f4t

>  <Rbt.Executable>
rbdock ($Id: //depot/dev/client3/rdock/2013.1/src/exe/rbdock.cxx#4 $)

>  <Rbt.Library>
libRbt.so (2013.1, Build901 2013/11/27)

>  <Rbt.Parameter_File>
/export/apps/rDock/src/rDock_2013.1_src/data/scripts/dock_solv.prm

>  <Rbt.Receptor>
prm/pocket_docking_7.prm

>  <SCORE>
-11.3507

>  <SCORE.INTER>
-2.28305

>  <SCORE.INTER.CONST>
1

>  <SCORE.INTER.POLAR>
-0.87887

>  <SCORE.INTER.ROT>
13

>  <SCORE.INTER.SOLV>
8.59792

>  <SCORE.INTER.VDW>
-13.7251

>  <SCORE.INTER.norm>
-0.0652299

>  <SCORE.INTRA>
-9.06769

>  <SCORE.INTRA.DIHEDRAL>
-21.1132

>  <SCORE.INTRA.DIHEDRAL.0>
23.8882

>  <SCORE.INTRA.POLAR>
0

>  <SCORE.INTRA.POLAR.0>
0

>  <SCORE.INTRA.REPUL>
0

>  <SCORE.INTRA.REPUL.0>
0

>  <SCORE.INTRA.SOLV>
3.14452

>  <SCORE.INTRA.SOLV.lig_0>
-97.6888

>  <SCORE.INTRA.VDW>
-0.0833671

>  <SCORE.INTRA.VDW.0>
-3.9206

>  <SCORE.INTRA.norm>
-0.259077

>  <SCORE.RESTR>
0

>  <SCORE.RESTR.CAVITY>
0

>  <SCORE.RESTR.norm>
0

>  <SCORE.SYSTEM>
0

>  <SCORE.SYSTEM.CONST>
0

>  <SCORE.SYSTEM.DIHEDRAL>
0

>  <SCORE.SYSTEM.SOLV>
0

>  <SCORE.SYSTEM.norm>
0

>  <SCORE.heavy>
35

>  <SCORE.norm>
-0.324307

>  <RMSD>
7.481

$$$$
2f4t_lig
 OpenBabel11021811433D
libRbt.so/2013.1/901 2013/11/27
 35 36  0  0  0  0  0  0  0  0999 V2000
    1.6957  -10.0800   28.9128 C   0  0  2  0  0  0  0  0  0  0  0  0
    2.6660   -9.4481   29.8108 O   0  0  0  0  0  0  0  0  0  0  0  0
    6.3692   -7.2970   29.2481 C   0  0  2  0  0  0  0  0  0  0  0  0
    7.7669   -7.0231   28.8822 N   0  0  0  0  0  0  0  0  0  0  0  0
    0.3026   -9.8800   29.5829 C   0  0  2  0  0  0  0  0  0  0  0  0
    0.0469   -8.4784   29.8184 N   0  0  0  0  0  0  0  0  0  0  0  0
    6.3131   -8.5753   30.1627 C   0  0  0  0  0  0  0  0  0  0  0  0
    8.6974   -6.6555   30.3375 C   0  0  0  0  0  0  0  0  0  0  0  0
    9.8830   -6.5009   29.4108 C   0  0  1  0  0  0  0  0  0  0  0  0
   10.0391   -5.0094   29.1059 C   0  0  0  0  0  0  0  0  0  0  0  0
   11.0782   -4.6553   28.0288 C   0  0  0  0  0  0  0  0  0  0  0  0
   10.5901   -5.1453   26.7362 N   0  0  0  0  0  0  0  0  0  0  0  0
   11.0718   -6.8896   30.0478 O   0  0  0  0  0  0  0  0  0  0  0  0
    6.1619   -5.3640   26.4015 C   0  0  0  0  0  0  0  0  0  0  0  0
    5.0480   -4.5800   25.7247 C   0  0  0  0  0  0  0  0  0  0  0  0
    0.2292  -10.6872   30.9228 C   0  0  1  0  0  0  0  0  0  0  0  0
    4.0263   -4.0720   26.6663 N   0  0  0  0  0  0  0  0  0  0  0  0
   -1.0301  -10.5228   31.5451 O   0  0  0  0  0  0  0  0  0  0  0  0
    4.8753   -8.9231   30.5726 C   0  0  2  0  0  0  0  0  0  0  0  0
    4.8454  -10.1345   31.3861 N   0  0  0  0  0  0  0  0  0  0  0  0
    1.7301   -3.3820   27.3614 C   0  0  0  0  0  0  0  0  0  0  0  0
    2.1497   -2.1433   28.2168 N   0  0  0  0  0  0  0  0  0  0  0  0
    2.6830   -3.6671   26.1631 C   0  0  0  0  0  0  0  0  0  0  0  0
    8.4666   -6.5888   31.3774 O   0  0  0  0  0  0  0  0  0  0  0  0
    0.4875  -12.1632   30.6031 C   0  0  2  0  0  0  0  0  0  0  0  0
    0.4227  -12.9563   31.7772 O   0  0  0  0  0  0  0  0  0  0  0  0
    4.0145   -9.1284   29.3512 C   0  0  2  0  0  0  0  0  0  0  0  0
    1.8759  -12.3226   29.9189 C   0  0  2  0  0  0  0  0  0  0  0  0
    1.9592  -11.5246   28.7198 O   0  0  0  0  0  0  0  0  0  0  0  0
    4.0414   -7.8287   28.4374 C   0  0  2  0  0  0  0  0  0  0  0  0
    3.1953   -8.0612   27.2716 O   0  0  0  0  0  0  0  0  0  0  0  0
    2.1596  -13.7332   29.5629 C   0  0  0  0  0  0  0  0  0  0  0  0
    1.0024  -14.4298   29.5270 N   0  0  0  0  0  0  0  0  0  0  0  0
    5.5198   -7.5524   27.9933 C   0  0  1  0  0  0  0  0  0  0  0  0
    5.5733   -6.4337   27.1666 O   0  0  0  0  0  0  0  0  0  0  0  0
  1  2  1  1  0  0  0
  1  5  1  0  0  0  0
  1 29  1  0  0  0  0
  3  4  1  6  0  0  0
  3  7  1  0  0  0  0
  3 34  1  0  0  0  0
  5  6  1  1  0  0  0
  5 16  1  0  0  0  0
  7 19  1  0  0  0  0
  8  4  1  0  0  0  0
  8 24  2  0  0  0  0
  9  8  1  1  0  0  0
  9 10  1  0  0  0  0
  9 13  1  0  0  0  0
 10 11  1  0  0  0  0
 11 12  1  0  0  0  0
 14 15  1  0  0  0  0
 14 35  1  0  0  0  0
 15 17  1  0  0  0  0
 16 18  1  6  0  0  0
 16 25  1  0  0  0  0
 19 20  1  6  0  0  0
 19 27  1  0  0  0  0
 21 22  1  0  0  0  0
 21 23  1  0  0  0  0
 23 17  1  0  0  0  0
 25 26  1  1  0  0  0
 25 28  1  0  0  0  0
 27  2  1  1  0  0  0
 27 30  1  0  0  0  0
 28 29  1  0  0  0  0
 28 32  1  6  0  0  0
 30 31  1  6  0  0  0
 30 34  1  0  0  0  0
 32 33  2  0  0  0  0
 34 35  1  6  0  0  0
M  END
>  <CHROM.1>
-163.70273099,-63.15807840,96.86724192,-172.21040692,67.98341747,55.42067221
178.63544400,-160.98455540,66.09827754,171.32035204,-161.93265236,19.52323651
50.98259062,4.44986994,-8.05062164,29.05405371,2.43896179,0.13732402,2.67971318

>  <Name>
2f4t_lig

>  <RI>
0

>  <Rbt.Current_Directory>
/home/itssahil/PROJECTS/Mol_Feturizer/New_Systems/rnas/2f4t

>  <Rbt.Executable>
rbdock ($Id: //depot/dev/client3/rdock/2013.1/src/exe/rbdock.cxx#4 $)

>  <Rbt.Library>
libRbt.so (2013.1, Build901 2013/11/27)

>  <Rbt.Parameter_File>
/export/apps/rDock/src/rDock_2013.1_src/data/scripts/dock_solv.prm

>  <Rbt.Receptor>
prm/pocket_docking_7.prm

>  <SCORE>
-9.27687

>  <SCORE.INTER>
-3.0887

>  <SCORE.INTER.CONST>
1

>  <SCORE.INTER.POLAR>
0

>  <SCORE.INTER.ROT>
13

>  <SCORE.INTER.SOLV>
10.2889

>  <SCORE.INTER.VDW>
-17.7554

>  <SCORE.INTER.norm>
-0.0882487

>  <SCORE.INTRA>
-6.18817

>  <SCORE.INTRA.DIHEDRAL>
-16.8284

>  <SCORE.INTRA.DIHEDRAL.0>
23.8882

>  <SCORE.INTRA.POLAR>
0

>  <SCORE.INTRA.POLAR.0>
0

>  <SCORE.INTRA.REPUL>
0

>  <SCORE.INTRA.REPUL.0>
0

>  <SCORE.INTRA.SOLV>
2.47678

>  <SCORE.INTRA.SOLV.lig_0>
-97.6888

>  <SCORE.INTRA.VDW>
0.987665

>  <SCORE.INTRA.VDW.0>
-3.9206

>  <SCORE.INTRA.norm>
-0.176805

>  <SCORE.RESTR>
0

>  <SCORE.RESTR.CAVITY>
0

>  <SCORE.RESTR.norm>
0

>  <SCORE.SYSTEM>
0

>  <SCORE.SYSTEM.CONST>
0

>  <SCORE.SYSTEM.DIHEDRAL>
0

>  <SCORE.SYSTEM.SOLV>
0

>  <SCORE.SYSTEM.norm>
0

>  <SCORE.heavy>
35

>  <SCORE.norm>
-0.265053

>  <RMSD>
7.565

$$$$
2f4t_lig
 OpenBabel11021811433D
libRbt.so/2013.1/901 2013/11/27
 35 36  0  0  0  0  0  0  0  0999 V2000
   -0.0892   -7.1162   21.6758 C   0  0  2  0  0  0  0  0  0  0  0  0
   -0.4094   -5.7909   22.2128 O   0  0  0  0  0  0  0  0  0  0  0  0
    1.0722   -3.7823   25.7381 C   0  0  2  0  0  0  0  0  0  0  0  0
    1.2189   -3.3935   27.1488 N   0  0  0  0  0  0  0  0  0  0  0  0
   -0.8252   -7.2092   20.3050 C   0  0  2  0  0  0  0  0  0  0  0  0
   -0.4304   -6.1225   19.4398 N   0  0  0  0  0  0  0  0  0  0  0  0
   -0.4401   -3.6654   25.3222 C   0  0  0  0  0  0  0  0  0  0  0  0
    2.7428   -2.5283   27.3677 C   0  0  0  0  0  0  0  0  0  0  0  0
    2.3435   -2.4109   28.8220 C   0  0  1  0  0  0  0  0  0  0  0  0
    3.5550   -1.8805   29.5919 C   0  0  0  0  0  0  0  0  0  0  0  0
    3.3831   -1.7811   31.1170 C   0  0  0  0  0  0  0  0  0  0  0  0
    3.2666   -3.1381   31.6590 N   0  0  0  0  0  0  0  0  0  0  0  0
    1.3321   -1.4519   28.9887 O   0  0  0  0  0  0  0  0  0  0  0  0
    4.0073   -5.3820   26.7806 C   0  0  0  0  0  0  0  0  0  0  0  0
    5.2512   -5.6564   25.9494 C   0  0  0  0  0  0  0  0  0  0  0  0
   -2.3756   -7.2038   20.5254 C   0  0  1  0  0  0  0  0  0  0  0  0
    6.4479   -5.9683   26.7614 N   0  0  0  0  0  0  0  0  0  0  0  0
   -3.0631   -7.2925   19.2926 O   0  0  0  0  0  0  0  0  0  0  0  0
   -0.6639   -4.0690   23.8582 C   0  0  2  0  0  0  0  0  0  0  0  0
   -2.0787   -3.9914   23.5081 N   0  0  0  0  0  0  0  0  0  0  0  0
    8.6584   -5.3648   27.7519 C   0  0  0  0  0  0  0  0  0  0  0  0
    9.5312   -4.2956   28.4846 N   0  0  0  0  0  0  0  0  0  0  0  0
    7.2256   -4.8676   27.3980 C   0  0  0  0  0  0  0  0  0  0  0  0
    3.5440   -2.2466   26.7212 O   0  0  0  0  0  0  0  0  0  0  0  0
   -2.7310   -8.3878   21.4308 C   0  0  2  0  0  0  0  0  0  0  0  0
   -4.1291   -8.4491   21.6616 O   0  0  0  0  0  0  0  0  0  0  0  0
   -0.1734   -5.4751   23.6187 C   0  0  2  0  0  0  0  0  0  0  0  0
   -1.9647   -8.2723   22.7801 C   0  0  2  0  0  0  0  0  0  0  0  0
   -0.5394   -8.2118   22.5649 O   0  0  0  0  0  0  0  0  0  0  0  0
    1.3628   -5.5930   24.0074 C   0  0  2  0  0  0  0  0  0  0  0  0
    1.8030   -6.9615   23.7576 O   0  0  0  0  0  0  0  0  0  0  0  0
   -2.2539   -9.4133   23.6810 C   0  0  0  0  0  0  0  0  0  0  0  0
   -1.3043   -9.4815   24.6398 N   0  0  0  0  0  0  0  0  0  0  0  0
    1.5303   -5.2334   25.5246 C   0  0  1  0  0  0  0  0  0  0  0  0
    2.8642   -5.3548   25.9040 O   0  0  0  0  0  0  0  0  0  0  0  0
  1  2  1  1  0  0  0
  1  5  1  0  0  0  0
  1 29  1  0  0  0  0
  3  4  1  1  0  0  0
  3  7  1  0  0  0  0
  3 34  1  0  0  0  0
  5  6  1  6  0  0  0
  5 16  1  0  0  0  0
  7 19  1  0  0  0  0
  8  4  1  0  0  0  0
  8 24  2  0  0  0  0
  9  8  1  6  0  0  0
  9 10  1  0  0  0  0
  9 13  1  0  0  0  0
 10 11  1  0  0  0  0
 11 12  1  0  0  0  0
 14 15  1  0  0  0  0
 14 35  1  0  0  0  0
 15 17  1  0  0  0  0
 16 18  1  6  0  0  0
 16 25  1  0  0  0  0
 19 20  1  1  0  0  0
 19 27  1  0  0  0  0
 21 22  1  0  0  0  0
 21 23  1  0  0  0  0
 23 17  1  0  0  0  0
 25 26  1  1  0  0  0
 25 28  1  0  0  0  0
 27  2  1  6  0  0  0
 27 30  1  0  0  0  0
 28 29  1  0  0  0  0
 28 32  1  1  0  0  0
 30 31  1  1  0  0  0
 30 34  1  0  0  0  0
 32 33  2  0  0  0  0
 34 35  1  6  0  0  0
M  END
>  <CHROM.1>
164.56041333,-143.56328813,169.99549648,-175.93084585,66.98691055,-168.76586942
-179.85154991,-79.83848857,-177.39987988,-160.15852161,-177.42202905,162.30841574
67.22807098,1.36119367,-5.35852437,25.01951802,-2.30699516,-0.24371051,0.84172546

>  <Name>
2f4t_lig

>  <RI>
0

>  <Rbt.Current_Directory>
/home/itssahil/PROJECTS/Mol_Feturizer/New_Systems/rnas/2f4t

>  <Rbt.Executable>
rbdock ($Id: //depot/dev/client3/rdock/2013.1/src/exe/rbdock.cxx#4 $)

>  <Rbt.Library>
libRbt.so (2013.1, Build901 2013/11/27)

>  <Rbt.Parameter_File>
/export/apps/rDock/src/rDock_2013.1_src/data/scripts/dock_solv.prm

>  <Rbt.Receptor>
prm/pocket_docking_7.prm

>  <SCORE>
-21.1621

>  <SCORE.INTER>
-12.6255

>  <SCORE.INTER.CONST>
1

>  <SCORE.INTER.POLAR>
-0.699505

>  <SCORE.INTER.ROT>
13

>  <SCORE.INTER.SOLV>
18.7323

>  <SCORE.INTER.VDW>
-24.596

>  <SCORE.INTER.norm>
-0.360727

>  <SCORE.INTRA>
-8.5744

>  <SCORE.INTRA.DIHEDRAL>
-17.8424

>  <SCORE.INTRA.DIHEDRAL.0>
23.8882

>  <SCORE.INTRA.POLAR>
0

>  <SCORE.INTRA.POLAR.0>
0

>  <SCORE.INTRA.REPUL>
0

>  <SCORE.INTRA.REPUL.0>
0

>  <SCORE.INTRA.SOLV>
0.320357

>  <SCORE.INTRA.SOLV.lig_0>
-97.6888

>  <SCORE.INTRA.VDW>
0.186633

>  <SCORE.INTRA.VDW.0>
-3.9206

>  <SCORE.INTRA.norm>
-0.244983

>  <SCORE.RESTR>
0.0377535

>  <SCORE.RESTR.CAVITY>
0.0377535

>  <SCORE.RESTR.norm>
0.00107867

>  <SCORE.SYSTEM>
0

>  <SCORE.SYSTEM.CONST>
0

>  <SCORE.SYSTEM.DIHEDRAL>
0

>  <SCORE.SYSTEM.SOLV>
0

>  <SCORE.SYSTEM.norm>
0

>  <SCORE.heavy>
35

>  <SCORE.norm>
-0.604632

>  <RMSD>
7.593

$$$$
2f4t_lig
 OpenBabel11021811433D
libRbt.so/2013.1/901 2013/11/27
 35 36  0  0  0  0  0  0  0  0999 V2000
   -1.7162   -6.4847   20.3214 C   0  0  2  0  0  0  0  0  0  0  0  0
   -1.6465   -5.9735   21.6929 O   0  0  0  0  0  0  0  0  0  0  0  0
    1.4322   -6.1652   24.7165 C   0  0  2  0  0  0  0  0  0  0  0  0
    2.7588   -6.0831   25.3458 N   0  0  0  0  0  0  0  0  0  0  0  0
   -2.5805   -5.4584   19.5280 C   0  0  2  0  0  0  0  0  0  0  0  0
   -2.0146   -4.1333   19.6245 N   0  0  0  0  0  0  0  0  0  0  0  0
    1.5291   -7.0415   23.4140 C   0  0  0  0  0  0  0  0  0  0  0  0
    2.8540   -7.2400   26.6768 C   0  0  0  0  0  0  0  0  0  0  0  0
    4.2672   -6.7369   26.8713 C   0  0  1  0  0  0  0  0  0  0  0  0
    4.9300   -7.6205   27.9304 C   0  0  0  0  0  0  0  0  0  0  0  0
    6.2987   -7.1374   28.4389 C   0  0  0  0  0  0  0  0  0  0  0  0
    6.7524   -8.0546   29.4886 N   0  0  0  0  0  0  0  0  0  0  0  0
    5.0250   -6.9046   25.7017 O   0  0  0  0  0  0  0  0  0  0  0  0
    0.6405   -2.7910   26.2687 C   0  0  0  0  0  0  0  0  0  0  0  0
    0.8577   -3.1431   27.7324 C   0  0  0  0  0  0  0  0  0  0  0  0
   -4.0531   -5.4699   20.0606 C   0  0  1  0  0  0  0  0  0  0  0  0
   -0.0922   -4.1552   28.2441 N   0  0  0  0  0  0  0  0  0  0  0  0
   -4.8562   -4.5477   19.3499 O   0  0  0  0  0  0  0  0  0  0  0  0
    0.1748   -7.1584   22.7008 C   0  0  2  0  0  0  0  0  0  0  0  0
    0.2986   -7.9411   21.4752 N   0  0  0  0  0  0  0  0  0  0  0  0
   -2.0483   -4.3697   29.7801 C   0  0  0  0  0  0  0  0  0  0  0  0
   -2.6067   -4.2308   31.2329 N   0  0  0  0  0  0  0  0  0  0  0  0
   -0.5135   -4.1281   29.6735 C   0  0  0  0  0  0  0  0  0  0  0  0
    2.1795   -7.9490   27.1028 O   0  0  0  0  0  0  0  0  0  0  0  0
   -4.6010   -6.8931   19.9122 C   0  0  2  0  0  0  0  0  0  0  0  0
   -5.9422   -6.9711   20.3669 O   0  0  0  0  0  0  0  0  0  0  0  0
   -0.3605   -5.7901   22.3597 C   0  0  2  0  0  0  0  0  0  0  0  0
   -3.7041   -7.8914   20.6997 C   0  0  2  0  0  0  0  0  0  0  0  0
   -2.3353   -7.8281   20.2481 O   0  0  0  0  0  0  0  0  0  0  0  0
   -0.4907   -4.9091   23.6757 C   0  0  2  0  0  0  0  0  0  0  0  0
   -1.0157   -3.5981   23.3088 O   0  0  0  0  0  0  0  0  0  0  0  0
   -4.1780   -9.2891   20.5624 C   0  0  0  0  0  0  0  0  0  0  0  0
   -4.6114   -9.7372   21.7612 N   0  0  0  0  0  0  0  0  0  0  0  0
    0.9266   -4.7662   24.3316 C   0  0  1  0  0  0  0  0  0  0  0  0
    0.8510   -3.9744   25.4740 O   0  0  0  0  0  0  0  0  0  0  0  0
  1  2  1  1  0  0  0
  1  5  1  0  0  0  0
  1 29  1  0  0  0  0
  3  4  1  6  0  0  0
  3  7  1  0  0  0  0
  3 34  1  0  0  0  0
  5  6  1  1  0  0  0
  5 16  1  0  0  0  0
  7 19  1  0  0  0  0
  8  4  1  0  0  0  0
  8 24  2  0  0  0  0
  9  8  1  6  0  0  0
  9 10  1  0  0  0  0
  9 13  1  0  0  0  0
 10 11  1  0  0  0  0
 11 12  1  0  0  0  0
 14 15  1  0  0  0  0
 14 35  1  0  0  0  0
 15 17  1  0  0  0  0
 16 18  1  6  0  0  0
 16 25  1  0  0  0  0
 19 20  1  6  0  0  0
 19 27  1  0  0  0  0
 21 22  1  0  0  0  0
 21 23  1  0  0  0  0
 23 17  1  0  0  0  0
 25 26  1  1  0  0  0
 25 28  1  0  0  0  0
 27  2  1  1  0  0  0
 27 30  1  0  0  0  0
 28 29  1  0  0  0  0
 28 32  1  6  0  0  0
 30 31  1  6  0  0  0
 30 34  1  0  0  0  0
 32 33  2  0  0  0  0
 34 35  1  1  0  0  0
M  END
>  <CHROM.1>
-127.09259934,-99.40774283,-173.26035632,-170.58104922,177.10259722,-62.20161821
178.95330231,-148.73270184,-174.76952581,136.65278568,-72.73687805,-113.76294740
175.60678710,-0.22844929,-6.05663505,24.17211371,-2.36581992,-0.40038973
1.12331294

>  <Name>
2f4t_lig

>  <RI>
0

>  <Rbt.Current_Directory>
/home/itssahil/PROJECTS/Mol_Feturizer/New_Systems/rnas/2f4t

>  <Rbt.Executable>
rbdock ($Id: //depot/dev/client3/rdock/2013.1/src/exe/rbdock.cxx#4 $)

>  <Rbt.Library>
libRbt.so (2013.1, Build901 2013/11/27)

>  <Rbt.Parameter_File>
/export/apps/rDock/src/rDock_2013.1_src/data/scripts/dock_solv.prm

>  <Rbt.Receptor>
prm/pocket_docking_8.prm

>  <SCORE>
-23.3955

>  <SCORE.INTER>
-19.3838

>  <SCORE.INTER.CONST>
1

>  <SCORE.INTER.POLAR>
-2.60134

>  <SCORE.INTER.ROT>
13

>  <SCORE.INTER.SOLV>
17.1107

>  <SCORE.INTER.VDW>
-22.2216

>  <SCORE.INTER.norm>
-0.553823

>  <SCORE.INTRA>
-4.01165

>  <SCORE.INTRA.DIHEDRAL>
-11.4359

>  <SCORE.INTRA.DIHEDRAL.0>
23.8882

>  <SCORE.INTRA.POLAR>
0

>  <SCORE.INTRA.POLAR.0>
0

>  <SCORE.INTRA.REPUL>
0

>  <SCORE.INTRA.REPUL.0>
0

>  <SCORE.INTRA.SOLV>
1.24706

>  <SCORE.INTRA.SOLV.lig_0>
-97.6888

>  <SCORE.INTRA.VDW>
1.08277

>  <SCORE.INTRA.VDW.0>
-3.9206

>  <SCORE.INTRA.norm>
-0.114619

>  <SCORE.RESTR>
0

>  <SCORE.RESTR.CAVITY>
0

>  <SCORE.RESTR.norm>
0

>  <SCORE.SYSTEM>
0

>  <SCORE.SYSTEM.CONST>
0

>  <SCORE.SYSTEM.DIHEDRAL>
0

>  <SCORE.SYSTEM.SOLV>
0

>  <SCORE.SYSTEM.norm>
0

>  <SCORE.heavy>
35

>  <SCORE.norm>
-0.668442

>  <RMSD>
7.601

$$$$
2f4t_lig
 OpenBabel11021811433D
libRbt.so/2013.1/901 2013/11/27
 35 36  0  0  0  0  0  0  0  0999 V2000
   -0.0856   -6.4307   21.7676 C   0  0  2  0  0  0  0  0  0  0  0  0
   -0.5668   -5.3012   22.5676 O   0  0  0  0  0  0  0  0  0  0  0  0
    1.2880   -3.3944   25.9707 C   0  0  2  0  0  0  0  0  0  0  0  0
    1.6763   -3.1263   27.3635 N   0  0  0  0  0  0  0  0  0  0  0  0
   -1.0733   -6.5542   20.5681 C   0  0  2  0  0  0  0  0  0  0  0  0
   -1.1422   -5.3122   19.8347 N   0  0  0  0  0  0  0  0  0  0  0  0
   -0.2752   -3.5468   25.8879 C   0  0  0  0  0  0  0  0  0  0  0  0
    1.6147   -1.3882   27.6699 C   0  0  0  0  0  0  0  0  0  0  0  0
    2.0500   -1.7295   29.0778 C   0  0  1  0  0  0  0  0  0  0  0  0
    3.5692   -1.5582   29.1455 C   0  0  0  0  0  0  0  0  0  0  0  0
    4.2623   -2.2306   30.3424 C   0  0  0  0  0  0  0  0  0  0  0  0
    3.6985   -1.6744   31.5760 N   0  0  0  0  0  0  0  0  0  0  0  0
    1.5186   -0.8168   30.0025 O   0  0  0  0  0  0  0  0  0  0  0  0
    4.6178   -4.4564   26.1658 C   0  0  0  0  0  0  0  0  0  0  0  0
    4.8807   -5.7037   26.9956 C   0  0  0  0  0  0  0  0  0  0  0  0
   -2.4928   -6.9717   21.0811 C   0  0  1  0  0  0  0  0  0  0  0  0
    6.1300   -5.6360   27.7852 N   0  0  0  0  0  0  0  0  0  0  0  0
   -3.4042   -7.0941   20.0065 O   0  0  0  0  0  0  0  0  0  0  0  0
   -0.7467   -3.8397   24.4567 C   0  0  2  0  0  0  0  0  0  0  0  0
   -2.1947   -4.0172   24.4125 N   0  0  0  0  0  0  0  0  0  0  0  0
    7.8501   -6.4699   29.3906 C   0  0  0  0  0  0  0  0  0  0  0  0
    9.0671   -5.9243   28.5762 N   0  0  0  0  0  0  0  0  0  0  0  0
    6.6226   -6.8430   28.5077 C   0  0  0  0  0  0  0  0  0  0  0  0
    1.3710   -0.5318   27.0814 O   0  0  0  0  0  0  0  0  0  0  0  0
   -2.3554   -8.3015   21.8297 C   0  0  2  0  0  0  0  0  0  0  0  0
   -3.6132   -8.7452   22.3123 O   0  0  0  0  0  0  0  0  0  0  0  0
   -0.0812   -5.0856   23.9276 C   0  0  2  0  0  0  0  0  0  0  0  0
   -1.3490   -8.1463   23.0062 C   0  0  2  0  0  0  0  0  0  0  0  0
   -0.0617   -7.6982   22.5333 O   0  0  0  0  0  0  0  0  0  0  0  0
    1.4990   -4.9266   23.9791 C   0  0  2  0  0  0  0  0  0  0  0  0
    2.1073   -6.1451   23.4555 O   0  0  0  0  0  0  0  0  0  0  0  0
   -1.1596   -9.4174   23.7448 C   0  0  0  0  0  0  0  0  0  0  0  0
   -1.9729   -9.4364   24.8237 N   0  0  0  0  0  0  0  0  0  0  0  0
    1.9363   -4.6933   25.4669 C   0  0  1  0  0  0  0  0  0  0  0  0
    3.3211   -4.5779   25.5496 O   0  0  0  0  0  0  0  0  0  0  0  0
  1  2  1  1  0  0  0
  1  5  1  0  0  0  0
  1 29  1  0  0  0  0
  3  4  1  1  0  0  0
  3  7  1  0  0  0  0
  3 34  1  0  0  0  0
  5  6  1  1  0  0  0
  5 16  1  0  0  0  0
  7 19  1  0  0  0  0
  8  4  1  0  0  0  0
  8 24  2  0  0  0  0
  9  8  1  6  0  0  0
  9 10  1  0  0  0  0
  9 13  1  0  0  0  0
 10 11  1  0  0  0  0
 11 12  1  0  0  0  0
 14 15  1  0  0  0  0
 14 35  1  0  0  0  0
 15 17  1  0  0  0  0
 16 18  1  6  0  0  0
 16 25  1  0  0  0  0
 19 20  1  1  0  0  0
 19 27  1  0  0  0  0
 21 22  1  0  0  0  0
 21 23  1  0  0  0  0
 23 17  1  0  0  0  0
 25 26  1  1  0  0  0
 25 28  1  0  0  0  0
 27  2  1  6  0  0  0
 27 30  1  0  0  0  0
 28 29  1  0  0  0  0
 28 32  1  6  0  0  0
 30 31  1  1  0  0  0
 30 34  1  0  0  0  0
 32 33  2  0  0  0  0
 34 35  1  6  0  0  0
M  END
>  <CHROM.1>
165.41409985,-87.39002463,96.30953681,-163.05422201,-59.14046440,-174.33584709
63.06747413,-171.90796345,-61.15361742,-173.37208993,178.98043072,-95.81023398
66.93440137,1.32533271,-5.07660718,25.33149543,-2.37785364,-0.50267535,0.61615642

>  <Name>
2f4t_lig

>  <RI>
0

>  <Rbt.Current_Directory>
/home/itssahil/PROJECTS/Mol_Feturizer/New_Systems/rnas/2f4t

>  <Rbt.Executable>
rbdock ($Id: //depot/dev/client3/rdock/2013.1/src/exe/rbdock.cxx#4 $)

>  <Rbt.Library>
libRbt.so (2013.1, Build901 2013/11/27)

>  <Rbt.Parameter_File>
/export/apps/rDock/src/rDock_2013.1_src/data/scripts/dock_solv.prm

>  <Rbt.Receptor>
prm/pocket_docking_5.prm

>  <SCORE>
-26.632

>  <SCORE.INTER>
-18.2228

>  <SCORE.INTER.CONST>
1

>  <SCORE.INTER.POLAR>
-1.25834

>  <SCORE.INTER.ROT>
13

>  <SCORE.INTER.SOLV>
23.3156

>  <SCORE.INTER.VDW>
-27.9926

>  <SCORE.INTER.norm>
-0.520652

>  <SCORE.INTRA>
-8.71451

>  <SCORE.INTRA.DIHEDRAL>
-17.913

>  <SCORE.INTRA.DIHEDRAL.0>
23.8882

>  <SCORE.INTRA.POLAR>
0

>  <SCORE.INTRA.POLAR.0>
0

>  <SCORE.INTRA.REPUL>
0

>  <SCORE.INTRA.REPUL.0>
0

>  <SCORE.INTRA.SOLV>
1.35202

>  <SCORE.INTRA.SOLV.lig_0>
-97.6888

>  <SCORE.INTRA.VDW>
-0.43402

>  <SCORE.INTRA.VDW.0>
-3.9206

>  <SCORE.INTRA.norm>
-0.248986

>  <SCORE.RESTR>
0.305328

>  <SCORE.RESTR.CAVITY>
0.305328

>  <SCORE.RESTR.norm>
0.00872365

>  <SCORE.SYSTEM>
0

>  <SCORE.SYSTEM.CONST>
0

>  <SCORE.SYSTEM.DIHEDRAL>
0

>  <SCORE.SYSTEM.SOLV>
0

>  <SCORE.SYSTEM.norm>
0

>  <SCORE.heavy>
35

>  <SCORE.norm>
-0.760915

>  <RMSD>
7.668

$$$$
2f4t_lig
 OpenBabel11021811433D
libRbt.so/2013.1/901 2013/11/27
 35 36  0  0  0  0  0  0  0  0999 V2000
    2.6160  -10.5734   31.1431 C   0  0  2  0  0  0  0  0  0  0  0  0
    4.0534  -10.8561   31.1756 O   0  0  0  0  0  0  0  0  0  0  0  0
    5.6719   -6.9328   31.9791 C   0  0  2  0  0  0  0  0  0  0  0  0
    6.6206   -5.8855   32.3863 N   0  0  0  0  0  0  0  0  0  0  0  0
    1.9134  -11.9566   30.9924 C   0  0  2  0  0  0  0  0  0  0  0  0
    2.3051  -12.8461   32.0605 N   0  0  0  0  0  0  0  0  0  0  0  0
    5.5616   -8.0065   33.1230 C   0  0  0  0  0  0  0  0  0  0  0  0
    5.8202   -4.7580   33.4849 C   0  0  0  0  0  0  0  0  0  0  0  0
    7.1473   -4.0338   33.5367 C   0  0  1  0  0  0  0  0  0  0  0  0
    7.1463   -2.9880   32.4194 C   0  0  0  0  0  0  0  0  0  0  0  0
    8.4531   -2.1955   32.2482 C   0  0  0  0  0  0  0  0  0  0  0  0
    8.2532   -1.1955   31.1950 N   0  0  0  0  0  0  0  0  0  0  0  0
    7.2805   -3.3156   34.7353 O   0  0  0  0  0  0  0  0  0  0  0  0
    6.7565   -5.5221   28.9840 C   0  0  0  0  0  0  0  0  0  0  0  0
    6.0099   -5.3923   27.6653 C   0  0  0  0  0  0  0  0  0  0  0  0
    2.2542  -12.5841   29.5987 C   0  0  1  0  0  0  0  0  0  0  0  0
    6.4213   -4.2172   26.8661 N   0  0  0  0  0  0  0  0  0  0  0  0
    1.6219  -13.8391   29.4397 O   0  0  0  0  0  0  0  0  0  0  0  0
    4.5911   -9.1374   32.7548 C   0  0  2  0  0  0  0  0  0  0  0  0
    4.5368  -10.1409   33.8133 N   0  0  0  0  0  0  0  0  0  0  0  0
    6.1043   -2.3716   25.2155 C   0  0  0  0  0  0  0  0  0  0  0  0
    6.2728   -1.2598   26.3005 N   0  0  0  0  0  0  0  0  0  0  0  0
    5.5415   -3.7118   25.7745 C   0  0  0  0  0  0  0  0  0  0  0  0
    4.8366   -4.6790   33.8915 O   0  0  0  0  0  0  0  0  0  0  0  0
    1.7970  -11.6051   28.5123 C   0  0  2  0  0  0  0  0  0  0  0  0
    2.0660  -12.1202   27.2184 O   0  0  0  0  0  0  0  0  0  0  0  0
    5.0182   -9.8001   31.4690 C   0  0  2  0  0  0  0  0  0  0  0  0
    2.5025  -10.2317   28.7050 C   0  0  2  0  0  0  0  0  0  0  0  0
    2.2373   -9.6905   30.0158 O   0  0  0  0  0  0  0  0  0  0  0  0
    5.1016   -8.7262   30.3007 C   0  0  2  0  0  0  0  0  0  0  0  0
    5.5107   -9.4027   29.0743 O   0  0  0  0  0  0  0  0  0  0  0  0
    2.0695   -9.2394   27.6927 C   0  0  0  0  0  0  0  0  0  0  0  0
    3.1561   -8.7026   27.0952 N   0  0  0  0  0  0  0  0  0  0  0  0
    6.1501   -7.6289   30.6954 C   0  0  1  0  0  0  0  0  0  0  0  0
    6.2673   -6.6864   29.6777 O   0  0  0  0  0  0  0  0  0  0  0  0
  1  2  1  6  0  0  0
  1  5  1  0  0  0  0
  1 29  1  0  0  0  0
  3  4  1  1  0  0  0
  3  7  1  0  0  0  0
  3 34  1  0  0  0  0
  5  6  1  1  0  0  0
  5 16  1  0  0  0  0
  7 19  1  0  0  0  0
  8  4  1  0  0  0  0
  8 24  2  0  0  0  0
  9  8  1  1  0  0  0
  9 10  1  0  0  0  0
  9 13  1  0  0  0  0
 10 11  1  0  0  0  0
 11 12  1  0  0  0  0
 14 15  1  0  0  0  0
 14 35  1  0  0  0  0
 15 17  1  0  0  0  0
 16 18  1  6  0  0  0
 16 25  1  0  0  0  0
 19 20  1  1  0  0  0
 19 27  1  0  0  0  0
 21 22  1  0  0  0  0
 21 23  1  0  0  0  0
 23 17  1  0  0  0  0
 25 26  1  6  0  0  0
 25 28  1  0  0  0  0
 27  2  1  6  0  0  0
 27 30  1  0  0  0  0
 28 29  1  0  0  0  0
 28 32  1  6  0  0  0
 30 31  1  6  0  0  0
 30 34  1  0  0  0  0
 32 33  2  0  0  0  0
 34 35  1  6  0  0  0
M  END
>  <CHROM.1>
-172.64166940,-79.72081926,90.22253949,-176.42403902,-176.86716911,179.46368339
-178.80212889,-161.77883099,-57.04218857,172.69087440,52.46068788,-127.79547213
62.16422256,4.84701301,-7.50041191,30.31173362,-2.89007279,-1.07227831,-1.20737244

>  <Name>
2f4t_lig

>  <RI>
0

>  <Rbt.Current_Directory>
/home/itssahil/PROJECTS/Mol_Feturizer/New_Systems/rnas/2f4t

>  <Rbt.Executable>
rbdock ($Id: //depot/dev/client3/rdock/2013.1/src/exe/rbdock.cxx#4 $)

>  <Rbt.Library>
libRbt.so (2013.1, Build901 2013/11/27)

>  <Rbt.Parameter_File>
/export/apps/rDock/src/rDock_2013.1_src/data/scripts/dock_solv.prm

>  <Rbt.Receptor>
prm/pocket_docking_6.prm

>  <SCORE>
-12.4718

>  <SCORE.INTER>
-2.39943

>  <SCORE.INTER.CONST>
1

>  <SCORE.INTER.POLAR>
-0.8

>  <SCORE.INTER.ROT>
13

>  <SCORE.INTER.SOLV>
9.88848

>  <SCORE.INTER.VDW>
-14.4958

>  <SCORE.INTER.norm>
-0.0685552

>  <SCORE.INTRA>
-10.0724

>  <SCORE.INTRA.DIHEDRAL>
-20.1075

>  <SCORE.INTRA.DIHEDRAL.0>
23.8882

>  <SCORE.INTRA.POLAR>
0

>  <SCORE.INTRA.POLAR.0>
0

>  <SCORE.INTRA.REPUL>
0

>  <SCORE.INTRA.REPUL.0>
0

>  <SCORE.INTRA.SOLV>
1.18638

>  <SCORE.INTRA.SOLV.lig_0>
-97.6888

>  <SCORE.INTRA.VDW>
-0.611839

>  <SCORE.INTRA.VDW.0>
-3.9206

>  <SCORE.INTRA.norm>
-0.287782

>  <SCORE.RESTR>
0

>  <SCORE.RESTR.CAVITY>
0

>  <SCORE.RESTR.norm>
0

>  <SCORE.SYSTEM>
0

>  <SCORE.SYSTEM.CONST>
0

>  <SCORE.SYSTEM.DIHEDRAL>
0

>  <SCORE.SYSTEM.SOLV>
0

>  <SCORE.SYSTEM.norm>
0

>  <SCORE.heavy>
35

>  <SCORE.norm>
-0.356338

>  <RMSD>
7.682

$$$$
2f4t_lig
 OpenBabel11021811433D
libRbt.so/2013.1/901 2013/11/27
 35 36  0  0  0  0  0  0  0  0999 V2000
    1.7045  -11.7304   29.9296 C   0  0  2  0  0  0  0  0  0  0  0  0
    2.4849  -11.0256   30.9501 O   0  0  0  0  0  0  0  0  0  0  0  0
    5.2682   -7.7875   30.2975 C   0  0  2  0  0  0  0  0  0  0  0  0
    6.5348   -7.0813   30.0537 N   0  0  0  0  0  0  0  0  0  0  0  0
    0.4454  -12.2835   30.6633 C   0  0  2  0  0  0  0  0  0  0  0  0
   -0.2782  -11.2142   31.3103 N   0  0  0  0  0  0  0  0  0  0  0  0
    5.4465   -8.7678   31.5145 C   0  0  0  0  0  0  0  0  0  0  0  0
    7.7748   -8.2421   29.5700 C   0  0  0  0  0  0  0  0  0  0  0  0
    8.7002   -7.0496   29.4706 C   0  0  1  0  0  0  0  0  0  0  0  0
    9.8105   -7.2392   30.5065 C   0  0  0  0  0  0  0  0  0  0  0  0
   10.8457   -6.1048   30.5882 C   0  0  0  0  0  0  0  0  0  0  0  0
   10.1489   -4.8681   30.9545 N   0  0  0  0  0  0  0  0  0  0  0  0
    9.3410   -7.0146   28.2222 O   0  0  0  0  0  0  0  0  0  0  0  0
    4.1724   -6.6735   27.1831 C   0  0  0  0  0  0  0  0  0  0  0  0
    4.3895   -5.3665   27.9302 C   0  0  0  0  0  0  0  0  0  0  0  0
    0.8658  -13.3747   31.7049 C   0  0  1  0  0  0  0  0  0  0  0  0
    3.6458   -5.2847   29.2065 N   0  0  0  0  0  0  0  0  0  0  0  0
   -0.2640  -13.8936   32.3791 O   0  0  0  0  0  0  0  0  0  0  0  0
    4.1584   -9.5466   31.8155 C   0  0  2  0  0  0  0  0  0  0  0  0
    4.3605  -10.4779   32.9211 N   0  0  0  0  0  0  0  0  0  0  0  0
    2.8600   -2.9484   29.6012 C   0  0  0  0  0  0  0  0  0  0  0  0
    2.9827   -1.6357   30.4400 N   0  0  0  0  0  0  0  0  0  0  0  0
    3.8008   -4.0910   30.0855 C   0  0  0  0  0  0  0  0  0  0  0  0
    7.7969   -9.2999   29.4296 O   0  0  0  0  0  0  0  0  0  0  0  0
    1.6077  -14.4862   30.9553 C   0  0  2  0  0  0  0  0  0  0  0  0
    2.0075  -15.5180   31.8427 O   0  0  0  0  0  0  0  0  0  0  0  0
    3.7119  -10.3167   30.5979 C   0  0  2  0  0  0  0  0  0  0  0  0
    2.8454  -13.8955   30.2203 C   0  0  2  0  0  0  0  0  0  0  0  0
    2.4572  -12.8454   29.3102 O   0  0  0  0  0  0  0  0  0  0  0  0
    3.4994   -9.3282   29.3721 C   0  0  2  0  0  0  0  0  0  0  0  0
    3.0631  -10.1054   28.2169 O   0  0  0  0  0  0  0  0  0  0  0  0
    3.5812  -14.9297   29.4549 C   0  0  0  0  0  0  0  0  0  0  0  0
    4.8888  -14.8949   29.7934 N   0  0  0  0  0  0  0  0  0  0  0  0
    4.8564   -8.6052   29.0635 C   0  0  1  0  0  0  0  0  0  0  0  0
    4.7103   -7.7511   27.9740 O   0  0  0  0  0  0  0  0  0  0  0  0
  1  2  1  1  0  0  0
  1  5  1  0  0  0  0
  1 29  1  0  0  0  0
  3  4  1  6  0  0  0
  3  7  1  0  0  0  0
  3 34  1  0  0  0  0
  5  6  1  1  0  0  0
  5 16  1  0  0  0  0
  7 19  1  0  0  0  0
  8  4  1  0  0  0  0
  8 24  2  0  0  0  0
  9  8  1  6  0  0  0
  9 10  1  0  0  0  0
  9 13  1  0  0  0  0
 10 11  1  0  0  0  0
 11 12  1  0  0  0  0
 14 15  1  0  0  0  0
 14 35  1  0  0  0  0
 15 17  1  0  0  0  0
 16 18  1  6  0  0  0
 16 25  1  0  0  0  0
 19 20  1  1  0  0  0
 19 27  1  0  0  0  0
 21 22  1  0  0  0  0
 21 23  1  0  0  0  0
 23 17  1  0  0  0  0
 25 26  1  1  0  0  0
 25 28  1  0  0  0  0
 27  2  1  1  0  0  0
 27 30  1  0  0  0  0
 28 29  1  0  0  0  0
 28 32  1  6  0  0  0
 30 31  1  6  0  0  0
 30 34  1  0  0  0  0
 32 33  2  0  0  0  0
 34 35  1  6  0  0  0
M  END
>  <CHROM.1>
-176.87530157,64.15709193,116.66396043,-178.57745933,60.83684628,-64.61681052
61.49343623,177.30427166,-178.33585067,83.29747557,172.10536956,-127.85747037
-62.37512928,4.40174628,-9.31759296,30.08811075,2.14360619,-0.04639184,3.01507009

>  <Name>
2f4t_lig

>  <RI>
0

>  <Rbt.Current_Directory>
/home/itssahil/PROJECTS/Mol_Feturizer/New_Systems/rnas/2f4t

>  <Rbt.Executable>
rbdock ($Id: //depot/dev/client3/rdock/2013.1/src/exe/rbdock.cxx#4 $)

>  <Rbt.Library>
libRbt.so (2013.1, Build901 2013/11/27)

>  <Rbt.Parameter_File>
/export/apps/rDock/src/rDock_2013.1_src/data/scripts/dock_solv.prm

>  <Rbt.Receptor>
prm/pocket_docking_6.prm

>  <SCORE>
-15.8975

>  <SCORE.INTER>
-6.81687

>  <SCORE.INTER.CONST>
1

>  <SCORE.INTER.POLAR>
-1.60028

>  <SCORE.INTER.ROT>
13

>  <SCORE.INTER.SOLV>
8.82802

>  <SCORE.INTER.VDW>
-14.4197

>  <SCORE.INTER.norm>
-0.194768

>  <SCORE.INTRA>
-9.08067

>  <SCORE.INTRA.DIHEDRAL>
-19.673

>  <SCORE.INTRA.DIHEDRAL.0>
23.8882

>  <SCORE.INTRA.POLAR>
0

>  <SCORE.INTRA.POLAR.0>
0

>  <SCORE.INTRA.REPUL>
0

>  <SCORE.INTRA.REPUL.0>
0

>  <SCORE.INTRA.SOLV>
1.86653

>  <SCORE.INTRA.SOLV.lig_0>
-97.6888

>  <SCORE.INTRA.VDW>
-0.177421

>  <SCORE.INTRA.VDW.0>
-3.9206

>  <SCORE.INTRA.norm>
-0.259448

>  <SCORE.RESTR>
0

>  <SCORE.RESTR.CAVITY>
0

>  <SCORE.RESTR.norm>
0

>  <SCORE.SYSTEM>
0

>  <SCORE.SYSTEM.CONST>
0

>  <SCORE.SYSTEM.DIHEDRAL>
0

>  <SCORE.SYSTEM.SOLV>
0

>  <SCORE.SYSTEM.norm>
0

>  <SCORE.heavy>
35

>  <SCORE.norm>
-0.454215

>  <RMSD>
7.724

$$$$
2f4t_lig
 OpenBabel11021811433D
libRbt.so/2013.1/901 2013/11/27
 35 36  0  0  0  0  0  0  0  0999 V2000
   -1.6411   -8.6809   22.2395 C   0  0  2  0  0  0  0  0  0  0  0  0
   -0.2502   -8.3904   22.5978 O   0  0  0  0  0  0  0  0  0  0  0  0
    2.0364   -5.9420   25.3243 C   0  0  2  0  0  0  0  0  0  0  0  0
    2.3822   -4.8405   26.2353 N   0  0  0  0  0  0  0  0  0  0  0  0
   -1.5748   -9.7578   21.1145 C   0  0  2  0  0  0  0  0  0  0  0  0
   -0.8372  -10.9164   21.5609 N   0  0  0  0  0  0  0  0  0  0  0  0
    1.4906   -5.3472   23.9745 C   0  0  0  0  0  0  0  0  0  0  0  0
    3.9288   -4.1380   25.7524 C   0  0  0  0  0  0  0  0  0  0  0  0
    3.7378   -3.1877   26.9137 C   0  0  1  0  0  0  0  0  0  0  0  0
    4.8971   -2.1890   26.8885 C   0  0  0  0  0  0  0  0  0  0  0  0
    4.9099   -1.1549   28.0267 C   0  0  0  0  0  0  0  0  0  0  0  0
    5.1610   -1.8583   29.2881 N   0  0  0  0  0  0  0  0  0  0  0  0
    2.5703   -2.4256   26.7516 O   0  0  0  0  0  0  0  0  0  0  0  0
    2.2437   -8.1284   28.0386 C   0  0  0  0  0  0  0  0  0  0  0  0
    3.6962   -7.7379   27.8123 C   0  0  0  0  0  0  0  0  0  0  0  0
   -0.9226   -9.1508   19.8266 C   0  0  1  0  0  0  0  0  0  0  0  0
    4.6520   -8.5168   28.6297 N   0  0  0  0  0  0  0  0  0  0  0  0
   -0.8572  -10.1116   18.7908 O   0  0  0  0  0  0  0  0  0  0  0  0
    1.0999   -6.4493   22.9800 C   0  0  2  0  0  0  0  0  0  0  0  0
    0.5590   -5.8738   21.7526 N   0  0  0  0  0  0  0  0  0  0  0  0
    6.9046   -9.1364   29.5092 C   0  0  0  0  0  0  0  0  0  0  0  0
    6.5760   -8.6532   30.9585 N   0  0  0  0  0  0  0  0  0  0  0  0
    6.1181   -8.3747   28.4018 C   0  0  0  0  0  0  0  0  0  0  0  0
    4.6341   -4.3400   24.9771 O   0  0  0  0  0  0  0  0  0  0  0  0
   -1.7602   -7.9430   19.3939 C   0  0  2  0  0  0  0  0  0  0  0  0
   -1.2289   -7.3508   18.2197 O   0  0  0  0  0  0  0  0  0  0  0  0
    0.0700   -7.3675   23.5893 C   0  0  2  0  0  0  0  0  0  0  0  0
   -1.8206   -6.8992   20.5463 C   0  0  2  0  0  0  0  0  0  0  0  0
   -2.3620   -7.4837   21.7492 O   0  0  0  0  0  0  0  0  0  0  0  0
    0.6268   -7.9968   24.9379 C   0  0  2  0  0  0  0  0  0  0  0  0
   -0.3913   -8.8816   25.4944 O   0  0  0  0  0  0  0  0  0  0  0  0
   -2.6463   -5.7224   20.1853 C   0  0  0  0  0  0  0  0  0  0  0  0
   -1.8553   -4.7627   19.6570 N   0  0  0  0  0  0  0  0  0  0  0  0
    0.9507   -6.8367   25.9422 C   0  0  1  0  0  0  0  0  0  0  0  0
    1.4151   -7.3578   27.1466 O   0  0  0  0  0  0  0  0  0  0  0  0
  1  2  1  6  0  0  0
  1  5  1  0  0  0  0
  1 29  1  0  0  0  0
  3  4  1  1  0  0  0
  3  7  1  0  0  0  0
  3 34  1  0  0  0  0
  5  6  1  1  0  0  0
  5 16  1  0  0  0  0
  7 19  1  0  0  0  0
  8  4  1  0  0  0  0
  8 24  2  0  0  0  0
  9  8  1  6  0  0  0
  9 10  1  0  0  0  0
  9 13  1  0  0  0  0
 10 11  1  0  0  0  0
 11 12  1  0  0  0  0
 14 15  1  0  0  0  0
 14 35  1  0  0  0  0
 15 17  1  0  0  0  0
 16 18  1  6  0  0  0
 16 25  1  0  0  0  0
 19 20  1  6  0  0  0
 19 27  1  0  0  0  0
 21 22  1  0  0  0  0
 21 23  1  0  0  0  0
 23 17  1  0  0  0  0
 25 26  1  6  0  0  0
 25 28  1  0  0  0  0
 27  2  1  6  0  0  0
 27 30  1  0  0  0  0
 28 29  1  0  0  0  0
 28 32  1  6  0  0  0
 30 31  1  1  0  0  0
 30 34  1  0  0  0  0
 32 33  2  0  0  0  0
 34 35  1  1  0  0  0
M  END
>  <CHROM.1>
177.08888232,-77.56452584,-176.10243810,-178.14436379,67.00316964,-177.10717725
55.00611712,172.37405937,-57.96585429,172.08826440,-129.00932777,-92.59997735
-64.40221279,1.49683946,-6.69322354,24.43113103,-3.02042087,-0.92188089,-0.16991196

>  <Name>
2f4t_lig

>  <RI>
0

>  <Rbt.Current_Directory>
/home/itssahil/PROJECTS/Mol_Feturizer/New_Systems/rnas/2f4t

>  <Rbt.Executable>
rbdock ($Id: //depot/dev/client3/rdock/2013.1/src/exe/rbdock.cxx#4 $)

>  <Rbt.Library>
libRbt.so (2013.1, Build901 2013/11/27)

>  <Rbt.Parameter_File>
/export/apps/rDock/src/rDock_2013.1_src/data/scripts/dock_solv.prm

>  <Rbt.Receptor>
prm/pocket_docking_6.prm

>  <SCORE>
-10.5673

>  <SCORE.INTER>
-5.67201

>  <SCORE.INTER.CONST>
1

>  <SCORE.INTER.POLAR>
-0.759255

>  <SCORE.INTER.ROT>
13

>  <SCORE.INTER.SOLV>
17.405

>  <SCORE.INTER.VDW>
-19.3188

>  <SCORE.INTER.norm>
-0.162057

>  <SCORE.INTRA>
-4.8953

>  <SCORE.INTRA.DIHEDRAL>
-14.2296

>  <SCORE.INTRA.DIHEDRAL.0>
23.8882

>  <SCORE.INTRA.POLAR>
0

>  <SCORE.INTRA.POLAR.0>
0

>  <SCORE.INTRA.REPUL>
0

>  <SCORE.INTRA.REPUL.0>
0

>  <SCORE.INTRA.SOLV>
4.47576

>  <SCORE.INTRA.SOLV.lig_0>
-97.6888

>  <SCORE.INTRA.VDW>
-0.0183957

>  <SCORE.INTRA.VDW.0>
-3.9206

>  <SCORE.INTRA.norm>
-0.139866

>  <SCORE.RESTR>
0

>  <SCORE.RESTR.CAVITY>
0

>  <SCORE.RESTR.norm>
0

>  <SCORE.SYSTEM>
0

>  <SCORE.SYSTEM.CONST>
0

>  <SCORE.SYSTEM.DIHEDRAL>
0

>  <SCORE.SYSTEM.SOLV>
0

>  <SCORE.SYSTEM.norm>
0

>  <SCORE.heavy>
35

>  <SCORE.norm>
-0.301923

>  <RMSD>
7.831

$$$$
2f4t_lig
 OpenBabel11021811433D
libRbt.so/2013.1/901 2013/11/27
 35 36  0  0  0  0  0  0  0  0999 V2000
   -3.0970   -4.2188   22.9011 C   0  0  2  0  0  0  0  0  0  0  0  0
   -2.0858   -5.2794   22.9055 O   0  0  0  0  0  0  0  0  0  0  0  0
    1.7192   -5.5203   24.9355 C   0  0  2  0  0  0  0  0  0  0  0  0
    3.1454   -5.3134   25.2283 N   0  0  0  0  0  0  0  0  0  0  0  0
   -4.4660   -4.9367   22.7012 C   0  0  2  0  0  0  0  0  0  0  0  0
   -4.6742   -5.9318   23.7269 N   0  0  0  0  0  0  0  0  0  0  0  0
    1.5622   -6.0366   23.4582 C   0  0  0  0  0  0  0  0  0  0  0  0
    3.4766   -5.7665   26.9027 C   0  0  0  0  0  0  0  0  0  0  0  0
    4.9110   -5.3861   26.6093 C   0  0  1  0  0  0  0  0  0  0  0  0
    5.6702   -5.3887   27.9380 C   0  0  0  0  0  0  0  0  0  0  0  0
    7.1348   -4.9245   27.8688 C   0  0  0  0  0  0  0  0  0  0  0  0
    7.7277   -5.0632   29.2023 N   0  0  0  0  0  0  0  0  0  0  0  0
    5.5337   -6.3565   25.8088 O   0  0  0  0  0  0  0  0  0  0  0  0
    1.0566   -2.7833   27.4700 C   0  0  0  0  0  0  0  0  0  0  0  0
    1.1436   -3.5489   28.7813 C   0  0  0  0  0  0  0  0  0  0  0  0
   -4.5287   -5.5888   21.2788 C   0  0  1  0  0  0  0  0  0  0  0  0
   -0.0279   -4.4147   29.0393 N   0  0  0  0  0  0  0  0  0  0  0  0
   -5.7664   -6.2423   21.0750 O   0  0  0  0  0  0  0  0  0  0  0  0
    0.0907   -6.2631   23.0844 C   0  0  2  0  0  0  0  0  0  0  0  0
   -0.0317   -6.7024   21.6980 N   0  0  0  0  0  0  0  0  0  0  0  0
   -2.1983   -5.0546   30.0935 C   0  0  0  0  0  0  0  0  0  0  0  0
   -3.4555   -4.5556   30.8761 N   0  0  0  0  0  0  0  0  0  0  0  0
   -1.0217   -4.0343   30.0829 C   0  0  0  0  0  0  0  0  0  0  0  0
    2.8845   -6.1366   27.7099 O   0  0  0  0  0  0  0  0  0  0  0  0
   -4.3222   -4.4823   20.2393 C   0  0  2  0  0  0  0  0  0  0  0  0
   -4.3802   -5.0054   18.9221 O   0  0  0  0  0  0  0  0  0  0  0  0
   -0.7014   -4.9931   23.2706 C   0  0  2  0  0  0  0  0  0  0  0  0
   -2.9570   -3.7758   20.4808 C   0  0  2  0  0  0  0  0  0  0  0  0
   -2.8811   -3.2343   21.8159 O   0  0  0  0  0  0  0  0  0  0  0  0
   -0.5728   -4.4822   24.7698 C   0  0  2  0  0  0  0  0  0  0  0  0
   -1.3546   -3.2586   24.9138 O   0  0  0  0  0  0  0  0  0  0  0  0
   -2.7241   -2.6754   19.5156 C   0  0  0  0  0  0  0  0  0  0  0  0
   -1.5280   -2.8516   18.9122 N   0  0  0  0  0  0  0  0  0  0  0  0
    0.9387   -4.2048   25.0824 C   0  0  1  0  0  0  0  0  0  0  0  0
    1.0821   -3.7280   26.3823 O   0  0  0  0  0  0  0  0  0  0  0  0
  1  2  1  6  0  0  0
  1  5  1  0  0  0  0
  1 29  1  0  0  0  0
  3  4  1  6  0  0  0
  3  7  1  0  0  0  0
  3 34  1  0  0  0  0
  5  6  1  1  0  0  0
  5 16  1  0  0  0  0
  7 19  1  0  0  0  0
  8  4  1  0  0  0  0
  8 24  2  0  0  0  0
  9  8  1  1  0  0  0
  9 10  1  0  0  0  0
  9 13  1  0  0  0  0
 10 11  1  0  0  0  0
 11 12  1  0  0  0  0
 14 15  1  0  0  0  0
 14 35  1  0  0  0  0
 15 17  1  0  0  0  0
 16 18  1  6  0  0  0
 16 25  1  0  0  0  0
 19 20  1  6  0  0  0
 19 27  1  0  0  0  0
 21 22  1  0  0  0  0
 21 23  1  0  0  0  0
 23 17  1  0  0  0  0
 25 26  1  6  0  0  0
 25 28  1  0  0  0  0
 27  2  1  1  0  0  0
 27 30  1  0  0  0  0
 28 29  1  0  0  0  0
 28 32  1  6  0  0  0
 30 31  1  6  0  0  0
 30 34  1  0  0  0  0
 32 33  2  0  0  0  0
 34 35  1  1  0  0  0
M  END
>  <CHROM.1>
-170.78243474,-143.45642935,170.49843654,-175.71332479,-176.74141159,-65.09324722
165.14070844,-107.37111286,-165.01441813,176.32884881,-176.22580974,-126.77868836
162.50871578,-0.14383411,-4.80549722,24.73612572,2.40565483,0.09626761,-1.61878251

>  <Name>
2f4t_lig

>  <RI>
0

>  <Rbt.Current_Directory>
/home/itssahil/PROJECTS/Mol_Feturizer/New_Systems/rnas/2f4t

>  <Rbt.Executable>
rbdock ($Id: //depot/dev/client3/rdock/2013.1/src/exe/rbdock.cxx#4 $)

>  <Rbt.Library>
libRbt.so (2013.1, Build901 2013/11/27)

>  <Rbt.Parameter_File>
/export/apps/rDock/src/rDock_2013.1_src/data/scripts/dock_solv.prm

>  <Rbt.Receptor>
prm/pocket_docking_7.prm

>  <SCORE>
-26.3005

>  <SCORE.INTER>
-17.4854

>  <SCORE.INTER.CONST>
1

>  <SCORE.INTER.POLAR>
-2.59835

>  <SCORE.INTER.ROT>
13

>  <SCORE.INTER.SOLV>
22.7858

>  <SCORE.INTER.VDW>
-22.8577

>  <SCORE.INTER.norm>
-0.499584

>  <SCORE.INTRA>
-8.81509

>  <SCORE.INTRA.DIHEDRAL>
-16.3135

>  <SCORE.INTRA.DIHEDRAL.0>
23.8882

>  <SCORE.INTRA.POLAR>
0

>  <SCORE.INTRA.POLAR.0>
0

>  <SCORE.INTRA.REPUL>
0

>  <SCORE.INTRA.REPUL.0>
0

>  <SCORE.INTRA.SOLV>
-0.191424

>  <SCORE.INTRA.SOLV.lig_0>
-97.6888

>  <SCORE.INTRA.VDW>
-0.562635

>  <SCORE.INTRA.VDW.0>
-3.9206

>  <SCORE.INTRA.norm>
-0.25186

>  <SCORE.RESTR>
0

>  <SCORE.RESTR.CAVITY>
0

>  <SCORE.RESTR.norm>
0

>  <SCORE.SYSTEM>
0

>  <SCORE.SYSTEM.CONST>
0

>  <SCORE.SYSTEM.DIHEDRAL>
0

>  <SCORE.SYSTEM.SOLV>
0

>  <SCORE.SYSTEM.norm>
0

>  <SCORE.heavy>
35

>  <SCORE.norm>
-0.751444

>  <RMSD>
7.863

$$$$
2f4t_lig
 OpenBabel11021811433D
libRbt.so/2013.1/901 2013/11/27
 35 36  0  0  0  0  0  0  0  0999 V2000
    3.5271  -12.7842   31.1685 C   0  0  2  0  0  0  0  0  0  0  0  0
    3.6334  -12.0679   29.8946 O   0  0  0  0  0  0  0  0  0  0  0  0
    4.7294   -8.0707   28.6787 C   0  0  2  0  0  0  0  0  0  0  0  0
    4.7047   -6.6047   28.5645 N   0  0  0  0  0  0  0  0  0  0  0  0
    3.7060  -14.2939   30.8241 C   0  0  2  0  0  0  0  0  0  0  0  0
    4.9570  -14.5151   30.1374 N   0  0  0  0  0  0  0  0  0  0  0  0
    3.2956   -8.6394   28.3719 C   0  0  0  0  0  0  0  0  0  0  0  0
    6.0304   -6.0704   27.5274 C   0  0  0  0  0  0  0  0  0  0  0  0
    5.5150   -4.6695   27.7721 C   0  0  1  0  0  0  0  0  0  0  0  0
    6.4942   -3.9769   28.7227 C   0  0  0  0  0  0  0  0  0  0  0  0
    6.3811   -4.3778   30.2031 C   0  0  0  0  0  0  0  0  0  0  0  0
    5.1438   -3.8070   30.7439 N   0  0  0  0  0  0  0  0  0  0  0  0
    5.5300   -3.9154   26.5883 O   0  0  0  0  0  0  0  0  0  0  0  0
    7.5888   -7.7259   31.1548 C   0  0  0  0  0  0  0  0  0  0  0  0
    8.6085   -7.0493   30.2516 C   0  0  0  0  0  0  0  0  0  0  0  0
    2.5032  -14.7934   29.9545 C   0  0  1  0  0  0  0  0  0  0  0  0
    9.9362   -6.8802   30.8817 N   0  0  0  0  0  0  0  0  0  0  0  0
    2.6440  -16.1639   29.6346 O   0  0  0  0  0  0  0  0  0  0  0  0
    3.2505  -10.1696   28.4849 C   0  0  2  0  0  0  0  0  0  0  0  0
    1.9022  -10.6698   28.2361 N   0  0  0  0  0  0  0  0  0  0  0  0
   10.2519   -4.4066   30.7676 C   0  0  0  0  0  0  0  0  0  0  0  0
   10.6779   -3.0952   31.5030 N   0  0  0  0  0  0  0  0  0  0  0  0
   10.2297   -5.6620   31.6888 C   0  0  0  0  0  0  0  0  0  0  0  0
    6.8121   -6.5658   26.9956 O   0  0  0  0  0  0  0  0  0  0  0  0
    1.2129  -14.5507   30.7443 C   0  0  2  0  0  0  0  0  0  0  0  0
    0.0800  -14.9945   30.0153 O   0  0  0  0  0  0  0  0  0  0  0  0
    3.6936  -10.6094   29.8580 C   0  0  2  0  0  0  0  0  0  0  0  0
    1.0772  -13.0390   31.0869 C   0  0  2  0  0  0  0  0  0  0  0  0
    2.2204  -12.5702   31.8318 O   0  0  0  0  0  0  0  0  0  0  0  0
    5.1548  -10.0644   30.1628 C   0  0  2  0  0  0  0  0  0  0  0  0
    5.5515  -10.5133   31.4933 O   0  0  0  0  0  0  0  0  0  0  0  0
   -0.1443  -12.7575   31.8779 C   0  0  0  0  0  0  0  0  0  0  0  0
   -1.1107  -12.2844   31.0606 N   0  0  0  0  0  0  0  0  0  0  0  0
    5.1346   -8.4977   30.0981 C   0  0  1  0  0  0  0  0  0  0  0  0
    6.3966   -7.9873   30.3890 O   0  0  0  0  0  0  0  0  0  0  0  0
  1  2  1  6  0  0  0
  1  5  1  0  0  0  0
  1 29  1  0  0  0  0
  3  4  1  1  0  0  0
  3  7  1  0  0  0  0
  3 34  1  0  0  0  0
  5  6  1  6  0  0  0
  5 16  1  0  0  0  0
  7 19  1  0  0  0  0
  8  4  1  0  0  0  0
  8 24  2  0  0  0  0
  9  8  1  6  0  0  0
  9 10  1  0  0  0  0
  9 13  1  0  0  0  0
 10 11  1  0  0  0  0
 11 12  1  0  0  0  0
 14 15  1  0  0  0  0
 14 35  1  0  0  0  0
 15 17  1  0  0  0  0
 16 18  1  1  0  0  0
 16 25  1  0  0  0  0
 19 20  1  1  0  0  0
 19 27  1  0  0  0  0
 21 22  1  0  0  0  0
 21 23  1  0  0  0  0
 23 17  1  0  0  0  0
 25 26  1  6  0  0  0
 25 28  1  0  0  0  0
 27  2  1  6  0  0  0
 27 30  1  0  0  0  0
 28 29  1  0  0  0  0
 28 32  1  1  0  0  0
 30 31  1  1  0  0  0
 30 34  1  0  0  0  0
 32 33  2  0  0  0  0
 34 35  1  6  0  0  0
M  END
>  <CHROM.1>
-171.66779233,-129.75221666,106.73098529,-77.14492009,-71.50844672,-172.92531548
171.81922703,-88.11351183,-174.83994404,-66.99353300,-157.81511029,-99.53302125
-179.81862525,4.79063991,-9.28991781,29.92100577,-2.24218965,-0.42165908
-0.40099252

>  <Name>
2f4t_lig

>  <RI>
0

>  <Rbt.Current_Directory>
/home/itssahil/PROJECTS/Mol_Feturizer/New_Systems/rnas/2f4t

>  <Rbt.Executable>
rbdock ($Id: //depot/dev/client3/rdock/2013.1/src/exe/rbdock.cxx#4 $)

>  <Rbt.Library>
libRbt.so (2013.1, Build901 2013/11/27)

>  <Rbt.Parameter_File>
/export/apps/rDock/src/rDock_2013.1_src/data/scripts/dock_solv.prm

>  <Rbt.Receptor>
prm/pocket_docking_8.prm

>  <SCORE>
-12.4201

>  <SCORE.INTER>
-4.26204

>  <SCORE.INTER.CONST>
1

>  <SCORE.INTER.POLAR>
-1.71137

>  <SCORE.INTER.ROT>
13

>  <SCORE.INTER.SOLV>
16.1554

>  <SCORE.INTER.VDW>
-14.7886

>  <SCORE.INTER.norm>
-0.121773

>  <SCORE.INTRA>
-8.15807

>  <SCORE.INTRA.DIHEDRAL>
-14.321

>  <SCORE.INTRA.DIHEDRAL.0>
23.8882

>  <SCORE.INTRA.POLAR>
0

>  <SCORE.INTRA.POLAR.0>
0

>  <SCORE.INTRA.REPUL>
0

>  <SCORE.INTRA.REPUL.0>
0

>  <SCORE.INTRA.SOLV>
1.3602

>  <SCORE.INTRA.SOLV.lig_0>
-97.6888

>  <SCORE.INTRA.VDW>
-1.6777

>  <SCORE.INTRA.VDW.0>
-3.9206

>  <SCORE.INTRA.norm>
-0.233088

>  <SCORE.RESTR>
0

>  <SCORE.RESTR.CAVITY>
0

>  <SCORE.RESTR.norm>
0

>  <SCORE.SYSTEM>
0

>  <SCORE.SYSTEM.CONST>
0

>  <SCORE.SYSTEM.DIHEDRAL>
0

>  <SCORE.SYSTEM.SOLV>
0

>  <SCORE.SYSTEM.norm>
0

>  <SCORE.heavy>
35

>  <SCORE.norm>
-0.35486

>  <RMSD>
7.874

$$$$
2f4t_lig
 OpenBabel11021811433D
libRbt.so/2013.1/901 2013/11/27
 35 36  0  0  0  0  0  0  0  0999 V2000
    2.3779  -11.2795   30.4298 C   0  0  2  0  0  0  0  0  0  0  0  0
    3.4672  -10.4825   29.8592 O   0  0  0  0  0  0  0  0  0  0  0  0
    3.7437   -7.2495   27.0082 C   0  0  2  0  0  0  0  0  0  0  0  0
    3.3965   -6.0306   26.2622 N   0  0  0  0  0  0  0  0  0  0  0  0
    2.0256  -10.6062   31.7907 C   0  0  2  0  0  0  0  0  0  0  0  0
    1.6871   -9.2155   31.5987 N   0  0  0  0  0  0  0  0  0  0  0  0
    2.5199   -8.2370   26.9873 C   0  0  0  0  0  0  0  0  0  0  0  0
    1.9227   -5.3266   26.9338 C   0  0  0  0  0  0  0  0  0  0  0  0
    2.0865   -4.2500   25.8839 C   0  0  1  0  0  0  0  0  0  0  0  0
    0.8353   -4.2703   25.0030 C   0  0  0  0  0  0  0  0  0  0  0  0
    0.7399   -5.4398   24.0089 C   0  0  0  0  0  0  0  0  0  0  0  0
    0.4593   -6.6657   24.7622 N   0  0  0  0  0  0  0  0  0  0  0  0
    2.1217   -2.9763   26.4726 O   0  0  0  0  0  0  0  0  0  0  0  0
    5.8895   -4.8112   28.2689 C   0  0  0  0  0  0  0  0  0  0  0  0
    7.2913   -4.9751   28.8359 C   0  0  0  0  0  0  0  0  0  0  0  0
    3.2242  -10.7498   32.7882 C   0  0  1  0  0  0  0  0  0  0  0  0
    7.3125   -5.2534   30.2887 N   0  0  0  0  0  0  0  0  0  0  0  0
    2.9228  -10.1488   34.0325 O   0  0  0  0  0  0  0  0  0  0  0  0
    2.8144   -9.5299   27.7608 C   0  0  2  0  0  0  0  0  0  0  0  0
    1.6513  -10.4115   27.7616 N   0  0  0  0  0  0  0  0  0  0  0  0
    8.3472   -6.3310   32.2887 C   0  0  0  0  0  0  0  0  0  0  0  0
    7.4590   -5.5682   33.3236 N   0  0  0  0  0  0  0  0  0  0  0  0
    8.6050   -5.5330   30.9764 C   0  0  0  0  0  0  0  0  0  0  0  0
    1.2599   -5.5917   27.7273 O   0  0  0  0  0  0  0  0  0  0  0  0
    3.5192  -12.2430   32.9645 C   0  0  2  0  0  0  0  0  0  0  0  0
    4.5919  -12.4454   33.8702 O   0  0  0  0  0  0  0  0  0  0  0  0
    3.1955   -9.2157   29.1859 C   0  0  2  0  0  0  0  0  0  0  0  0
    3.8472  -12.8853   31.5858 C   0  0  2  0  0  0  0  0  0  0  0  0
    2.7649  -12.6918   30.6516 O   0  0  0  0  0  0  0  0  0  0  0  0
    4.4515   -8.2427   29.2152 C   0  0  2  0  0  0  0  0  0  0  0  0
    4.7945   -7.9663   30.6063 O   0  0  0  0  0  0  0  0  0  0  0  0
    4.1119  -14.3391   31.7006 C   0  0  0  0  0  0  0  0  0  0  0  0
    5.1508  -14.6718   30.9032 N   0  0  0  0  0  0  0  0  0  0  0  0
    4.0803   -6.9141   28.4695 C   0  0  1  0  0  0  0  0  0  0  0  0
    5.1530   -6.0275   28.5022 O   0  0  0  0  0  0  0  0  0  0  0  0
  1  2  1  1  0  0  0
  1  5  1  0  0  0  0
  1 29  1  0  0  0  0
  3  4  1  6  0  0  0
  3  7  1  0  0  0  0
  3 34  1  0  0  0  0
  5  6  1  6  0  0  0
  5 16  1  0  0  0  0
  7 19  1  0  0  0  0
  8  4  1  0  0  0  0
  8 24  2  0  0  0  0
  9  8  1  1  0  0  0
  9 10  1  0  0  0  0
  9 13  1  0  0  0  0
 10 11  1  0  0  0  0
 11 12  1  0  0  0  0
 14 15  1  0  0  0  0
 14 35  1  0  0  0  0
 15 17  1  0  0  0  0
 16 18  1  1  0  0  0
 16 25  1  0  0  0  0
 19 20  1  1  0  0  0
 19 27  1  0  0  0  0
 21 22  1  0  0  0  0
 21 23  1  0  0  0  0
 23 17  1  0  0  0  0
 25 26  1  1  0  0  0
 25 28  1  0  0  0  0
 27  2  1  1  0  0  0
 27 30  1  0  0  0  0
 28 29  1  0  0  0  0
 28 32  1  1  0  0  0
 30 31  1  1  0  0  0
 30 34  1  0  0  0  0
 32 33  2  0  0  0  0
 34 35  1  6  0  0  0
M  END
>  <CHROM.1>
-79.22399961,55.45459005,120.27181277,-74.48915386,71.96005324,-59.69592600
-178.87422776,175.76686163,-61.08156981,-157.30684682,-83.81629899,-139.20702854
62.25434602,3.71633298,-8.22845538,29.41569211,-1.39334366,-0.68562711,-0.58033020

>  <Name>
2f4t_lig

>  <RI>
0

>  <Rbt.Current_Directory>
/home/itssahil/PROJECTS/Mol_Feturizer/New_Systems/rnas/2f4t

>  <Rbt.Executable>
rbdock ($Id: //depot/dev/client3/rdock/2013.1/src/exe/rbdock.cxx#4 $)

>  <Rbt.Library>
libRbt.so (2013.1, Build901 2013/11/27)

>  <Rbt.Parameter_File>
/export/apps/rDock/src/rDock_2013.1_src/data/scripts/dock_solv.prm

>  <Rbt.Receptor>
prm/pocket_docking_3.prm

>  <SCORE>
-8.32268

>  <SCORE.INTER>
-4.8845

>  <SCORE.INTER.CONST>
1

>  <SCORE.INTER.POLAR>
-1.10821

>  <SCORE.INTER.ROT>
13

>  <SCORE.INTER.SOLV>
11.7084

>  <SCORE.INTER.VDW>
-15.7318

>  <SCORE.INTER.norm>
-0.139557

>  <SCORE.INTRA>
-3.64588

>  <SCORE.INTRA.DIHEDRAL>
-14.5307

>  <SCORE.INTRA.DIHEDRAL.0>
23.8882

>  <SCORE.INTRA.POLAR>
0

>  <SCORE.INTRA.POLAR.0>
0

>  <SCORE.INTRA.REPUL>
0

>  <SCORE.INTRA.REPUL.0>
0

>  <SCORE.INTRA.SOLV>
8.82973

>  <SCORE.INTRA.SOLV.lig_0>
-97.6888

>  <SCORE.INTRA.VDW>
-0.79539

>  <SCORE.INTRA.VDW.0>
-3.9206

>  <SCORE.INTRA.norm>
-0.104168

>  <SCORE.RESTR>
0.2077

>  <SCORE.RESTR.CAVITY>
0.2077

>  <SCORE.RESTR.norm>
0.0059343

>  <SCORE.SYSTEM>
0

>  <SCORE.SYSTEM.CONST>
0

>  <SCORE.SYSTEM.DIHEDRAL>
0

>  <SCORE.SYSTEM.SOLV>
0

>  <SCORE.SYSTEM.norm>
0

>  <SCORE.heavy>
35

>  <SCORE.norm>
-0.237791

>  <RMSD>
7.924

$$$$
2f4t_lig
 OpenBabel11021811433D
libRbt.so/2013.1/901 2013/11/27
 35 36  0  0  0  0  0  0  0  0999 V2000
   -1.3524   -6.8426   21.5302 C   0  0  2  0  0  0  0  0  0  0  0  0
   -0.2168   -6.0076   21.9309 O   0  0  0  0  0  0  0  0  0  0  0  0
    0.6196   -3.4189   25.2860 C   0  0  2  0  0  0  0  0  0  0  0  0
    0.6518   -2.9106   26.6655 N   0  0  0  0  0  0  0  0  0  0  0  0
   -1.0351   -8.2745   22.0581 C   0  0  2  0  0  0  0  0  0  0  0  0
   -0.8063   -8.2529   23.4838 N   0  0  0  0  0  0  0  0  0  0  0  0
   -0.8613   -3.7836   24.9017 C   0  0  0  0  0  0  0  0  0  0  0  0
    0.7327   -4.2672   27.7933 C   0  0  0  0  0  0  0  0  0  0  0  0
    0.7487   -3.2199   28.8847 C   0  0  1  0  0  0  0  0  0  0  0  0
    0.1272   -3.8466   30.1349 C   0  0  0  0  0  0  0  0  0  0  0  0
   -0.1903   -2.8713   31.2808 C   0  0  0  0  0  0  0  0  0  0  0  0
    1.0679   -2.2826   31.7494 N   0  0  0  0  0  0  0  0  0  0  0  0
    2.0648   -2.8827   29.2374 O   0  0  0  0  0  0  0  0  0  0  0  0
    4.1966   -4.5975   25.7749 C   0  0  0  0  0  0  0  0  0  0  0  0
    4.8370   -3.2697   26.1494 C   0  0  0  0  0  0  0  0  0  0  0  0
    0.2083   -8.8609   21.3083 C   0  0  1  0  0  0  0  0  0  0  0  0
    6.2523   -3.3916   26.5625 N   0  0  0  0  0  0  0  0  0  0  0  0
    0.5105  -10.1633   21.7697 O   0  0  0  0  0  0  0  0  0  0  0  0
   -0.9629   -4.3324   23.4717 C   0  0  2  0  0  0  0  0  0  0  0  0
   -2.3387   -4.7012   23.1531 N   0  0  0  0  0  0  0  0  0  0  0  0
    7.5519   -4.5539   24.7761 C   0  0  0  0  0  0  0  0  0  0  0  0
    8.7941   -4.5348   23.8281 N   0  0  0  0  0  0  0  0  0  0  0  0
    7.3403   -3.2237   25.5578 C   0  0  0  0  0  0  0  0  0  0  0  0
    0.7567   -5.3290   27.6876 O   0  0  0  0  0  0  0  0  0  0  0  0
   -0.1048   -8.8761   19.8085 C   0  0  2  0  0  0  0  0  0  0  0  0
    0.9808   -9.4101   19.0682 O   0  0  0  0  0  0  0  0  0  0  0  0
   -0.0778   -5.5427   23.3081 C   0  0  2  0  0  0  0  0  0  0  0  0
   -0.4351   -7.4358   19.3211 C   0  0  2  0  0  0  0  0  0  0  0  0
   -1.5401   -6.8771   20.0615 O   0  0  0  0  0  0  0  0  0  0  0  0
    1.4260   -5.1738   23.6647 C   0  0  2  0  0  0  0  0  0  0  0  0
    2.2519   -6.3639   23.4897 O   0  0  0  0  0  0  0  0  0  0  0  0
   -0.7742   -7.4031   17.8786 C   0  0  0  0  0  0  0  0  0  0  0  0
   -1.9294   -8.0730   17.6725 N   0  0  0  0  0  0  0  0  0  0  0  0
    1.4873   -4.6799   25.1518 C   0  0  1  0  0  0  0  0  0  0  0  0
    2.7990   -4.3749   25.5045 O   0  0  0  0  0  0  0  0  0  0  0  0
  1  2  1  6  0  0  0
  1  5  1  0  0  0  0
  1 29  1  0  0  0  0
  3  4  1  1  0  0  0
  3  7  1  0  0  0  0
  3 34  1  0  0  0  0
  5  6  1  1  0  0  0
  5 16  1  0  0  0  0
  7 19  1  0  0  0  0
  8  4  1  0  0  0  0
  8 24  2  0  0  0  0
  9  8  1  6  0  0  0
  9 10  1  0  0  0  0
  9 13  1  0  0  0  0
 10 11  1  0  0  0  0
 11 12  1  0  0  0  0
 14 15  1  0  0  0  0
 14 35  1  0  0  0  0
 15 17  1  0  0  0  0
 16 18  1  1  0  0  0
 16 25  1  0  0  0  0
 19 20  1  1  0  0  0
 19 27  1  0  0  0  0
 21 22  1  0  0  0  0
 21 23  1  0  0  0  0
 23 17  1  0  0  0  0
 25 26  1  6  0  0  0
 25 28  1  0  0  0  0
 27  2  1  6  0  0  0
 27 30  1  0  0  0  0
 28 29  1  0  0  0  0
 28 32  1  6  0  0  0
 30 31  1  1  0  0  0
 30 34  1  0  0  0  0
 32 33  2  0  0  0  0
 34 35  1  6  0  0  0
M  END
>  <CHROM.1>
-76.95288343,84.23842124,151.89950698,-169.08828481,-62.98364776,175.06364503
179.06241324,92.85796576,-172.54067918,-82.17369464,-81.36874334,66.10564571
176.74489987,1.24600356,-5.44803769,24.28678991,1.91667409,-0.11642354,-2.04609112

>  <Name>
2f4t_lig

>  <RI>
0

>  <Rbt.Current_Directory>
/home/itssahil/PROJECTS/Mol_Feturizer/New_Systems/rnas/2f4t

>  <Rbt.Executable>
rbdock ($Id: //depot/dev/client3/rdock/2013.1/src/exe/rbdock.cxx#4 $)

>  <Rbt.Library>
libRbt.so (2013.1, Build901 2013/11/27)

>  <Rbt.Parameter_File>
/export/apps/rDock/src/rDock_2013.1_src/data/scripts/dock_solv.prm

>  <Rbt.Receptor>
prm/pocket_docking_8.prm

>  <SCORE>
-19.7565

>  <SCORE.INTER>
-16.2732

>  <SCORE.INTER.CONST>
1

>  <SCORE.INTER.POLAR>
-0.896663

>  <SCORE.INTER.ROT>
13

>  <SCORE.INTER.SOLV>
15.8586

>  <SCORE.INTER.VDW>
-25.4128

>  <SCORE.INTER.norm>
-0.464948

>  <SCORE.INTRA>
-3.48333

>  <SCORE.INTRA.DIHEDRAL>
-14.8573

>  <SCORE.INTRA.DIHEDRAL.0>
23.8882

>  <SCORE.INTRA.POLAR>
0

>  <SCORE.INTRA.POLAR.0>
0

>  <SCORE.INTRA.REPUL>
0

>  <SCORE.INTRA.REPUL.0>
0

>  <SCORE.INTRA.SOLV>
5.01204

>  <SCORE.INTRA.SOLV.lig_0>
-97.6888

>  <SCORE.INTRA.VDW>
1.43929

>  <SCORE.INTRA.VDW.0>
-3.9206

>  <SCORE.INTRA.norm>
-0.0995237

>  <SCORE.RESTR>
0

>  <SCORE.RESTR.CAVITY>
0

>  <SCORE.RESTR.norm>
0

>  <SCORE.SYSTEM>
0

>  <SCORE.SYSTEM.CONST>
0

>  <SCORE.SYSTEM.DIHEDRAL>
0

>  <SCORE.SYSTEM.SOLV>
0

>  <SCORE.SYSTEM.norm>
0

>  <SCORE.heavy>
35

>  <SCORE.norm>
-0.564472

>  <RMSD>
7.931

$$$$
2f4t_lig
 OpenBabel11021811433D
libRbt.so/2013.1/901 2013/11/27
 35 36  0  0  0  0  0  0  0  0999 V2000
    3.2193  -13.0345   31.7373 C   0  0  2  0  0  0  0  0  0  0  0  0
    3.6451  -12.2894   30.5496 O   0  0  0  0  0  0  0  0  0  0  0  0
    4.6922   -8.1739   29.7601 C   0  0  2  0  0  0  0  0  0  0  0  0
    4.5580   -6.7166   29.6152 N   0  0  0  0  0  0  0  0  0  0  0  0
    3.4477  -14.5392   31.4005 C   0  0  2  0  0  0  0  0  0  0  0  0
    4.8235  -14.7754   31.0307 N   0  0  0  0  0  0  0  0  0  0  0  0
    3.5511   -8.8839   28.9432 C   0  0  0  0  0  0  0  0  0  0  0  0
    4.7939   -6.2668   27.9238 C   0  0  0  0  0  0  0  0  0  0  0  0
    4.5519   -4.8449   28.3797 C   0  0  1  0  0  0  0  0  0  0  0  0
    4.8452   -3.9236   27.1935 C   0  0  0  0  0  0  0  0  0  0  0  0
    6.3298   -3.6051   26.9491 C   0  0  0  0  0  0  0  0  0  0  0  0
    7.0199   -4.8517   26.6046 N   0  0  0  0  0  0  0  0  0  0  0  0
    3.1998   -4.6433   28.6980 O   0  0  0  0  0  0  0  0  0  0  0  0
    6.3284   -7.5640   33.1328 C   0  0  0  0  0  0  0  0  0  0  0  0
    7.4690   -6.6626   32.6855 C   0  0  0  0  0  0  0  0  0  0  0  0
    2.4827  -14.9856   30.2508 C   0  0  1  0  0  0  0  0  0  0  0  0
    7.9518   -5.7501   33.7452 N   0  0  0  0  0  0  0  0  0  0  0  0
    2.6708  -16.3508   29.9328 O   0  0  0  0  0  0  0  0  0  0  0  0
    3.6283  -10.4124   29.0618 C   0  0  2  0  0  0  0  0  0  0  0  0
    2.5364  -11.0464   28.3296 N   0  0  0  0  0  0  0  0  0  0  0  0
    7.2823   -3.4914   32.9196 C   0  0  0  0  0  0  0  0  0  0  0  0
    6.4064   -2.2146   33.1309 N   0  0  0  0  0  0  0  0  0  0  0  0
    7.1775   -4.5220   34.0824 C   0  0  0  0  0  0  0  0  0  0  0  0
    5.0087   -6.8060   27.0281 O   0  0  0  0  0  0  0  0  0  0  0  0
    1.0441  -14.7294   30.7117 C   0  0  2  0  0  0  0  0  0  0  0  0
    0.1138  -15.1254   29.7170 O   0  0  0  0  0  0  0  0  0  0  0  0
    3.5604  -10.8323   30.5089 C   0  0  2  0  0  0  0  0  0  0  0  0
    0.8580  -13.2238   31.0573 C   0  0  2  0  0  0  0  0  0  0  0  0
    1.7949  -12.8034   32.0708 O   0  0  0  0  0  0  0  0  0  0  0  0
    4.7299  -10.1431   31.3347 C   0  0  2  0  0  0  0  0  0  0  0  0
    4.6365  -10.5760   32.7250 O   0  0  0  0  0  0  0  0  0  0  0  0
   -0.5133  -12.9307   31.5373 C   0  0  0  0  0  0  0  0  0  0  0  0
   -1.1315  -12.1099   30.6599 N   0  0  0  0  0  0  0  0  0  0  0  0
    4.5706   -8.5862   31.2353 C   0  0  1  0  0  0  0  0  0  0  0  0
    5.5660   -7.9519   31.9734 O   0  0  0  0  0  0  0  0  0  0  0  0
  1  2  1  6  0  0  0
  1  5  1  0  0  0  0
  1 29  1  0  0  0  0
  3  4  1  1  0  0  0
  3  7  1  0  0  0  0
  3 34  1  0  0  0  0
  5  6  1  6  0  0  0
  5 16  1  0  0  0  0
  7 19  1  0  0  0  0
  8  4  1  0  0  0  0
  8 24  2  0  0  0  0
  9  8  1  6  0  0  0
  9 10  1  0  0  0  0
  9 13  1  0  0  0  0
 10 11  1  0  0  0  0
 11 12  1  0  0  0  0
 14 15  1  0  0  0  0
 14 35  1  0  0  0  0
 15 17  1  0  0  0  0
 16 18  1  1  0  0  0
 16 25  1  0  0  0  0
 19 20  1  6  0  0  0
 19 27  1  0  0  0  0
 21 22  1  0  0  0  0
 21 23  1  0  0  0  0
 23 17  1  0  0  0  0
 25 26  1  6  0  0  0
 25 28  1  0  0  0  0
 27  2  1  6  0  0  0
 27 30  1  0  0  0  0
 28 29  1  0  0  0  0
 28 32  1  1  0  0  0
 30 31  1  1  0  0  0
 30 34  1  0  0  0  0
 32 33  2  0  0  0  0
 34 35  1  1  0  0  0
M  END
>  <CHROM.1>
179.59799332,-63.57197864,172.36531900,-80.74655747,63.90914918,155.02465156
178.79812362,-77.77690959,175.31631388,-70.19977545,-161.81014455,-115.30519683
177.59719689,4.08024792,-9.30674959,30.47816498,-2.42391930,-0.98254166,-0.79974374

>  <Name>
2f4t_lig

>  <RI>
0

>  <Rbt.Current_Directory>
/home/itssahil/PROJECTS/Mol_Feturizer/New_Systems/rnas/2f4t

>  <Rbt.Executable>
rbdock ($Id: //depot/dev/client3/rdock/2013.1/src/exe/rbdock.cxx#4 $)

>  <Rbt.Library>
libRbt.so (2013.1, Build901 2013/11/27)

>  <Rbt.Parameter_File>
/export/apps/rDock/src/rDock_2013.1_src/data/scripts/dock_solv.prm

>  <Rbt.Receptor>
prm/pocket_docking_5.prm

>  <SCORE>
-8.68759

>  <SCORE.INTER>
-1.81399

>  <SCORE.INTER.CONST>
1

>  <SCORE.INTER.POLAR>
-1.54838

>  <SCORE.INTER.ROT>
13

>  <SCORE.INTER.SOLV>
12.0832

>  <SCORE.INTER.VDW>
-12.3425

>  <SCORE.INTER.norm>
-0.0518283

>  <SCORE.INTRA>
-6.8736

>  <SCORE.INTRA.DIHEDRAL>
-16.7765

>  <SCORE.INTRA.DIHEDRAL.0>
23.8882

>  <SCORE.INTRA.POLAR>
0

>  <SCORE.INTRA.POLAR.0>
0

>  <SCORE.INTRA.REPUL>
0

>  <SCORE.INTRA.REPUL.0>
0

>  <SCORE.INTRA.SOLV>
1.89745

>  <SCORE.INTRA.SOLV.lig_0>
-97.6888

>  <SCORE.INTRA.VDW>
0.565939

>  <SCORE.INTRA.VDW.0>
-3.9206

>  <SCORE.INTRA.norm>
-0.196389

>  <SCORE.RESTR>
0

>  <SCORE.RESTR.CAVITY>
0

>  <SCORE.RESTR.norm>
0

>  <SCORE.SYSTEM>
0

>  <SCORE.SYSTEM.CONST>
0

>  <SCORE.SYSTEM.DIHEDRAL>
0

>  <SCORE.SYSTEM.SOLV>
0

>  <SCORE.SYSTEM.norm>
0

>  <SCORE.heavy>
35

>  <SCORE.norm>
-0.248217

>  <RMSD>
7.984

$$$$
2f4t_lig
 OpenBabel11021811433D
libRbt.so/2013.1/901 2013/11/27
 35 36  0  0  0  0  0  0  0  0999 V2000
   -1.8423   -6.0312   21.6163 C   0  0  2  0  0  0  0  0  0  0  0  0
   -0.5849   -5.3617   21.9599 O   0  0  0  0  0  0  0  0  0  0  0  0
    1.2912   -3.8174   25.5309 C   0  0  2  0  0  0  0  0  0  0  0  0
    1.6383   -3.6557   26.9508 N   0  0  0  0  0  0  0  0  0  0  0  0
   -1.5477   -7.5595   21.7009 C   0  0  2  0  0  0  0  0  0  0  0  0
   -1.0430   -7.9096   23.0079 N   0  0  0  0  0  0  0  0  0  0  0  0
   -0.2737   -3.8021   25.3743 C   0  0  0  0  0  0  0  0  0  0  0  0
    1.4160   -1.9691   27.4250 C   0  0  0  0  0  0  0  0  0  0  0  0
    1.8650   -2.4087   28.8010 C   0  0  1  0  0  0  0  0  0  0  0  0
    2.0444   -1.1496   29.6522 C   0  0  0  0  0  0  0  0  0  0  0  0
    2.6830   -1.3658   31.0344 C   0  0  0  0  0  0  0  0  0  0  0  0
    4.0743   -1.7851   30.8409 N   0  0  0  0  0  0  0  0  0  0  0  0
    0.8672   -3.1637   29.4371 O   0  0  0  0  0  0  0  0  0  0  0  0
    4.4867   -5.1002   25.8005 C   0  0  0  0  0  0  0  0  0  0  0  0
    4.6954   -3.6689   26.2711 C   0  0  0  0  0  0  0  0  0  0  0  0
   -0.5282   -7.9733   20.5866 C   0  0  1  0  0  0  0  0  0  0  0  0
    6.0158   -3.4391   26.8974 N   0  0  0  0  0  0  0  0  0  0  0  0
   -0.2506   -9.3590   20.6430 O   0  0  0  0  0  0  0  0  0  0  0  0
   -0.7042   -3.9780   23.9113 C   0  0  2  0  0  0  0  0  0  0  0  0
   -2.1590   -4.0014   23.7968 N   0  0  0  0  0  0  0  0  0  0  0  0
    7.8904   -2.0380   27.7659 C   0  0  0  0  0  0  0  0  0  0  0  0
    8.2933   -3.0303   28.9038 N   0  0  0  0  0  0  0  0  0  0  0  0
    6.3769   -2.0839   27.4019 C   0  0  0  0  0  0  0  0  0  0  0  0
    1.1021   -1.0836   26.9186 O   0  0  0  0  0  0  0  0  0  0  0  0
   -1.1292   -7.5955   19.2288 C   0  0  2  0  0  0  0  0  0  0  0  0
   -0.2577   -7.9562   18.1694 O   0  0  0  0  0  0  0  0  0  0  0  0
   -0.1449   -5.2607   23.3485 C   0  0  2  0  0  0  0  0  0  0  0  0
   -1.4279   -6.0691   19.1872 C   0  0  2  0  0  0  0  0  0  0  0  0
   -2.3163   -5.6839   20.2568 O   0  0  0  0  0  0  0  0  0  0  0  0
    1.4390   -5.2697   23.4749 C   0  0  2  0  0  0  0  0  0  0  0  0
    1.9440   -6.5196   22.9164 O   0  0  0  0  0  0  0  0  0  0  0  0
   -2.0391   -5.6588   17.9007 C   0  0  0  0  0  0  0  0  0  0  0  0
   -3.3631   -5.9274   17.9256 N   0  0  0  0  0  0  0  0  0  0  0  0
    1.8267   -5.1521   24.9899 C   0  0  1  0  0  0  0  0  0  0  0  0
    3.2106   -5.1856   25.1370 O   0  0  0  0  0  0  0  0  0  0  0  0
  1  2  1  6  0  0  0
  1  5  1  0  0  0  0
  1 29  1  0  0  0  0
  3  4  1  1  0  0  0
  3  7  1  0  0  0  0
  3 34  1  0  0  0  0
  5  6  1  1  0  0  0
  5 16  1  0  0  0  0
  7 19  1  0  0  0  0
  8  4  1  0  0  0  0
  8 24  2  0  0  0  0
  9  8  1  6  0  0  0
  9 10  1  0  0  0  0
  9 13  1  0  0  0  0
 10 11  1  0  0  0  0
 11 12  1  0  0  0  0
 14 15  1  0  0  0  0
 14 35  1  0  0  0  0
 15 17  1  0  0  0  0
 16 18  1  6  0  0  0
 16 25  1  0  0  0  0
 19 20  1  1  0  0  0
 19 27  1  0  0  0  0
 21 22  1  0  0  0  0
 21 23  1  0  0  0  0
 23 17  1  0  0  0  0
 25 26  1  6  0  0  0
 25 28  1  0  0  0  0
 27  2  1  6  0  0  0
 27 30  1  0  0  0  0
 28 29  1  0  0  0  0
 28 32  1  6  0  0  0
 30 31  1  1  0  0  0
 30 34  1  0  0  0  0
 32 33  2  0  0  0  0
 34 35  1  6  0  0  0
M  END
>  <CHROM.1>
-77.34123152,-75.80712439,171.93389785,-172.00645767,67.00379940,-176.44819431
-64.87914627,179.56034203,-61.87698556,-169.51785754,-90.20949746,81.32359899
53.17302767,1.25492435,-4.64614408,24.41605436,2.11015796,0.16869506,-2.14908733

>  <Name>
2f4t_lig

>  <RI>
0

>  <Rbt.Current_Directory>
/home/itssahil/PROJECTS/Mol_Feturizer/New_Systems/rnas/2f4t

>  <Rbt.Executable>
rbdock ($Id: //depot/dev/client3/rdock/2013.1/src/exe/rbdock.cxx#4 $)

>  <Rbt.Library>
libRbt.so (2013.1, Build901 2013/11/27)

>  <Rbt.Parameter_File>
/export/apps/rDock/src/rDock_2013.1_src/data/scripts/dock_solv.prm

>  <Rbt.Receptor>
prm/pocket_docking_7.prm

>  <SCORE>
-18.5254

>  <SCORE.INTER>
-13.3507

>  <SCORE.INTER.CONST>
1

>  <SCORE.INTER.POLAR>
-0.798862

>  <SCORE.INTER.ROT>
13

>  <SCORE.INTER.SOLV>
15.8828

>  <SCORE.INTER.VDW>
-23.7985

>  <SCORE.INTER.norm>
-0.381449

>  <SCORE.INTRA>
-5.17462

>  <SCORE.INTRA.DIHEDRAL>
-15.2767

>  <SCORE.INTRA.DIHEDRAL.0>
23.8882

>  <SCORE.INTRA.POLAR>
0

>  <SCORE.INTRA.POLAR.0>
0

>  <SCORE.INTRA.REPUL>
0

>  <SCORE.INTRA.REPUL.0>
0

>  <SCORE.INTRA.SOLV>
4.91149

>  <SCORE.INTRA.SOLV.lig_0>
-97.6888

>  <SCORE.INTRA.VDW>
0.00799563

>  <SCORE.INTRA.VDW.0>
-3.9206

>  <SCORE.INTRA.norm>
-0.147846

>  <SCORE.RESTR>
0

>  <SCORE.RESTR.CAVITY>
0

>  <SCORE.RESTR.norm>
0

>  <SCORE.SYSTEM>
0

>  <SCORE.SYSTEM.CONST>
0

>  <SCORE.SYSTEM.DIHEDRAL>
0

>  <SCORE.SYSTEM.SOLV>
0

>  <SCORE.SYSTEM.norm>
0

>  <SCORE.heavy>
35

>  <SCORE.norm>
-0.529296

>  <RMSD>
7.994

$$$$
2f4t_lig
 OpenBabel11021811433D
libRbt.so/2013.1/901 2013/11/27
 35 36  0  0  0  0  0  0  0  0999 V2000
    2.9855  -12.2986   31.3332 C   0  0  2  0  0  0  0  0  0  0  0  0
    3.3208  -11.8854   29.9679 O   0  0  0  0  0  0  0  0  0  0  0  0
    3.8458   -8.1024   27.9504 C   0  0  2  0  0  0  0  0  0  0  0  0
    3.5356   -6.7746   27.3996 N   0  0  0  0  0  0  0  0  0  0  0  0
    3.2535  -13.8330   31.3914 C   0  0  2  0  0  0  0  0  0  0  0  0
    4.6164  -14.1270   31.0152 N   0  0  0  0  0  0  0  0  0  0  0  0
    2.7673   -9.1345   27.4553 C   0  0  0  0  0  0  0  0  0  0  0  0
    4.9747   -6.1051   26.6253 C   0  0  0  0  0  0  0  0  0  0  0  0
    4.1106   -4.9073   26.2985 C   0  0  1  0  0  0  0  0  0  0  0  0
    5.0430   -3.7196   26.0499 C   0  0  0  0  0  0  0  0  0  0  0  0
    5.8048   -3.2020   27.2816 C   0  0  0  0  0  0  0  0  0  0  0  0
    4.8305   -2.6648   28.2362 N   0  0  0  0  0  0  0  0  0  0  0  0
    3.4119   -5.1055   25.0974 O   0  0  0  0  0  0  0  0  0  0  0  0
    6.0542   -6.6386   30.3390 C   0  0  0  0  0  0  0  0  0  0  0  0
    7.0727   -6.9912   29.2659 C   0  0  0  0  0  0  0  0  0  0  0  0
    2.2482  -14.5904   30.4597 C   0  0  1  0  0  0  0  0  0  0  0  0
    8.4757   -6.8305   29.7068 N   0  0  0  0  0  0  0  0  0  0  0  0
    2.4716  -15.9864   30.5018 O   0  0  0  0  0  0  0  0  0  0  0  0
    3.0285  -10.5435   28.0055 C   0  0  2  0  0  0  0  0  0  0  0  0
    1.9930  -11.4734   27.5658 N   0  0  0  0  0  0  0  0  0  0  0  0
   10.2654   -5.5385   30.8726 C   0  0  0  0  0  0  0  0  0  0  0  0
   10.7991   -4.1380   31.3151 N   0  0  0  0  0  0  0  0  0  0  0  0
    9.0424   -5.4672   29.9112 C   0  0  0  0  0  0  0  0  0  0  0  0
    5.9767   -6.4450   26.4850 O   0  0  0  0  0  0  0  0  0  0  0  0
    0.8265  -14.2546   30.9221 C   0  0  2  0  0  0  0  0  0  0  0  0
   -0.1381  -14.9216   30.1243 O   0  0  0  0  0  0  0  0  0  0  0  0
    3.0634  -10.5219   29.5132 C   0  0  2  0  0  0  0  0  0  0  0  0
    0.6012  -12.7160   30.8695 C   0  0  2  0  0  0  0  0  0  0  0  0
    1.5724  -12.0205   31.6786 O   0  0  0  0  0  0  0  0  0  0  0  0
    4.1729   -9.5039   30.0209 C   0  0  2  0  0  0  0  0  0  0  0  0
    4.1820   -9.5141   31.4800 O   0  0  0  0  0  0  0  0  0  0  0  0
   -0.7537  -12.3380   31.3366 C   0  0  0  0  0  0  0  0  0  0  0  0
   -1.4128  -11.7055   30.3409 N   0  0  0  0  0  0  0  0  0  0  0  0
    3.8276   -8.0706   29.4865 C   0  0  1  0  0  0  0  0  0  0  0  0
    4.7675   -7.1486   29.9384 O   0  0  0  0  0  0  0  0  0  0  0  0
  1  2  1  6  0  0  0
  1  5  1  0  0  0  0
  1 29  1  0  0  0  0
  3  4  1  6  0  0  0
  3  7  1  0  0  0  0
  3 34  1  0  0  0  0
  5  6  1  6  0  0  0
  5 16  1  0  0  0  0
  7 19  1  0  0  0  0
  8  4  1  0  0  0  0
  8 24  2  0  0  0  0
  9  8  1  6  0  0  0
  9 10  1  0  0  0  0
  9 13  1  0  0  0  0
 10 11  1  0  0  0  0
 11 12  1  0  0  0  0
 14 15  1  0  0  0  0
 14 35  1  0  0  0  0
 15 17  1  0  0  0  0
 16 18  1  1  0  0  0
 16 25  1  0  0  0  0
 19 20  1  1  0  0  0
 19 27  1  0  0  0  0
 21 22  1  0  0  0  0
 21 23  1  0  0  0  0
 23 17  1  0  0  0  0
 25 26  1  6  0  0  0
 25 28  1  0  0  0  0
 27  2  1  6  0  0  0
 27 30  1  0  0  0  0
 28 29  1  0  0  0  0
 28 32  1  1  0  0  0
 30 31  1  1  0  0  0
 30 34  1  0  0  0  0
 32 33  2  0  0  0  0
 34 35  1  1  0  0  0
M  END
>  <CHROM.1>
173.91900196,-128.94436763,158.23250205,-68.13577901,-64.89649434,-165.36926356
50.08009253,-71.30274754,-171.49913632,157.72556877,-159.63326175,-119.74345154
-84.84966736,4.02253471,-9.12790450,29.32328944,-2.18754640,-0.49023785,-0.57926544

>  <Name>
2f4t_lig

>  <RI>
0

>  <Rbt.Current_Directory>
/home/itssahil/PROJECTS/Mol_Feturizer/New_Systems/rnas/2f4t

>  <Rbt.Executable>
rbdock ($Id: //depot/dev/client3/rdock/2013.1/src/exe/rbdock.cxx#4 $)

>  <Rbt.Library>
libRbt.so (2013.1, Build901 2013/11/27)

>  <Rbt.Parameter_File>
/export/apps/rDock/src/rDock_2013.1_src/data/scripts/dock_solv.prm

>  <Rbt.Receptor>
prm/pocket_docking_5.prm

>  <SCORE>
-14.664

>  <SCORE.INTER>
-7.2513

>  <SCORE.INTER.CONST>
1

>  <SCORE.INTER.POLAR>
-2.01288

>  <SCORE.INTER.ROT>
13

>  <SCORE.INTER.SOLV>
16.1601

>  <SCORE.INTER.VDW>
-15.778

>  <SCORE.INTER.norm>
-0.20718

>  <SCORE.INTRA>
-7.41267

>  <SCORE.INTRA.DIHEDRAL>
-13.6875

>  <SCORE.INTRA.DIHEDRAL.0>
23.8882

>  <SCORE.INTRA.POLAR>
0

>  <SCORE.INTRA.POLAR.0>
0

>  <SCORE.INTRA.REPUL>
0

>  <SCORE.INTRA.REPUL.0>
0

>  <SCORE.INTRA.SOLV>
0.979503

>  <SCORE.INTRA.SOLV.lig_0>
-97.6888

>  <SCORE.INTRA.VDW>
-1.05867

>  <SCORE.INTRA.VDW.0>
-3.9206

>  <SCORE.INTRA.norm>
-0.211791

>  <SCORE.RESTR>
0

>  <SCORE.RESTR.CAVITY>
0

>  <SCORE.RESTR.norm>
0

>  <SCORE.SYSTEM>
0

>  <SCORE.SYSTEM.CONST>
0

>  <SCORE.SYSTEM.DIHEDRAL>
0

>  <SCORE.SYSTEM.SOLV>
0

>  <SCORE.SYSTEM.norm>
0

>  <SCORE.heavy>
35

>  <SCORE.norm>
-0.418971

>  <RMSD>
8.017

$$$$
2f4t_lig
 OpenBabel11021811433D
libRbt.so/2013.1/901 2013/11/27
 35 36  0  0  0  0  0  0  0  0999 V2000
    1.0512  -10.1640   30.6228 C   0  0  2  0  0  0  0  0  0  0  0  0
    2.2767   -9.9813   31.4051 O   0  0  0  0  0  0  0  0  0  0  0  0
    5.9366   -7.9755   30.2918 C   0  0  2  0  0  0  0  0  0  0  0  0
    7.2731   -7.7549   29.7194 N   0  0  0  0  0  0  0  0  0  0  0  0
    0.0458  -10.8872   31.5692 C   0  0  2  0  0  0  0  0  0  0  0  0
   -0.1488  -10.1279   32.7820 N   0  0  0  0  0  0  0  0  0  0  0  0
    5.9674   -9.2569   31.2033 C   0  0  0  0  0  0  0  0  0  0  0  0
    8.2838   -6.9023   30.8900 C   0  0  0  0  0  0  0  0  0  0  0  0
    9.3744   -6.9813   29.8448 C   0  0  1  0  0  0  0  0  0  0  0  0
    9.1250   -5.8615   28.8319 C   0  0  0  0  0  0  0  0  0  0  0  0
   10.0351   -5.8703   27.5923 C   0  0  0  0  0  0  0  0  0  0  0  0
   11.3987   -5.5398   28.0170 N   0  0  0  0  0  0  0  0  0  0  0  0
   10.6314   -6.7154   30.4101 O   0  0  0  0  0  0  0  0  0  0  0  0
    4.3523   -6.1239   27.3971 C   0  0  0  0  0  0  0  0  0  0  0  0
    3.7725   -6.8949   26.2211 C   0  0  0  0  0  0  0  0  0  0  0  0
    0.5588  -12.3299   31.8977 C   0  0  1  0  0  0  0  0  0  0  0  0
    3.0405   -6.0427   25.2586 N   0  0  0  0  0  0  0  0  0  0  0  0
   -0.3426  -13.0059   32.7526 O   0  0  0  0  0  0  0  0  0  0  0  0
    4.5950   -9.5500   31.8252 C   0  0  2  0  0  0  0  0  0  0  0  0
    4.6391  -10.7650   32.6328 N   0  0  0  0  0  0  0  0  0  0  0  0
    1.0421   -4.9100   24.2815 C   0  0  0  0  0  0  0  0  0  0  0  0
   -0.4373   -4.4448   24.4738 N   0  0  0  0  0  0  0  0  0  0  0  0
    1.5966   -5.7430   25.4747 C   0  0  0  0  0  0  0  0  0  0  0  0
    8.1324   -6.5269   31.8776 O   0  0  0  0  0  0  0  0  0  0  0  0
    0.7246  -13.0876   30.5762 C   0  0  2  0  0  0  0  0  0  0  0  0
    1.1771  -14.4125   30.8036 O   0  0  0  0  0  0  0  0  0  0  0  0
    3.5523   -9.7124   30.7475 C   0  0  2  0  0  0  0  0  0  0  0  0
    1.7182  -12.3282   29.6505 C   0  0  2  0  0  0  0  0  0  0  0  0
    1.2721  -10.9782   29.4054 O   0  0  0  0  0  0  0  0  0  0  0  0
    3.4936   -8.4084   29.8414 C   0  0  2  0  0  0  0  0  0  0  0  0
    2.4726   -8.5988   28.8164 O   0  0  0  0  0  0  0  0  0  0  0  0
    1.8896  -13.0086   28.3449 C   0  0  0  0  0  0  0  0  0  0  0  0
    2.0931  -12.0853   27.3795 N   0  0  0  0  0  0  0  0  0  0  0  0
    4.8980   -8.1880   29.1794 C   0  0  1  0  0  0  0  0  0  0  0  0
    4.8715   -7.0666   28.3551 O   0  0  0  0  0  0  0  0  0  0  0  0
  1  2  1  1  0  0  0
  1  5  1  0  0  0  0
  1 29  1  0  0  0  0
  3  4  1  6  0  0  0
  3  7  1  0  0  0  0
  3 34  1  0  0  0  0
  5  6  1  1  0  0  0
  5 16  1  0  0  0  0
  7 19  1  0  0  0  0
  8  4  1  0  0  0  0
  8 24  2  0  0  0  0
  9  8  1  1  0  0  0
  9 10  1  0  0  0  0
  9 13  1  0  0  0  0
 10 11  1  0  0  0  0
 11 12  1  0  0  0  0
 14 15  1  0  0  0  0
 14 35  1  0  0  0  0
 15 17  1  0  0  0  0
 16 18  1  1  0  0  0
 16 25  1  0  0  0  0
 19 20  1  6  0  0  0
 19 27  1  0  0  0  0
 21 22  1  0  0  0  0
 21 23  1  0  0  0  0
 23 17  1  0  0  0  0
 25 26  1  1  0  0  0
 25 28  1  0  0  0  0
 27  2  1  1  0  0  0
 27 30  1  0  0  0  0
 28 29  1  0  0  0  0
 28 32  1  6  0  0  0
 30 31  1  6  0  0  0
 30 34  1  0  0  0  0
 32 33  2  0  0  0  0
 34 35  1  6  0  0  0
M  END
>  <CHROM.1>
161.34067569,-82.73968144,80.47058035,-173.17804632,-68.38921101,171.96211984
-47.31232130,-86.75515550,-175.20008245,-176.32214213,178.87102244,146.61203869
-158.57614568,4.00755337,-8.80725067,29.44404372,2.55875126,0.35108254,2.32737170

>  <Name>
2f4t_lig

>  <RI>
0

>  <Rbt.Current_Directory>
/home/itssahil/PROJECTS/Mol_Feturizer/New_Systems/rnas/2f4t

>  <Rbt.Executable>
rbdock ($Id: //depot/dev/client3/rdock/2013.1/src/exe/rbdock.cxx#4 $)

>  <Rbt.Library>
libRbt.so (2013.1, Build901 2013/11/27)

>  <Rbt.Parameter_File>
/export/apps/rDock/src/rDock_2013.1_src/data/scripts/dock_solv.prm

>  <Rbt.Receptor>
prm/pocket_docking_7.prm

>  <SCORE>
-15.5842

>  <SCORE.INTER>
-9.28541

>  <SCORE.INTER.CONST>
1

>  <SCORE.INTER.POLAR>
-1.43633

>  <SCORE.INTER.ROT>
13

>  <SCORE.INTER.SOLV>
17.2868

>  <SCORE.INTER.VDW>
-19.4314

>  <SCORE.INTER.norm>
-0.265298

>  <SCORE.INTRA>
-6.29877

>  <SCORE.INTRA.DIHEDRAL>
-15.4413

>  <SCORE.INTRA.DIHEDRAL.0>
23.8882

>  <SCORE.INTRA.POLAR>
0

>  <SCORE.INTRA.POLAR.0>
0

>  <SCORE.INTRA.REPUL>
0

>  <SCORE.INTRA.REPUL.0>
0

>  <SCORE.INTRA.SOLV>
0.3406

>  <SCORE.INTRA.SOLV.lig_0>
-97.6888

>  <SCORE.INTRA.VDW>
1.25156

>  <SCORE.INTRA.VDW.0>
-3.9206

>  <SCORE.INTRA.norm>
-0.179965

>  <SCORE.RESTR>
0

>  <SCORE.RESTR.CAVITY>
0

>  <SCORE.RESTR.norm>
0

>  <SCORE.SYSTEM>
0

>  <SCORE.SYSTEM.CONST>
0

>  <SCORE.SYSTEM.DIHEDRAL>
0

>  <SCORE.SYSTEM.SOLV>
0

>  <SCORE.SYSTEM.norm>
0

>  <SCORE.heavy>
35

>  <SCORE.norm>
-0.445262

>  <RMSD>
8.019

$$$$
2f4t_lig
 OpenBabel11021811433D
libRbt.so/2013.1/901 2013/11/27
 35 36  0  0  0  0  0  0  0  0999 V2000
    1.1317  -12.1958   32.2368 C   0  0  2  0  0  0  0  0  0  0  0  0
    1.9075  -12.3212   31.0000 O   0  0  0  0  0  0  0  0  0  0  0  0
    3.6055   -9.4127   28.2955 C   0  0  2  0  0  0  0  0  0  0  0  0
    3.6898   -8.3698   27.2620 N   0  0  0  0  0  0  0  0  0  0  0  0
    1.1466  -13.6092   32.8938 C   0  0  2  0  0  0  0  0  0  0  0  0
    2.5026  -14.0594   33.1035 N   0  0  0  0  0  0  0  0  0  0  0  0
    2.7535  -10.6167   27.7495 C   0  0  0  0  0  0  0  0  0  0  0  0
    2.0661   -7.8021   26.8617 C   0  0  0  0  0  0  0  0  0  0  0  0
    2.7493   -6.8660   25.8895 C   0  0  1  0  0  0  0  0  0  0  0  0
    1.6560   -6.1219   25.1195 C   0  0  0  0  0  0  0  0  0  0  0  0
    0.8053   -5.1450   25.9485 C   0  0  0  0  0  0  0  0  0  0  0  0
   -0.1324   -4.4684   25.0474 N   0  0  0  0  0  0  0  0  0  0  0  0
    3.4787   -5.8795   26.5713 O   0  0  0  0  0  0  0  0  0  0  0  0
    4.8281   -7.0287   30.4310 C   0  0  0  0  0  0  0  0  0  0  0  0
    5.6037   -7.8170   31.4753 C   0  0  0  0  0  0  0  0  0  0  0  0
    0.3594  -14.6261   32.0002 C   0  0  1  0  0  0  0  0  0  0  0  0
    6.8872   -7.1884   31.8576 N   0  0  0  0  0  0  0  0  0  0  0  0
    0.3569  -15.9155   32.5816 O   0  0  0  0  0  0  0  0  0  0  0  0
    2.6177  -11.7391   28.7878 C   0  0  2  0  0  0  0  0  0  0  0  0
    1.7901  -12.8257   28.2734 N   0  0  0  0  0  0  0  0  0  0  0  0
    7.1532   -6.3370   34.1891 C   0  0  0  0  0  0  0  0  0  0  0  0
    7.5648   -4.9162   33.6852 N   0  0  0  0  0  0  0  0  0  0  0  0
    7.4941   -7.4797   33.1873 C   0  0  0  0  0  0  0  0  0  0  0  0
    1.0826   -8.0501   27.1938 O   0  0  0  0  0  0  0  0  0  0  0  0
   -1.0713  -14.1037   31.8334 C   0  0  2  0  0  0  0  0  0  0  0  0
   -1.8461  -14.9887   31.0406 O   0  0  0  0  0  0  0  0  0  0  0  0
    2.0013  -11.2092   30.0584 C   0  0  2  0  0  0  0  0  0  0  0  0
   -1.0469  -12.6855   31.1937 C   0  0  2  0  0  0  0  0  0  0  0  0
   -0.2650  -11.7701   31.9889 O   0  0  0  0  0  0  0  0  0  0  0  0
    2.8743  -10.0123   30.6330 C   0  0  2  0  0  0  0  0  0  0  0  0
    2.2526   -9.5303   31.8620 O   0  0  0  0  0  0  0  0  0  0  0  0
   -2.4098  -12.1240   31.0384 C   0  0  0  0  0  0  0  0  0  0  0  0
   -2.3889  -11.1417   30.1110 N   0  0  0  0  0  0  0  0  0  0  0  0
    2.9300   -8.8671   29.5632 C   0  0  1  0  0  0  0  0  0  0  0  0
    3.6659   -7.7897   30.0487 O   0  0  0  0  0  0  0  0  0  0  0  0
  1  2  1  6  0  0  0
  1  5  1  0  0  0  0
  1 29  1  0  0  0  0
  3  4  1  6  0  0  0
  3  7  1  0  0  0  0
  3 34  1  0  0  0  0
  5  6  1  6  0  0  0
  5 16  1  0  0  0  0
  7 19  1  0  0  0  0
  8  4  1  0  0  0  0
  8 24  2  0  0  0  0
  9  8  1  1  0  0  0
  9 10  1  0  0  0  0
  9 13  1  0  0  0  0
 10 11  1  0  0  0  0
 11 12  1  0  0  0  0
 14 15  1  0  0  0  0
 14 35  1  0  0  0  0
 15 17  1  0  0  0  0
 16 18  1  1  0  0  0
 16 25  1  0  0  0  0
 19 20  1  6  0  0  0
 19 27  1  0  0  0  0
 21 22  1  0  0  0  0
 21 23  1  0  0  0  0
 23 17  1  0  0  0  0
 25 26  1  6  0  0  0
 25 28  1  0  0  0  0
 27  2  1  1  0  0  0
 27 30  1  0  0  0  0
 28 29  1  0  0  0  0
 28 32  1  1  0  0  0
 30 31  1  1  0  0  0
 30 34  1  0  0  0  0
 32 33  2  0  0  0  0
 34 35  1  1  0  0  0
M  END
>  <CHROM.1>
174.33183835,60.27841542,175.80706173,67.15213989,176.80303232,174.81879177
-57.76231739,155.38391137,-54.86088749,-98.27781034,-168.72557309,-159.76773100
-43.78769494,2.21863259,-9.85656011,30.04182494,-2.21389524,-0.66715249,-0.79999381

>  <Name>
2f4t_lig

>  <RI>
0

>  <Rbt.Current_Directory>
/home/itssahil/PROJECTS/Mol_Feturizer/New_Systems/rnas/2f4t

>  <Rbt.Executable>
rbdock ($Id: //depot/dev/client3/rdock/2013.1/src/exe/rbdock.cxx#4 $)

>  <Rbt.Library>
libRbt.so (2013.1, Build901 2013/11/27)

>  <Rbt.Parameter_File>
/export/apps/rDock/src/rDock_2013.1_src/data/scripts/dock_solv.prm

>  <Rbt.Receptor>
prm/pocket_docking_8.prm

>  <SCORE>
-9.01012

>  <SCORE.INTER>
-1.31969

>  <SCORE.INTER.CONST>
1

>  <SCORE.INTER.POLAR>
0

>  <SCORE.INTER.ROT>
13

>  <SCORE.INTER.SOLV>
15.5296

>  <SCORE.INTER.VDW>
-18.323

>  <SCORE.INTER.norm>
-0.0377055

>  <SCORE.INTRA>
-7.69043

>  <SCORE.INTRA.DIHEDRAL>
-17.7024

>  <SCORE.INTRA.DIHEDRAL.0>
23.8882

>  <SCORE.INTRA.POLAR>
0

>  <SCORE.INTRA.POLAR.0>
0

>  <SCORE.INTRA.REPUL>
0

>  <SCORE.INTRA.REPUL.0>
0

>  <SCORE.INTRA.SOLV>
1.16424

>  <SCORE.INTRA.SOLV.lig_0>
-97.6888

>  <SCORE.INTRA.VDW>
0.578676

>  <SCORE.INTRA.VDW.0>
-3.9206

>  <SCORE.INTRA.norm>
-0.219727

>  <SCORE.RESTR>
0

>  <SCORE.RESTR.CAVITY>
0

>  <SCORE.RESTR.norm>
0

>  <SCORE.SYSTEM>
0

>  <SCORE.SYSTEM.CONST>
0

>  <SCORE.SYSTEM.DIHEDRAL>
0

>  <SCORE.SYSTEM.SOLV>
0

>  <SCORE.SYSTEM.norm>
0

>  <SCORE.heavy>
35

>  <SCORE.norm>
-0.257432

>  <RMSD>
8.025

$$$$
2f4t_lig
 OpenBabel11021811433D
libRbt.so/2013.1/901 2013/11/27
 35 36  0  0  0  0  0  0  0  0999 V2000
   -0.1327   -6.5324   21.5604 C   0  0  2  0  0  0  0  0  0  0  0  0
   -0.5912   -5.3377   22.2744 O   0  0  0  0  0  0  0  0  0  0  0  0
    0.8235   -3.4534   25.8945 C   0  0  2  0  0  0  0  0  0  0  0  0
    1.0465   -3.2025   27.3263 N   0  0  0  0  0  0  0  0  0  0  0  0
   -1.1199   -6.7213   20.3690 C   0  0  2  0  0  0  0  0  0  0  0  0
   -1.1598   -5.5345   19.5471 N   0  0  0  0  0  0  0  0  0  0  0  0
   -0.7163   -3.6387   25.6337 C   0  0  0  0  0  0  0  0  0  0  0  0
    2.3890   -2.0727   27.5261 C   0  0  0  0  0  0  0  0  0  0  0  0
    2.1367   -2.2027   29.0119 C   0  0  1  0  0  0  0  0  0  0  0  0
    3.4220   -1.7950   29.7357 C   0  0  0  0  0  0  0  0  0  0  0  0
    3.4597   -2.0927   31.2441 C   0  0  0  0  0  0  0  0  0  0  0  0
    2.4418   -1.2695   31.9038 N   0  0  0  0  0  0  0  0  0  0  0  0
    1.1529   -1.2954   29.4350 O   0  0  0  0  0  0  0  0  0  0  0  0
    4.3095   -4.9535   25.7603 C   0  0  0  0  0  0  0  0  0  0  0  0
    5.1263   -3.7119   26.0839 C   0  0  0  0  0  0  0  0  0  0  0  0
   -2.5495   -7.0697   20.9051 C   0  0  1  0  0  0  0  0  0  0  0  0
    6.5829   -3.9625   26.1478 N   0  0  0  0  0  0  0  0  0  0  0  0
   -3.4606   -7.2500   19.8384 O   0  0  0  0  0  0  0  0  0  0  0  0
   -1.0170   -3.9155   24.1541 C   0  0  2  0  0  0  0  0  0  0  0  0
   -2.4462   -4.1240   23.9442 N   0  0  0  0  0  0  0  0  0  0  0  0
    8.8363   -4.5257   25.2334 C   0  0  0  0  0  0  0  0  0  0  0  0
    9.7570   -4.6607   23.9780 N   0  0  0  0  0  0  0  0  0  0  0  0
    7.3634   -4.1521   24.8924 C   0  0  0  0  0  0  0  0  0  0  0  0
    3.0448   -1.5624   26.8563 O   0  0  0  0  0  0  0  0  0  0  0  0
   -2.4430   -8.3443   21.7487 C   0  0  2  0  0  0  0  0  0  0  0  0
   -3.7115   -8.7245   22.2570 O   0  0  0  0  0  0  0  0  0  0  0  0
   -0.2667   -5.1365   23.6837 C   0  0  2  0  0  0  0  0  0  0  0  0
   -1.4365   -8.1259   22.9149 C   0  0  2  0  0  0  0  0  0  0  0  0
   -0.1385   -7.7412   22.4161 O   0  0  0  0  0  0  0  0  0  0  0  0
    1.2935   -4.9437   23.9154 C   0  0  2  0  0  0  0  0  0  0  0  0
    1.9858   -6.1387   23.4445 O   0  0  0  0  0  0  0  0  0  0  0  0
   -1.2768   -9.3438   23.7445 C   0  0  0  0  0  0  0  0  0  0  0  0
   -1.2388  -10.4317   22.9442 N   0  0  0  0  0  0  0  0  0  0  0  0
    1.5552   -4.7282   25.4465 C   0  0  1  0  0  0  0  0  0  0  0  0
    2.9188   -4.5839   25.6865 O   0  0  0  0  0  0  0  0  0  0  0  0
  1  2  1  1  0  0  0
  1  5  1  0  0  0  0
  1 29  1  0  0  0  0
  3  4  1  1  0  0  0
  3  7  1  0  0  0  0
  3 34  1  0  0  0  0
  5  6  1  1  0  0  0
  5 16  1  0  0  0  0
  7 19  1  0  0  0  0
  8  4  1  0  0  0  0
  8 24  2  0  0  0  0
  9  8  1  6  0  0  0
  9 10  1  0  0  0  0
  9 13  1  0  0  0  0
 10 11  1  0  0  0  0
 11 12  1  0  0  0  0
 14 15  1  0  0  0  0
 14 35  1  0  0  0  0
 15 17  1  0  0  0  0
 16 18  1  6  0  0  0
 16 25  1  0  0  0  0
 19 20  1  1  0  0  0
 19 27  1  0  0  0  0
 21 22  1  0  0  0  0
 21 23  1  0  0  0  0
 23 17  1  0  0  0  0
 25 26  1  1  0  0  0
 25 28  1  0  0  0  0
 27  2  1  6  0  0  0
 27 30  1  0  0  0  0
 28 29  1  0  0  0  0
 28 32  1  6  0  0  0
 30 31  1  1  0  0  0
 30 34  1  0  0  0  0
 32 33  2  0  0  0  0
 34 35  1  6  0  0  0
M  END
>  <CHROM.1>
156.12943629,-144.92932826,158.30977332,-169.59493166,-65.30920816,-178.36483616
172.41117738,75.25377738,-176.50650031,-174.90553367,-173.27135909,40.66472179
175.18453861,1.31199336,-4.95205788,24.77768361,-2.25763065,0.04442319,0.96109356

>  <Name>
2f4t_lig

>  <RI>
0

>  <Rbt.Current_Directory>
/home/itssahil/PROJECTS/Mol_Feturizer/New_Systems/rnas/2f4t

>  <Rbt.Executable>
rbdock ($Id: //depot/dev/client3/rdock/2013.1/src/exe/rbdock.cxx#4 $)

>  <Rbt.Library>
libRbt.so (2013.1, Build901 2013/11/27)

>  <Rbt.Parameter_File>
/export/apps/rDock/src/rDock_2013.1_src/data/scripts/dock_solv.prm

>  <Rbt.Receptor>
prm/pocket_docking_7.prm

>  <SCORE>
-24.5037

>  <SCORE.INTER>
-17.1279

>  <SCORE.INTER.CONST>
1

>  <SCORE.INTER.POLAR>
-1.24001

>  <SCORE.INTER.ROT>
13

>  <SCORE.INTER.SOLV>
18.8462

>  <SCORE.INTER.VDW>
-25.8339

>  <SCORE.INTER.norm>
-0.489368

>  <SCORE.INTRA>
-7.37828

>  <SCORE.INTRA.DIHEDRAL>
-16.4672

>  <SCORE.INTRA.DIHEDRAL.0>
23.8882

>  <SCORE.INTRA.POLAR>
0

>  <SCORE.INTRA.POLAR.0>
0

>  <SCORE.INTRA.REPUL>
0

>  <SCORE.INTRA.REPUL.0>
0

>  <SCORE.INTRA.SOLV>
1.41791

>  <SCORE.INTRA.SOLV.lig_0>
-97.6888

>  <SCORE.INTRA.VDW>
0.146362

>  <SCORE.INTRA.VDW.0>
-3.9206

>  <SCORE.INTRA.norm>
-0.210808

>  <SCORE.RESTR>
0.00248415

>  <SCORE.RESTR.CAVITY>
0.00248415

>  <SCORE.RESTR.norm>
7.09757e-05

>  <SCORE.SYSTEM>
0

>  <SCORE.SYSTEM.CONST>
0

>  <SCORE.SYSTEM.DIHEDRAL>
0

>  <SCORE.SYSTEM.SOLV>
0

>  <SCORE.SYSTEM.norm>
0

>  <SCORE.heavy>
35

>  <SCORE.norm>
-0.700105

>  <RMSD>
8.046

$$$$
2f4t_lig
 OpenBabel11021811433D
libRbt.so/2013.1/901 2013/11/27
 35 36  0  0  0  0  0  0  0  0999 V2000
    1.6290  -13.3852   31.2213 C   0  0  2  0  0  0  0  0  0  0  0  0
    2.2386  -13.2103   29.9003 O   0  0  0  0  0  0  0  0  0  0  0  0
    4.2128   -9.3865   30.2722 C   0  0  2  0  0  0  0  0  0  0  0  0
    5.2097   -8.3215   30.0862 N   0  0  0  0  0  0  0  0  0  0  0  0
    0.8285  -14.7206   31.1472 C   0  0  2  0  0  0  0  0  0  0  0  0
    1.6915  -15.8112   30.7582 N   0  0  0  0  0  0  0  0  0  0  0  0
    4.9436  -10.7131   30.6963 C   0  0  0  0  0  0  0  0  0  0  0  0
    6.0100   -8.5273   28.5255 C   0  0  0  0  0  0  0  0  0  0  0  0
    6.7970   -7.2869   28.8863 C   0  0  1  0  0  0  0  0  0  0  0  0
    8.0519   -7.7386   29.6367 C   0  0  0  0  0  0  0  0  0  0  0  0
    8.8674   -6.6187   30.3045 C   0  0  0  0  0  0  0  0  0  0  0  0
    9.5207   -5.8324   29.2538 N   0  0  0  0  0  0  0  0  0  0  0  0
    7.2541   -6.6297   27.7333 O   0  0  0  0  0  0  0  0  0  0  0  0
    2.0753   -7.5713   27.7158 C   0  0  0  0  0  0  0  0  0  0  0  0
    1.7269   -6.3218   28.5101 C   0  0  0  0  0  0  0  0  0  0  0  0
   -0.3656  -14.5771   30.1443 C   0  0  1  0  0  0  0  0  0  0  0  0
    0.6408   -6.5297   29.4928 N   0  0  0  0  0  0  0  0  0  0  0  0
   -1.1086  -15.7780   30.0658 O   0  0  0  0  0  0  0  0  0  0  0  0
    3.9565  -11.8714   30.8968 C   0  0  2  0  0  0  0  0  0  0  0  0
    4.6613  -13.0997   31.2497 N   0  0  0  0  0  0  0  0  0  0  0  0
   -1.5860   -5.7178   30.2761 C   0  0  0  0  0  0  0  0  0  0  0  0
   -2.4401   -4.5364   30.8390 N   0  0  0  0  0  0  0  0  0  0  0  0
   -0.0859   -5.3590   30.0608 C   0  0  0  0  0  0  0  0  0  0  0  0
    5.9285   -9.2332   27.7291 O   0  0  0  0  0  0  0  0  0  0  0  0
   -1.2513  -13.4218   30.6223 C   0  0  2  0  0  0  0  0  0  0  0  0
   -2.3642  -13.2448   29.7609 O   0  0  0  0  0  0  0  0  0  0  0  0
    3.1572  -12.1057   29.6394 C   0  0  2  0  0  0  0  0  0  0  0  0
   -0.4161  -12.1114   30.7027 C   0  0  2  0  0  0  0  0  0  0  0  0
    0.7197  -12.2718   31.5778 O   0  0  0  0  0  0  0  0  0  0  0  0
    2.3908  -10.7778   29.2220 C   0  0  2  0  0  0  0  0  0  0  0  0
    1.6256  -11.0433   28.0083 O   0  0  0  0  0  0  0  0  0  0  0  0
   -1.2241  -10.9682   31.1895 C   0  0  0  0  0  0  0  0  0  0  0  0
   -1.6336  -10.2260   30.1373 N   0  0  0  0  0  0  0  0  0  0  0  0
    3.4439   -9.6442   28.9670 C   0  0  1  0  0  0  0  0  0  0  0  0
    2.8045   -8.4727   28.5714 O   0  0  0  0  0  0  0  0  0  0  0  0
  1  2  1  6  0  0  0
  1  5  1  0  0  0  0
  1 29  1  0  0  0  0
  3  4  1  6  0  0  0
  3  7  1  0  0  0  0
  3 34  1  0  0  0  0
  5  6  1  6  0  0  0
  5 16  1  0  0  0  0
  7 19  1  0  0  0  0
  8  4  1  0  0  0  0
  8 24  2  0  0  0  0
  9  8  1  6  0  0  0
  9 10  1  0  0  0  0
  9 13  1  0  0  0  0
 10 11  1  0  0  0  0
 11 12  1  0  0  0  0
 14 15  1  0  0  0  0
 14 35  1  0  0  0  0
 15 17  1  0  0  0  0
 16 18  1  1  0  0  0
 16 25  1  0  0  0  0
 19 20  1  6  0  0  0
 19 27  1  0  0  0  0
 21 22  1  0  0  0  0
 21 23  1  0  0  0  0
 23 17  1  0  0  0  0
 25 26  1  6  0  0  0
 25 28  1  0  0  0  0
 27  2  1  1  0  0  0
 27 30  1  0  0  0  0
 28 29  1  0  0  0  0
 28 32  1  1  0  0  0
 30 31  1  6  0  0  0
 30 34  1  0  0  0  0
 32 33  2  0  0  0  0
 34 35  1  1  0  0  0
M  END
>  <CHROM.1>
-175.02787935,78.26276412,89.63449406,-169.84831024,-70.82335815,-74.05916587
173.48812374,-162.28915674,-178.60683218,144.26606128,35.33722008,-98.89184664
169.36513253,2.49969349,-10.09169984,29.79677969,-2.38742868,0.08564809,-0.12880082

>  <Name>
2f4t_lig

>  <RI>
0

>  <Rbt.Current_Directory>
/home/itssahil/PROJECTS/Mol_Feturizer/New_Systems/rnas/2f4t

>  <Rbt.Executable>
rbdock ($Id: //depot/dev/client3/rdock/2013.1/src/exe/rbdock.cxx#4 $)

>  <Rbt.Library>
libRbt.so (2013.1, Build901 2013/11/27)

>  <Rbt.Parameter_File>
/export/apps/rDock/src/rDock_2013.1_src/data/scripts/dock_solv.prm

>  <Rbt.Receptor>
prm/pocket_docking_8.prm

>  <SCORE>
-13.9438

>  <SCORE.INTER>
-8.20914

>  <SCORE.INTER.CONST>
1

>  <SCORE.INTER.POLAR>
-1.72467

>  <SCORE.INTER.ROT>
13

>  <SCORE.INTER.SOLV>
11.6236

>  <SCORE.INTER.VDW>
-15.8651

>  <SCORE.INTER.norm>
-0.234547

>  <SCORE.INTRA>
-5.73466

>  <SCORE.INTRA.DIHEDRAL>
-14.9824

>  <SCORE.INTRA.DIHEDRAL.0>
23.8882

>  <SCORE.INTRA.POLAR>
0

>  <SCORE.INTRA.POLAR.0>
0

>  <SCORE.INTRA.REPUL>
0

>  <SCORE.INTRA.REPUL.0>
0

>  <SCORE.INTRA.SOLV>
2.73014

>  <SCORE.INTRA.SOLV.lig_0>
-97.6888

>  <SCORE.INTRA.VDW>
0.391479

>  <SCORE.INTRA.VDW.0>
-3.9206

>  <SCORE.INTRA.norm>
-0.163847

>  <SCORE.RESTR>
0

>  <SCORE.RESTR.CAVITY>
0

>  <SCORE.RESTR.norm>
0

>  <SCORE.SYSTEM>
0

>  <SCORE.SYSTEM.CONST>
0

>  <SCORE.SYSTEM.DIHEDRAL>
0

>  <SCORE.SYSTEM.SOLV>
0

>  <SCORE.SYSTEM.norm>
0

>  <SCORE.heavy>
35

>  <SCORE.norm>
-0.398394

>  <RMSD>
8.047

$$$$
2f4t_lig
 OpenBabel11021811433D
libRbt.so/2013.1/901 2013/11/27
 35 36  0  0  0  0  0  0  0  0999 V2000
    0.9818  -11.8211   30.4629 C   0  0  2  0  0  0  0  0  0  0  0  0
    0.5116  -10.8516   31.4560 O   0  0  0  0  0  0  0  0  0  0  0  0
    2.9811   -7.4315   30.5280 C   0  0  2  0  0  0  0  0  0  0  0  0
    3.4778   -6.0473   30.5163 N   0  0  0  0  0  0  0  0  0  0  0  0
    0.1068  -13.0953   30.6645 C   0  0  2  0  0  0  0  0  0  0  0  0
   -1.2960  -12.7747   30.5426 N   0  0  0  0  0  0  0  0  0  0  0  0
    1.4486   -7.4359   30.1745 C   0  0  0  0  0  0  0  0  0  0  0  0
    4.2512   -5.7102   28.9648 C   0  0  0  0  0  0  0  0  0  0  0  0
    4.5015   -4.3226   29.5127 C   0  0  1  0  0  0  0  0  0  0  0  0
    5.8597   -4.3428   30.2176 C   0  0  0  0  0  0  0  0  0  0  0  0
    6.2453   -3.0506   30.9568 C   0  0  0  0  0  0  0  0  0  0  0  0
    7.5799   -3.2297   31.5364 N   0  0  0  0  0  0  0  0  0  0  0  0
    4.6217   -3.3870   28.4733 O   0  0  0  0  0  0  0  0  0  0  0  0
    5.6928   -8.1594   33.0779 C   0  0  0  0  0  0  0  0  0  0  0  0
    6.8954   -8.4268   32.1859 C   0  0  0  0  0  0  0  0  0  0  0  0
    0.4067  -13.7383   32.0605 C   0  0  1  0  0  0  0  0  0  0  0  0
    7.1125   -7.3850   31.1583 N   0  0  0  0  0  0  0  0  0  0  0  0
   -0.3745  -14.9001   32.2616 O   0  0  0  0  0  0  0  0  0  0  0  0
    0.8641   -8.8553   30.1802 C   0  0  2  0  0  0  0  0  0  0  0  0
   -0.5660   -8.8297   29.8898 N   0  0  0  0  0  0  0  0  0  0  0  0
    7.8218   -6.4843   28.9408 C   0  0  0  0  0  0  0  0  0  0  0  0
    8.5258   -6.7465   27.5706 N   0  0  0  0  0  0  0  0  0  0  0  0
    7.7614   -7.7374   29.8636 C   0  0  0  0  0  0  0  0  0  0  0  0
    4.4295   -6.2765   28.0779 O   0  0  0  0  0  0  0  0  0  0  0  0
    1.9008  -14.0729   32.1185 C   0  0  2  0  0  0  0  0  0  0  0  0
    2.2394  -14.6729   33.3583 O   0  0  0  0  0  0  0  0  0  0  0  0
    1.0828   -9.5094   31.5216 C   0  0  2  0  0  0  0  0  0  0  0  0
    2.7421  -12.7833   31.8944 C   0  0  2  0  0  0  0  0  0  0  0  0
    2.4131  -12.1603   30.6353 O   0  0  0  0  0  0  0  0  0  0  0  0
    2.6326   -9.5366   31.8715 C   0  0  2  0  0  0  0  0  0  0  0  0
    2.8060  -10.1801   33.1696 O   0  0  0  0  0  0  0  0  0  0  0  0
    4.1979  -13.0612   31.9126 C   0  0  0  0  0  0  0  0  0  0  0  0
    4.6100  -13.3845   30.6670 N   0  0  0  0  0  0  0  0  0  0  0  0
    3.1676   -8.0632   31.9163 C   0  0  1  0  0  0  0  0  0  0  0  0
    4.5192   -8.0514   32.2489 O   0  0  0  0  0  0  0  0  0  0  0  0
  1  2  1  1  0  0  0
  1  5  1  0  0  0  0
  1 29  1  0  0  0  0
  3  4  1  1  0  0  0
  3  7  1  0  0  0  0
  3 34  1  0  0  0  0
  5  6  1  1  0  0  0
  5 16  1  0  0  0  0
  7 19  1  0  0  0  0
  8  4  1  0  0  0  0
  8 24  2  0  0  0  0
  9  8  1  6  0  0  0
  9 10  1  0  0  0  0
  9 13  1  0  0  0  0
 10 11  1  0  0  0  0
 11 12  1  0  0  0  0
 14 15  1  0  0  0  0
 14 35  1  0  0  0  0
 15 17  1  0  0  0  0
 16 18  1  6  0  0  0
 16 25  1  0  0  0  0
 19 20  1  1  0  0  0
 19 27  1  0  0  0  0
 21 22  1  0  0  0  0
 21 23  1  0  0  0  0
 23 17  1  0  0  0  0
 25 26  1  1  0  0  0
 25 28  1  0  0  0  0
 27  2  1  6  0  0  0
 27 30  1  0  0  0  0
 28 29  1  0  0  0  0
 28 32  1  6  0  0  0
 30 31  1  1  0  0  0
 30 34  1  0  0  0  0
 32 33  2  0  0  0  0
 34 35  1  6  0  0  0
M  END
>  <CHROM.1>
-177.71873640,-97.71321910,90.16665295,-174.71250048,-178.39106239,57.96464918
158.64863332,-151.16883530,178.32256704,177.78767469,58.77343515,88.35191609
166.81500200,3.49307919,-9.05335946,30.88417214,2.13718679,0.14025850,2.83175671

>  <Name>
2f4t_lig

>  <RI>
0

>  <Rbt.Current_Directory>
/home/itssahil/PROJECTS/Mol_Feturizer/New_Systems/rnas/2f4t

>  <Rbt.Executable>
rbdock ($Id: //depot/dev/client3/rdock/2013.1/src/exe/rbdock.cxx#4 $)

>  <Rbt.Library>
libRbt.so (2013.1, Build901 2013/11/27)

>  <Rbt.Parameter_File>
/export/apps/rDock/src/rDock_2013.1_src/data/scripts/dock_solv.prm

>  <Rbt.Receptor>
prm/pocket_docking_6.prm

>  <SCORE>
-5.92678

>  <SCORE.INTER>
2.09513

>  <SCORE.INTER.CONST>
1

>  <SCORE.INTER.POLAR>
-1.73133

>  <SCORE.INTER.ROT>
13

>  <SCORE.INTER.SOLV>
10.6549

>  <SCORE.INTER.VDW>
-8.65042

>  <SCORE.INTER.norm>
0.0598608

>  <SCORE.INTRA>
-8.0219

>  <SCORE.INTRA.DIHEDRAL>
-16.3917

>  <SCORE.INTRA.DIHEDRAL.0>
23.8882

>  <SCORE.INTRA.POLAR>
0

>  <SCORE.INTRA.POLAR.0>
0

>  <SCORE.INTRA.REPUL>
0

>  <SCORE.INTRA.REPUL.0>
0

>  <SCORE.INTRA.SOLV>
2.59702

>  <SCORE.INTRA.SOLV.lig_0>
-97.6888

>  <SCORE.INTRA.VDW>
-1.12454

>  <SCORE.INTRA.VDW.0>
-3.9206

>  <SCORE.INTRA.norm>
-0.229197

>  <SCORE.RESTR>
0

>  <SCORE.RESTR.CAVITY>
0

>  <SCORE.RESTR.norm>
0

>  <SCORE.SYSTEM>
0

>  <SCORE.SYSTEM.CONST>
0

>  <SCORE.SYSTEM.DIHEDRAL>
0

>  <SCORE.SYSTEM.SOLV>
0

>  <SCORE.SYSTEM.norm>
0

>  <SCORE.heavy>
35

>  <SCORE.norm>
-0.169336

>  <RMSD>
8.065

$$$$
2f4t_lig
 OpenBabel11021811433D
libRbt.so/2013.1/901 2013/11/27
 35 36  0  0  0  0  0  0  0  0999 V2000
    4.8769  -11.3736   31.9611 C   0  0  2  0  0  0  0  0  0  0  0  0
    4.1052  -11.1657   30.7329 O   0  0  0  0  0  0  0  0  0  0  0  0
    4.9467   -8.1627   27.7443 C   0  0  2  0  0  0  0  0  0  0  0  0
    4.8725   -6.9001   26.9941 N   0  0  0  0  0  0  0  0  0  0  0  0
    4.5996  -12.8451   32.3940 C   0  0  2  0  0  0  0  0  0  0  0  0
    4.9422  -13.7619   31.3320 N   0  0  0  0  0  0  0  0  0  0  0  0
    3.5003   -8.7612   27.8974 C   0  0  0  0  0  0  0  0  0  0  0  0
    3.8690   -5.7461   27.8773 C   0  0  0  0  0  0  0  0  0  0  0  0
    4.1617   -4.7877   26.7441 C   0  0  1  0  0  0  0  0  0  0  0  0
    3.0718   -3.7135   26.7551 C   0  0  0  0  0  0  0  0  0  0  0  0
    1.7404   -4.1092   26.0949 C   0  0  0  0  0  0  0  0  0  0  0  0
    1.0912   -5.1218   26.9331 N   0  0  0  0  0  0  0  0  0  0  0  0
    5.3717   -4.1100   26.9601 O   0  0  0  0  0  0  0  0  0  0  0  0
    8.2484   -7.3411   29.0164 C   0  0  0  0  0  0  0  0  0  0  0  0
    8.7471   -7.4815   30.4464 C   0  0  0  0  0  0  0  0  0  0  0  0
    3.0973  -13.0114   32.8034 C   0  0  1  0  0  0  0  0  0  0  0  0
    8.2045   -6.4567   31.3651 N   0  0  0  0  0  0  0  0  0  0  0  0
    2.8254  -14.3401   33.2046 O   0  0  0  0  0  0  0  0  0  0  0  0
    3.5067  -10.0796   28.6837 C   0  0  2  0  0  0  0  0  0  0  0  0
    2.1506  -10.5936   28.8475 N   0  0  0  0  0  0  0  0  0  0  0  0
    7.4039   -5.9178   33.6673 C   0  0  0  0  0  0  0  0  0  0  0  0
    7.0426   -4.4315   33.3476 N   0  0  0  0  0  0  0  0  0  0  0  0
    8.5769   -6.4757   32.8081 C   0  0  0  0  0  0  0  0  0  0  0  0
    3.3265   -5.7745   28.7960 O   0  0  0  0  0  0  0  0  0  0  0  0
    2.8040  -12.0301   33.9430 C   0  0  2  0  0  0  0  0  0  0  0  0
    1.4564  -12.1381   34.3722 O   0  0  0  0  0  0  0  0  0  0  0  0
    4.1250   -9.8781   30.0446 C   0  0  2  0  0  0  0  0  0  0  0  0
    3.1098  -10.5757   33.4824 C   0  0  2  0  0  0  0  0  0  0  0  0
    4.4785  -10.4460   33.0447 O   0  0  0  0  0  0  0  0  0  0  0  0
    5.5988   -9.3027   29.8969 C   0  0  2  0  0  0  0  0  0  0  0  0
    6.1661   -9.1267   31.2297 O   0  0  0  0  0  0  0  0  0  0  0  0
    2.8687   -9.5900   34.5628 C   0  0  0  0  0  0  0  0  0  0  0  0
    2.5156   -8.4043   34.0196 N   0  0  0  0  0  0  0  0  0  0  0  0
    5.5328   -7.9280   29.1452 C   0  0  1  0  0  0  0  0  0  0  0  0
    6.8081   -7.3832   29.0245 O   0  0  0  0  0  0  0  0  0  0  0  0
  1  2  1  6  0  0  0
  1  5  1  0  0  0  0
  1 29  1  0  0  0  0
  3  4  1  1  0  0  0
  3  7  1  0  0  0  0
  3 34  1  0  0  0  0
  5  6  1  6  0  0  0
  5 16  1  0  0  0  0
  7 19  1  0  0  0  0
  8  4  1  0  0  0  0
  8 24  2  0  0  0  0
  9  8  1  1  0  0  0
  9 10  1  0  0  0  0
  9 13  1  0  0  0  0
 10 11  1  0  0  0  0
 11 12  1  0  0  0  0
 14 15  1  0  0  0  0
 14 35  1  0  0  0  0
 15 17  1  0  0  0  0
 16 18  1  1  0  0  0
 16 25  1  0  0  0  0
 19 20  1  1  0  0  0
 19 27  1  0  0  0  0
 21 22  1  0  0  0  0
 21 23  1  0  0  0  0
 23 17  1  0  0  0  0
 25 26  1  6  0  0  0
 25 28  1  0  0  0  0
 27  2  1  6  0  0  0
 27 30  1  0  0  0  0
 28 29  1  0  0  0  0
 28 32  1  1  0  0  0
 30 31  1  1  0  0  0
 30 34  1  0  0  0  0
 32 33  2  0  0  0  0
 34 35  1  6  0  0  0
M  END
>  <CHROM.1>
179.72195028,60.87173941,159.05799369,-80.65779790,69.32107299,-56.63883454
-71.22801814,178.76828898,-61.91857326,-148.81705620,167.30041302,-150.80010528
-102.16141361,4.57041839,-8.55172641,30.47535066,-1.72631829,-0.61509117
-0.74910525

>  <Name>
2f4t_lig

>  <RI>
0

>  <Rbt.Current_Directory>
/home/itssahil/PROJECTS/Mol_Feturizer/New_Systems/rnas/2f4t

>  <Rbt.Executable>
rbdock ($Id: //depot/dev/client3/rdock/2013.1/src/exe/rbdock.cxx#4 $)

>  <Rbt.Library>
libRbt.so (2013.1, Build901 2013/11/27)

>  <Rbt.Parameter_File>
/export/apps/rDock/src/rDock_2013.1_src/data/scripts/dock_solv.prm

>  <Rbt.Receptor>
prm/pocket_docking_4.prm

>  <SCORE>
-12.8781

>  <SCORE.INTER>
-9.02459

>  <SCORE.INTER.CONST>
1

>  <SCORE.INTER.POLAR>
-1.71376

>  <SCORE.INTER.ROT>
13

>  <SCORE.INTER.SOLV>
11.9434

>  <SCORE.INTER.VDW>
-16.5516

>  <SCORE.INTER.norm>
-0.257846

>  <SCORE.INTRA>
-3.86612

>  <SCORE.INTRA.DIHEDRAL>
-11.7239

>  <SCORE.INTRA.DIHEDRAL.0>
23.8882

>  <SCORE.INTRA.POLAR>
0

>  <SCORE.INTRA.POLAR.0>
0

>  <SCORE.INTRA.REPUL>
0

>  <SCORE.INTRA.REPUL.0>
0

>  <SCORE.INTRA.SOLV>
4.20139

>  <SCORE.INTRA.SOLV.lig_0>
-97.6888

>  <SCORE.INTRA.VDW>
-0.104873

>  <SCORE.INTRA.VDW.0>
-3.9206

>  <SCORE.INTRA.norm>
-0.11046

>  <SCORE.RESTR>
0.0125716

>  <SCORE.RESTR.CAVITY>
0.0125716

>  <SCORE.RESTR.norm>
0.000359187

>  <SCORE.SYSTEM>
0

>  <SCORE.SYSTEM.CONST>
0

>  <SCORE.SYSTEM.DIHEDRAL>
0

>  <SCORE.SYSTEM.SOLV>
0

>  <SCORE.SYSTEM.norm>
0

>  <SCORE.heavy>
35

>  <SCORE.norm>
-0.367947

>  <RMSD>
8.082

$$$$
2f4t_lig
 OpenBabel11021811433D
libRbt.so/2013.1/901 2013/11/27
 35 36  0  0  0  0  0  0  0  0999 V2000
    2.4043  -10.6423   30.2435 C   0  0  2  0  0  0  0  0  0  0  0  0
    3.4272   -9.9198   29.4826 O   0  0  0  0  0  0  0  0  0  0  0  0
    3.2133   -6.6341   26.6870 C   0  0  2  0  0  0  0  0  0  0  0  0
    2.8403   -5.3359   26.1053 N   0  0  0  0  0  0  0  0  0  0  0  0
    2.7082  -10.3546   31.7450 C   0  0  2  0  0  0  0  0  0  0  0  0
    2.7230   -8.9330   31.9986 N   0  0  0  0  0  0  0  0  0  0  0  0
    1.9117   -7.3962   27.1328 C   0  0  0  0  0  0  0  0  0  0  0  0
    1.8072   -4.4568   27.2360 C   0  0  0  0  0  0  0  0  0  0  0  0
    1.7853   -3.3589   26.1956 C   0  0  1  0  0  0  0  0  0  0  0  0
    0.7944   -3.7751   25.1062 C   0  0  0  0  0  0  0  0  0  0  0  0
   -0.6797   -3.8461   25.5389 C   0  0  0  0  0  0  0  0  0  0  0  0
   -1.4962   -4.1313   24.3553 N   0  0  0  0  0  0  0  0  0  0  0  0
    1.2830   -2.1651   26.7365 O   0  0  0  0  0  0  0  0  0  0  0  0
    6.0668   -4.7313   26.9128 C   0  0  0  0  0  0  0  0  0  0  0  0
    7.5183   -4.9375   27.3182 C   0  0  0  0  0  0  0  0  0  0  0  0
    4.0753  -11.0018   32.1508 C   0  0  1  0  0  0  0  0  0  0  0  0
    7.7388   -4.8728   28.7796 N   0  0  0  0  0  0  0  0  0  0  0  0
    4.3679  -10.7561   33.5125 O   0  0  0  0  0  0  0  0  0  0  0  0
    2.2334   -8.7596   27.7605 C   0  0  2  0  0  0  0  0  0  0  0  0
    1.0141   -9.4290   28.2025 N   0  0  0  0  0  0  0  0  0  0  0  0
    8.2975   -3.6552   30.8860 C   0  0  0  0  0  0  0  0  0  0  0  0
    8.1139   -2.3718   31.7584 N   0  0  0  0  0  0  0  0  0  0  0  0
    7.5917   -3.5763   29.5000 C   0  0  0  0  0  0  0  0  0  0  0  0
    1.4114   -4.6637   28.2054 O   0  0  0  0  0  0  0  0  0  0  0  0
    3.9879  -12.5070   31.8779 C   0  0  2  0  0  0  0  0  0  0  0  0
    5.1951  -13.1593   32.2370 O   0  0  0  0  0  0  0  0  0  0  0  0
    3.1584   -8.5912   28.9399 C   0  0  2  0  0  0  0  0  0  0  0  0
    3.6648  -12.7559   30.3764 C   0  0  2  0  0  0  0  0  0  0  0  0
    2.4372  -12.1017   29.9935 O   0  0  0  0  0  0  0  0  0  0  0  0
    4.4897   -7.8494   28.4904 C   0  0  2  0  0  0  0  0  0  0  0  0
    5.3606   -7.7098   29.6529 O   0  0  0  0  0  0  0  0  0  0  0  0
    3.5410  -14.2005   30.0682 C   0  0  0  0  0  0  0  0  0  0  0  0
    4.7627  -14.7085   29.7942 N   0  0  0  0  0  0  0  0  0  0  0  0
    4.1145   -6.4391   27.9163 C   0  0  1  0  0  0  0  0  0  0  0  0
    5.2643   -5.7512   27.5388 O   0  0  0  0  0  0  0  0  0  0  0  0
  1  2  1  6  0  0  0
  1  5  1  0  0  0  0
  1 29  1  0  0  0  0
  3  4  1  1  0  0  0
  3  7  1  0  0  0  0
  3 34  1  0  0  0  0
  5  6  1  6  0  0  0
  5 16  1  0  0  0  0
  7 19  1  0  0  0  0
  8  4  1  0  0  0  0
  8 24  2  0  0  0  0
  9  8  1  1  0  0  0
  9 10  1  0  0  0  0
  9 13  1  0  0  0  0
 10 11  1  0  0  0  0
 11 12  1  0  0  0  0
 14 15  1  0  0  0  0
 14 35  1  0  0  0  0
 15 17  1  0  0  0  0
 16 18  1  1  0  0  0
 16 25  1  0  0  0  0
 19 20  1  1  0  0  0
 19 27  1  0  0  0  0
 21 22  1  0  0  0  0
 21 23  1  0  0  0  0
 23 17  1  0  0  0  0
 25 26  1  6  0  0  0
 25 28  1  0  0  0  0
 27  2  1  6  0  0  0
 27 30  1  0  0  0  0
 28 29  1  0  0  0  0
 28 32  1  1  0  0  0
 30 31  1  1  0  0  0
 30 34  1  0  0  0  0
 32 33  2  0  0  0  0
 34 35  1  6  0  0  0
M  END
>  <CHROM.1>
-95.96704742,53.04891866,78.41173526,66.42526437,174.69723260,-59.33861344
174.71148962,-69.07287726,-176.06632546,-161.95430137,-73.53007992,-86.29828797
47.66625218,3.64703567,-7.57507184,28.88966001,1.45170625,0.51658676,2.72579502

>  <Name>
2f4t_lig

>  <RI>
0

>  <Rbt.Current_Directory>
/home/itssahil/PROJECTS/Mol_Feturizer/New_Systems/rnas/2f4t

>  <Rbt.Executable>
rbdock ($Id: //depot/dev/client3/rdock/2013.1/src/exe/rbdock.cxx#4 $)

>  <Rbt.Library>
libRbt.so (2013.1, Build901 2013/11/27)

>  <Rbt.Parameter_File>
/export/apps/rDock/src/rDock_2013.1_src/data/scripts/dock_solv.prm

>  <Rbt.Receptor>
prm/pocket_docking_4.prm

>  <SCORE>
-13.1306

>  <SCORE.INTER>
-9.18949

>  <SCORE.INTER.CONST>
1

>  <SCORE.INTER.POLAR>
-1.71652

>  <SCORE.INTER.ROT>
13

>  <SCORE.INTER.SOLV>
15.5951

>  <SCORE.INTER.VDW>
-17.8696

>  <SCORE.INTER.norm>
-0.262557

>  <SCORE.INTRA>
-3.94107

>  <SCORE.INTRA.DIHEDRAL>
-14.2536

>  <SCORE.INTRA.DIHEDRAL.0>
23.8882

>  <SCORE.INTRA.POLAR>
0

>  <SCORE.INTRA.POLAR.0>
0

>  <SCORE.INTRA.REPUL>
0

>  <SCORE.INTRA.REPUL.0>
0

>  <SCORE.INTRA.SOLV>
3.02495

>  <SCORE.INTRA.SOLV.lig_0>
-97.6888

>  <SCORE.INTRA.VDW>
1.67325

>  <SCORE.INTRA.VDW.0>
-3.9206

>  <SCORE.INTRA.norm>
-0.112602

>  <SCORE.RESTR>
0

>  <SCORE.RESTR.CAVITY>
0

>  <SCORE.RESTR.norm>
0

>  <SCORE.SYSTEM>
0

>  <SCORE.SYSTEM.CONST>
0

>  <SCORE.SYSTEM.DIHEDRAL>
0

>  <SCORE.SYSTEM.SOLV>
0

>  <SCORE.SYSTEM.norm>
0

>  <SCORE.heavy>
35

>  <SCORE.norm>
-0.375159

>  <RMSD>
8.097

$$$$
2f4t_lig
 OpenBabel11021811433D
libRbt.so/2013.1/901 2013/11/27
 35 36  0  0  0  0  0  0  0  0999 V2000
    3.6808  -12.1099   29.6727 C   0  0  2  0  0  0  0  0  0  0  0  0
    2.9382  -11.0484   30.3576 O   0  0  0  0  0  0  0  0  0  0  0  0
    4.2917   -7.3841   28.5143 C   0  0  2  0  0  0  0  0  0  0  0  0
    4.5636   -5.9517   28.3219 N   0  0  0  0  0  0  0  0  0  0  0  0
    2.6040  -13.0656   29.0756 C   0  0  2  0  0  0  0  0  0  0  0  0
    1.7012  -12.3404   28.2127 N   0  0  0  0  0  0  0  0  0  0  0  0
    2.7801   -7.5778   28.9027 C   0  0  0  0  0  0  0  0  0  0  0  0
    5.8977   -5.7514   27.1822 C   0  0  0  0  0  0  0  0  0  0  0  0
    5.7016   -4.2645   27.3796 C   0  0  1  0  0  0  0  0  0  0  0  0
    6.4204   -3.8717   28.6722 C   0  0  0  0  0  0  0  0  0  0  0  0
    6.1583   -2.4409   29.1714 C   0  0  0  0  0  0  0  0  0  0  0  0
    6.9456   -2.2240   30.3888 N   0  0  0  0  0  0  0  0  0  0  0  0
    6.3265   -3.5357   26.3555 O   0  0  0  0  0  0  0  0  0  0  0  0
    7.7715   -8.0236   28.6697 C   0  0  0  0  0  0  0  0  0  0  0  0
    8.6792   -6.8254   28.9015 C   0  0  0  0  0  0  0  0  0  0  0  0
    1.8157  -13.7747   30.2280 C   0  0  1  0  0  0  0  0  0  0  0  0
    9.0159   -6.6054   30.3251 N   0  0  0  0  0  0  0  0  0  0  0  0
    0.8355  -14.6511   29.7069 O   0  0  0  0  0  0  0  0  0  0  0  0
    2.4321   -9.0557   29.1289 C   0  0  2  0  0  0  0  0  0  0  0  0
    1.0361   -9.2059   29.5273 N   0  0  0  0  0  0  0  0  0  0  0  0
   10.6098   -5.4393   31.8519 C   0  0  0  0  0  0  0  0  0  0  0  0
   10.4004   -3.9814   31.3298 N   0  0  0  0  0  0  0  0  0  0  0  0
   10.4419   -6.5285   30.7516 C   0  0  0  0  0  0  0  0  0  0  0  0
    6.5217   -6.4215   26.6339 O   0  0  0  0  0  0  0  0  0  0  0  0
    2.8233  -14.5403   31.0918 C   0  0  2  0  0  0  0  0  0  0  0  0
    2.1707  -15.2192   32.1525 O   0  0  0  0  0  0  0  0  0  0  0  0
    3.3161   -9.6470   30.1983 C   0  0  2  0  0  0  0  0  0  0  0  0
    3.8925  -13.5597   31.6544 C   0  0  2  0  0  0  0  0  0  0  0  0
    4.5694  -12.8616   30.5886 O   0  0  0  0  0  0  0  0  0  0  0  0
    4.8450   -9.4828   29.7978 C   0  0  2  0  0  0  0  0  0  0  0  0
    5.6680  -10.0701   30.8499 O   0  0  0  0  0  0  0  0  0  0  0  0
    4.9091  -14.2596   32.4751 C   0  0  0  0  0  0  0  0  0  0  0  0
    5.7227  -14.9763   31.6688 N   0  0  0  0  0  0  0  0  0  0  0  0
    5.1662   -7.9559   29.6410 C   0  0  1  0  0  0  0  0  0  0  0  0
    6.5082   -7.7767   29.3171 O   0  0  0  0  0  0  0  0  0  0  0  0
  1  2  1  1  0  0  0
  1  5  1  0  0  0  0
  1 29  1  0  0  0  0
  3  4  1  1  0  0  0
  3  7  1  0  0  0  0
  3 34  1  0  0  0  0
  5  6  1  1  0  0  0
  5 16  1  0  0  0  0
  7 19  1  0  0  0  0
  8  4  1  0  0  0  0
  8 24  2  0  0  0  0
  9  8  1  6  0  0  0
  9 10  1  0  0  0  0
  9 13  1  0  0  0  0
 10 11  1  0  0  0  0
 11 12  1  0  0  0  0
 14 15  1  0  0  0  0
 14 35  1  0  0  0  0
 15 17  1  0  0  0  0
 16 18  1  6  0  0  0
 16 25  1  0  0  0  0
 19 20  1  1  0  0  0
 19 27  1  0  0  0  0
 21 22  1  0  0  0  0
 21 23  1  0  0  0  0
 23 17  1  0  0  0  0
 25 26  1  1  0  0  0
 25 28  1  0  0  0  0
 27  2  1  6  0  0  0
 27 30  1  0  0  0  0
 28 29  1  0  0  0  0
 28 32  1  6  0  0  0
 30 31  1  1  0  0  0
 30 34  1  0  0  0  0
 32 33  2  0  0  0  0
 34 35  1  6  0  0  0
M  END
>  <CHROM.1>
-135.14710114,-152.49112999,81.53978247,-170.78506292,-178.52839850,63.60353561
166.94117771,124.99967067,-68.67437171,141.58635634,96.64609343,72.64830365
-78.03955356,5.12650831,-8.93556777,29.67576595,2.10890610,0.43273897,2.72881503

>  <Name>
2f4t_lig

>  <RI>
0

>  <Rbt.Current_Directory>
/home/itssahil/PROJECTS/Mol_Feturizer/New_Systems/rnas/2f4t

>  <Rbt.Executable>
rbdock ($Id: //depot/dev/client3/rdock/2013.1/src/exe/rbdock.cxx#4 $)

>  <Rbt.Library>
libRbt.so (2013.1, Build901 2013/11/27)

>  <Rbt.Parameter_File>
/export/apps/rDock/src/rDock_2013.1_src/data/scripts/dock_solv.prm

>  <Rbt.Receptor>
prm/pocket_docking_5.prm

>  <SCORE>
-8.33235

>  <SCORE.INTER>
-8.24092

>  <SCORE.INTER.CONST>
1

>  <SCORE.INTER.POLAR>
-1.81595

>  <SCORE.INTER.ROT>
13

>  <SCORE.INTER.SOLV>
11.9656

>  <SCORE.INTER.VDW>
-15.696

>  <SCORE.INTER.norm>
-0.235455

>  <SCORE.INTRA>
-0.0918665

>  <SCORE.INTRA.DIHEDRAL>
-4.38642

>  <SCORE.INTRA.DIHEDRAL.0>
23.8882

>  <SCORE.INTRA.POLAR>
0

>  <SCORE.INTRA.POLAR.0>
0

>  <SCORE.INTRA.REPUL>
0.0320925

>  <SCORE.INTRA.REPUL.0>
0

>  <SCORE.INTRA.SOLV>
4.23027

>  <SCORE.INTRA.SOLV.lig_0>
-97.6888

>  <SCORE.INTRA.VDW>
-0.174258

>  <SCORE.INTRA.VDW.0>
-3.9206

>  <SCORE.INTRA.norm>
-0.00262476

>  <SCORE.RESTR>
0.000428921

>  <SCORE.RESTR.CAVITY>
0.000428921

>  <SCORE.RESTR.norm>
1.22549e-05

>  <SCORE.SYSTEM>
0

>  <SCORE.SYSTEM.CONST>
0

>  <SCORE.SYSTEM.DIHEDRAL>
0

>  <SCORE.SYSTEM.SOLV>
0

>  <SCORE.SYSTEM.norm>
0

>  <SCORE.heavy>
35

>  <SCORE.norm>
-0.238067

>  <RMSD>
8.101

$$$$
2f4t_lig
 OpenBabel11021811433D
libRbt.so/2013.1/901 2013/11/27
 35 36  0  0  0  0  0  0  0  0999 V2000
    2.0899  -11.3758   33.3172 C   0  0  2  0  0  0  0  0  0  0  0  0
    3.4134  -11.4846   32.6976 O   0  0  0  0  0  0  0  0  0  0  0  0
    6.0963   -8.4692   31.1592 C   0  0  2  0  0  0  0  0  0  0  0  0
    6.6759   -7.4676   30.2517 N   0  0  0  0  0  0  0  0  0  0  0  0
    1.7667  -12.7922   33.8820 C   0  0  2  0  0  0  0  0  0  0  0  0
    2.7996  -13.2252   34.7936 N   0  0  0  0  0  0  0  0  0  0  0  0
    5.8512   -9.8062   30.3680 C   0  0  0  0  0  0  0  0  0  0  0  0
    8.3958   -7.7995   30.0264 C   0  0  0  0  0  0  0  0  0  0  0  0
    8.3990   -6.5943   29.1123 C   0  0  1  0  0  0  0  0  0  0  0  0
    9.8589   -6.2406   28.8199 C   0  0  0  0  0  0  0  0  0  0  0  0
   10.0816   -4.9641   27.9917 C   0  0  0  0  0  0  0  0  0  0  0  0
   11.5231   -4.7880   27.7915 N   0  0  0  0  0  0  0  0  0  0  0  0
    7.8225   -6.9047   27.8707 O   0  0  0  0  0  0  0  0  0  0  0  0
    5.4726   -5.8948   33.4197 C   0  0  0  0  0  0  0  0  0  0  0  0
    4.8917   -4.5084   33.1879 C   0  0  0  0  0  0  0  0  0  0  0  0
    1.6027  -13.8150   32.7076 C   0  0  1  0  0  0  0  0  0  0  0  0
    5.3926   -3.4911   34.1381 N   0  0  0  0  0  0  0  0  0  0  0  0
    1.3040  -15.1072   33.1990 O   0  0  0  0  0  0  0  0  0  0  0  0
    5.2350  -10.8937   31.2589 C   0  0  2  0  0  0  0  0  0  0  0  0
    4.9796  -12.1098   30.4934 N   0  0  0  0  0  0  0  0  0  0  0  0
    3.7069   -2.9598   35.9009 C   0  0  0  0  0  0  0  0  0  0  0  0
    2.7295   -1.9116   36.5237 N   0  0  0  0  0  0  0  0  0  0  0  0
    4.4758   -2.4347   34.6526 C   0  0  0  0  0  0  0  0  0  0  0  0
    9.0714   -8.5375   30.3982 O   0  0  0  0  0  0  0  0  0  0  0  0
    0.4828  -13.3110   31.7914 C   0  0  2  0  0  0  0  0  0  0  0  0
    0.2728  -14.2022   30.7082 O   0  0  0  0  0  0  0  0  0  0  0  0
    3.9397  -10.4096   31.8613 C   0  0  2  0  0  0  0  0  0  0  0  0
    0.8296  -11.8894   31.2625 C   0  0  2  0  0  0  0  0  0  0  0  0
    1.0438  -10.9676   32.3516 O   0  0  0  0  0  0  0  0  0  0  0  0
    4.1853   -9.0754   32.6886 C   0  0  2  0  0  0  0  0  0  0  0  0
    2.9150   -8.6409   33.2602 O   0  0  0  0  0  0  0  0  0  0  0  0
   -0.2401  -11.3454   30.3926 C   0  0  0  0  0  0  0  0  0  0  0  0
   -1.2202  -10.8196   31.1598 N   0  0  0  0  0  0  0  0  0  0  0  0
    4.7539   -7.9782   31.7231 C   0  0  1  0  0  0  0  0  0  0  0  0
    4.9538   -6.7859   32.4133 O   0  0  0  0  0  0  0  0  0  0  0  0
  1  2  1  6  0  0  0
  1  5  1  0  0  0  0
  1 29  1  0  0  0  0
  3  4  1  6  0  0  0
  3  7  1  0  0  0  0
  3 34  1  0  0  0  0
  5  6  1  1  0  0  0
  5 16  1  0  0  0  0
  7 19  1  0  0  0  0
  8  4  1  0  0  0  0
  8 24  2  0  0  0  0
  9  8  1  1  0  0  0
  9 10  1  0  0  0  0
  9 13  1  0  0  0  0
 10 11  1  0  0  0  0
 11 12  1  0  0  0  0
 14 15  1  0  0  0  0
 14 35  1  0  0  0  0
 15 17  1  0  0  0  0
 16 18  1  1  0  0  0
 16 25  1  0  0  0  0
 19 20  1  6  0  0  0
 19 27  1  0  0  0  0
 21 22  1  0  0  0  0
 21 23  1  0  0  0  0
 23 17  1  0  0  0  0
 25 26  1  6  0  0  0
 25 28  1  0  0  0  0
 27  2  1  1  0  0  0
 27 30  1  0  0  0  0
 28 29  1  0  0  0  0
 28 32  1  6  0  0  0
 30 31  1  6  0  0  0
 30 34  1  0  0  0  0
 32 33  2  0  0  0  0
 34 35  1  1  0  0  0
M  END
>  <CHROM.1>
169.23107368,-78.15673834,168.29647498,-175.26298540,-179.22214952,-177.97515193
-178.92510322,-142.36484408,179.30459215,86.11118400,-173.72173568,81.86901227
-61.73306297,4.43808507,-8.83616964,31.81841131,2.49236041,-0.62805737,-2.67247571

>  <Name>
2f4t_lig

>  <RI>
0

>  <Rbt.Current_Directory>
/home/itssahil/PROJECTS/Mol_Feturizer/New_Systems/rnas/2f4t

>  <Rbt.Executable>
rbdock ($Id: //depot/dev/client3/rdock/2013.1/src/exe/rbdock.cxx#4 $)

>  <Rbt.Library>
libRbt.so (2013.1, Build901 2013/11/27)

>  <Rbt.Parameter_File>
/export/apps/rDock/src/rDock_2013.1_src/data/scripts/dock_solv.prm

>  <Rbt.Receptor>
prm/pocket_docking_8.prm

>  <SCORE>
-10.3363

>  <SCORE.INTER>
-0.928896

>  <SCORE.INTER.CONST>
1

>  <SCORE.INTER.POLAR>
-1.31251

>  <SCORE.INTER.ROT>
13

>  <SCORE.INTER.SOLV>
11.5016

>  <SCORE.INTER.VDW>
-12.3448

>  <SCORE.INTER.norm>
-0.0265399

>  <SCORE.INTRA>
-9.40744

>  <SCORE.INTRA.DIHEDRAL>
-18.8903

>  <SCORE.INTRA.DIHEDRAL.0>
23.8882

>  <SCORE.INTRA.POLAR>
0

>  <SCORE.INTRA.POLAR.0>
0

>  <SCORE.INTRA.REPUL>
0

>  <SCORE.INTRA.REPUL.0>
0

>  <SCORE.INTRA.SOLV>
-1.51861

>  <SCORE.INTRA.SOLV.lig_0>
-97.6888

>  <SCORE.INTRA.VDW>
0.797042

>  <SCORE.INTRA.VDW.0>
-3.9206

>  <SCORE.INTRA.norm>
-0.268784

>  <SCORE.RESTR>
0

>  <SCORE.RESTR.CAVITY>
0

>  <SCORE.RESTR.norm>
0

>  <SCORE.SYSTEM>
0

>  <SCORE.SYSTEM.CONST>
0

>  <SCORE.SYSTEM.DIHEDRAL>
0

>  <SCORE.SYSTEM.SOLV>
0

>  <SCORE.SYSTEM.norm>
0

>  <SCORE.heavy>
35

>  <SCORE.norm>
-0.295324

>  <RMSD>
8.113

$$$$
2f4t_lig
 OpenBabel11021811433D
libRbt.so/2013.1/901 2013/11/27
 35 36  0  0  0  0  0  0  0  0999 V2000
    3.6121  -12.3264   31.0449 C   0  0  2  0  0  0  0  0  0  0  0  0
    3.6028  -11.7303   29.7063 O   0  0  0  0  0  0  0  0  0  0  0  0
    4.9654   -7.9637   28.0897 C   0  0  2  0  0  0  0  0  0  0  0  0
    5.0463   -6.5180   27.8325 N   0  0  0  0  0  0  0  0  0  0  0  0
    3.5600  -13.8686   30.8245 C   0  0  2  0  0  0  0  0  0  0  0  0
    4.6561  -14.3014   29.9898 N   0  0  0  0  0  0  0  0  0  0  0  0
    3.4876   -8.4499   27.8589 C   0  0  0  0  0  0  0  0  0  0  0  0
    4.2906   -6.1511   26.2791 C   0  0  0  0  0  0  0  0  0  0  0  0
    4.6446   -4.7092   26.5689 C   0  0  1  0  0  0  0  0  0  0  0  0
    5.6279   -4.2495   25.4901 C   0  0  0  0  0  0  0  0  0  0  0  0
    7.0111   -4.9211   25.5202 C   0  0  0  0  0  0  0  0  0  0  0  0
    7.8474   -4.3046   24.4860 N   0  0  0  0  0  0  0  0  0  0  0  0
    3.5188   -3.8807   26.4412 O   0  0  0  0  0  0  0  0  0  0  0  0
    7.8865   -7.5823   30.4870 C   0  0  0  0  0  0  0  0  0  0  0  0
    8.9072   -6.9891   29.5281 C   0  0  0  0  0  0  0  0  0  0  0  0
    2.1880  -14.2750   30.1884 C   0  0  1  0  0  0  0  0  0  0  0  0
   10.2509   -6.8219   30.1241 N   0  0  0  0  0  0  0  0  0  0  0  0
    2.1183  -15.6728   29.9843 O   0  0  0  0  0  0  0  0  0  0  0  0
    3.3322   -9.9542   28.1222 C   0  0  2  0  0  0  0  0  0  0  0  0
    1.9459  -10.3731   27.9413 N   0  0  0  0  0  0  0  0  0  0  0  0
   10.3499   -4.3642   30.5500 C   0  0  0  0  0  0  0  0  0  0  0  0
   10.5592   -3.2073   31.5795 N   0  0  0  0  0  0  0  0  0  0  0  0
   10.4793   -5.7863   31.1714 C   0  0  0  0  0  0  0  0  0  0  0  0
    3.8146   -6.7329   25.5214 O   0  0  0  0  0  0  0  0  0  0  0  0
    1.0716  -13.8079   31.1282 C   0  0  2  0  0  0  0  0  0  0  0  0
   -0.2037  -14.1573   30.6152 O   0  0  0  0  0  0  0  0  0  0  0  0
    3.7696  -10.2910   29.5259 C   0  0  2  0  0  0  0  0  0  0  0  0
    1.1661  -12.2693   31.3404 C   0  0  2  0  0  0  0  0  0  0  0  0
    2.4569  -11.8953   31.8653 O   0  0  0  0  0  0  0  0  0  0  0  0
    5.2728   -9.8306   29.7566 C   0  0  2  0  0  0  0  0  0  0  0  0
    5.6624  -10.1770   31.1195 O   0  0  0  0  0  0  0  0  0  0  0  0
    0.1220  -11.7727   32.2679 C   0  0  0  0  0  0  0  0  0  0  0  0
    0.4672  -12.0765   33.5384 N   0  0  0  0  0  0  0  0  0  0  0  0
    5.3668   -8.2805   29.5387 C   0  0  1  0  0  0  0  0  0  0  0  0
    6.6687   -7.8407   29.7616 O   0  0  0  0  0  0  0  0  0  0  0  0
  1  2  1  6  0  0  0
  1  5  1  0  0  0  0
  1 29  1  0  0  0  0
  3  4  1  1  0  0  0
  3  7  1  0  0  0  0
  3 34  1  0  0  0  0
  5  6  1  6  0  0  0
  5 16  1  0  0  0  0
  7 19  1  0  0  0  0
  8  4  1  0  0  0  0
  8 24  2  0  0  0  0
  9  8  1  6  0  0  0
  9 10  1  0  0  0  0
  9 13  1  0  0  0  0
 10 11  1  0  0  0  0
 11 12  1  0  0  0  0
 14 15  1  0  0  0  0
 14 35  1  0  0  0  0
 15 17  1  0  0  0  0
 16 18  1  1  0  0  0
 16 25  1  0  0  0  0
 19 20  1  1  0  0  0
 19 27  1  0  0  0  0
 21 22  1  0  0  0  0
 21 23  1  0  0  0  0
 23 17  1  0  0  0  0
 25 26  1  6  0  0  0
 25 28  1  0  0  0  0
 27  2  1  6  0  0  0
 27 30  1  0  0  0  0
 28 29  1  0  0  0  0
 28 32  1  1  0  0  0
 30 31  1  1  0  0  0
 30 34  1  0  0  0  0
 32 33  2  0  0  0  0
 34 35  1  6  0  0  0
M  END
>  <CHROM.1>
-174.23062978,-49.53820422,116.80457309,-67.23593854,-176.27020261,-173.50154635
176.89120300,-70.16060679,179.38832913,-68.06287984,-164.33472946,76.56943005
178.44114184,4.72605740,-9.08072691,29.30908181,-2.28572721,-0.54207642,-0.75268615

>  <Name>
2f4t_lig

>  <RI>
0

>  <Rbt.Current_Directory>
/home/itssahil/PROJECTS/Mol_Feturizer/New_Systems/rnas/2f4t

>  <Rbt.Executable>
rbdock ($Id: //depot/dev/client3/rdock/2013.1/src/exe/rbdock.cxx#4 $)

>  <Rbt.Library>
libRbt.so (2013.1, Build901 2013/11/27)

>  <Rbt.Parameter_File>
/export/apps/rDock/src/rDock_2013.1_src/data/scripts/dock_solv.prm

>  <Rbt.Receptor>
prm/pocket_docking_6.prm

>  <SCORE>
-12.8843

>  <SCORE.INTER>
-5.04503

>  <SCORE.INTER.CONST>
1

>  <SCORE.INTER.POLAR>
-1.13098

>  <SCORE.INTER.ROT>
13

>  <SCORE.INTER.SOLV>
18.8071

>  <SCORE.INTER.VDW>
-18.1291

>  <SCORE.INTER.norm>
-0.144144

>  <SCORE.INTRA>
-7.83924

>  <SCORE.INTRA.DIHEDRAL>
-17.7276

>  <SCORE.INTRA.DIHEDRAL.0>
23.8882

>  <SCORE.INTRA.POLAR>
0

>  <SCORE.INTRA.POLAR.0>
0

>  <SCORE.INTRA.REPUL>
0

>  <SCORE.INTRA.REPUL.0>
0

>  <SCORE.INTRA.SOLV>
-1.02765

>  <SCORE.INTRA.SOLV.lig_0>
-97.6888

>  <SCORE.INTRA.VDW>
1.53841

>  <SCORE.INTRA.VDW.0>
-3.9206

>  <SCORE.INTRA.norm>
-0.223978

>  <SCORE.RESTR>
0

>  <SCORE.RESTR.CAVITY>
0

>  <SCORE.RESTR.norm>
0

>  <SCORE.SYSTEM>
0

>  <SCORE.SYSTEM.CONST>
0

>  <SCORE.SYSTEM.DIHEDRAL>
0

>  <SCORE.SYSTEM.SOLV>
0

>  <SCORE.SYSTEM.norm>
0

>  <SCORE.heavy>
35

>  <SCORE.norm>
-0.368122

>  <RMSD>
8.120

$$$$
2f4t_lig
 OpenBabel11021811433D
libRbt.so/2013.1/901 2013/11/27
 35 36  0  0  0  0  0  0  0  0999 V2000
    1.8574  -11.2929   29.9543 C   0  0  2  0  0  0  0  0  0  0  0  0
    2.5273  -10.4597   30.9564 O   0  0  0  0  0  0  0  0  0  0  0  0
    5.6445   -7.4928   30.5847 C   0  0  2  0  0  0  0  0  0  0  0  0
    6.9836   -6.9077   30.4203 N   0  0  0  0  0  0  0  0  0  0  0  0
    0.4931  -11.7043   30.5859 C   0  0  2  0  0  0  0  0  0  0  0  0
   -0.2645  -10.5358   30.9682 N   0  0  0  0  0  0  0  0  0  0  0  0
    5.6817   -8.5571   31.7421 C   0  0  0  0  0  0  0  0  0  0  0  0
    7.3920   -5.9556   31.8505 C   0  0  0  0  0  0  0  0  0  0  0  0
    8.7057   -5.6733   31.1556 C   0  0  1  0  0  0  0  0  0  0  0  0
    9.3750   -4.5089   31.8891 C   0  0  0  0  0  0  0  0  0  0  0  0
    8.6264   -3.1668   31.8306 C   0  0  0  0  0  0  0  0  0  0  0  0
    8.5318   -2.7505   30.4281 N   0  0  0  0  0  0  0  0  0  0  0  0
    9.5833   -6.7616   31.2802 O   0  0  0  0  0  0  0  0  0  0  0  0
    5.6645   -6.2465   27.3565 C   0  0  0  0  0  0  0  0  0  0  0  0
    4.6002   -5.9670   26.3065 C   0  0  0  0  0  0  0  0  0  0  0  0
    0.7317  -12.6360   31.8218 C   0  0  1  0  0  0  0  0  0  0  0  0
    3.4578   -5.1783   26.8180 N   0  0  0  0  0  0  0  0  0  0  0  0
   -0.4955  -13.0251   32.4074 O   0  0  0  0  0  0  0  0  0  0  0  0
    4.3120   -9.2155   31.9584 C   0  0  2  0  0  0  0  0  0  0  0  0
    4.3814  -10.2269   33.0084 N   0  0  0  0  0  0  0  0  0  0  0  0
    1.6135   -3.5374   26.4474 C   0  0  0  0  0  0  0  0  0  0  0  0
    0.8947   -3.7650   27.8161 N   0  0  0  0  0  0  0  0  0  0  0  0
    2.3417   -4.8024   25.9045 C   0  0  0  0  0  0  0  0  0  0  0  0
    6.8911   -5.7230   32.7638 O   0  0  0  0  0  0  0  0  0  0  0  0
    1.5190  -13.8620   31.3476 C   0  0  2  0  0  0  0  0  0  0  0  0
    1.7595  -14.7576   32.4208 O   0  0  0  0  0  0  0  0  0  0  0  0
    3.8309   -9.8614   30.6831 C   0  0  2  0  0  0  0  0  0  0  0  0
    2.8638  -13.4131   30.7063 C   0  0  2  0  0  0  0  0  0  0  0  0
    2.6385  -12.5031   29.6096 O   0  0  0  0  0  0  0  0  0  0  0  0
    3.7609   -8.7849   29.5164 C   0  0  2  0  0  0  0  0  0  0  0  0
    3.2872   -9.4426   28.3032 O   0  0  0  0  0  0  0  0  0  0  0  0
    3.6502  -14.5650   30.2045 C   0  0  0  0  0  0  0  0  0  0  0  0
    4.7706  -14.1149   29.5980 N   0  0  0  0  0  0  0  0  0  0  0  0
    5.1937   -8.1886   29.2909 C   0  0  1  0  0  0  0  0  0  0  0  0
    5.1715   -7.2605   28.2536 O   0  0  0  0  0  0  0  0  0  0  0  0
  1  2  1  1  0  0  0
  1  5  1  0  0  0  0
  1 29  1  0  0  0  0
  3  4  1  6  0  0  0
  3  7  1  0  0  0  0
  3 34  1  0  0  0  0
  5  6  1  1  0  0  0
  5 16  1  0  0  0  0
  7 19  1  0  0  0  0
  8  4  1  0  0  0  0
  8 24  2  0  0  0  0
  9  8  1  1  0  0  0
  9 10  1  0  0  0  0
  9 13  1  0  0  0  0
 10 11  1  0  0  0  0
 11 12  1  0  0  0  0
 14 15  1  0  0  0  0
 14 35  1  0  0  0  0
 15 17  1  0  0  0  0
 16 18  1  6  0  0  0
 16 25  1  0  0  0  0
 19 20  1  1  0  0  0
 19 27  1  0  0  0  0
 21 22  1  0  0  0  0
 21 23  1  0  0  0  0
 23 17  1  0  0  0  0
 25 26  1  1  0  0  0
 25 28  1  0  0  0  0
 27  2  1  1  0  0  0
 27 30  1  0  0  0  0
 28 29  1  0  0  0  0
 28 32  1  6  0  0  0
 30 31  1  6  0  0  0
 30 34  1  0  0  0  0
 32 33  2  0  0  0  0
 34 35  1  6  0  0  0
M  END
>  <CHROM.1>
-178.27511737,-67.04071084,165.52083760,-64.28706885,-61.55824495,74.50049033
173.48999740,178.99727613,-64.81029022,-156.07486937,-173.25792252,176.83712712
55.20846733,4.22184627,-8.66014035,30.17677279,2.22767489,0.53845953,2.61820640

>  <Name>
2f4t_lig

>  <RI>
0

>  <Rbt.Current_Directory>
/home/itssahil/PROJECTS/Mol_Feturizer/New_Systems/rnas/2f4t

>  <Rbt.Executable>
rbdock ($Id: //depot/dev/client3/rdock/2013.1/src/exe/rbdock.cxx#4 $)

>  <Rbt.Library>
libRbt.so (2013.1, Build901 2013/11/27)

>  <Rbt.Parameter_File>
/export/apps/rDock/src/rDock_2013.1_src/data/scripts/dock_solv.prm

>  <Rbt.Receptor>
prm/pocket_docking_4.prm

>  <SCORE>
-13.7168

>  <SCORE.INTER>
-5.22862

>  <SCORE.INTER.CONST>
1

>  <SCORE.INTER.POLAR>
-1.71652

>  <SCORE.INTER.ROT>
13

>  <SCORE.INTER.SOLV>
8.0582

>  <SCORE.INTER.VDW>
-12.7168

>  <SCORE.INTER.norm>
-0.149389

>  <SCORE.INTRA>
-8.50593

>  <SCORE.INTRA.DIHEDRAL>
-19.0706

>  <SCORE.INTRA.DIHEDRAL.0>
23.8882

>  <SCORE.INTRA.POLAR>
0

>  <SCORE.INTRA.POLAR.0>
0

>  <SCORE.INTRA.REPUL>
0

>  <SCORE.INTRA.REPUL.0>
0

>  <SCORE.INTRA.SOLV>
1.31801

>  <SCORE.INTRA.SOLV.lig_0>
-97.6888

>  <SCORE.INTRA.VDW>
0.370367

>  <SCORE.INTRA.VDW.0>
-3.9206

>  <SCORE.INTRA.norm>
-0.243027

>  <SCORE.RESTR>
0.0177585

>  <SCORE.RESTR.CAVITY>
0.0177585

>  <SCORE.RESTR.norm>
0.000507385

>  <SCORE.SYSTEM>
0

>  <SCORE.SYSTEM.CONST>
0

>  <SCORE.SYSTEM.DIHEDRAL>
0

>  <SCORE.SYSTEM.SOLV>
0

>  <SCORE.SYSTEM.norm>
0

>  <SCORE.heavy>
35

>  <SCORE.norm>
-0.391908

>  <RMSD>
8.127

$$$$
2f4t_lig
 OpenBabel11021811433D
libRbt.so/2013.1/901 2013/11/27
 35 36  0  0  0  0  0  0  0  0999 V2000
    4.4210  -11.8218   31.4936 C   0  0  2  0  0  0  0  0  0  0  0  0
    4.0841  -11.6156   30.0825 O   0  0  0  0  0  0  0  0  0  0  0  0
    3.9677   -8.0828   27.6000 C   0  0  2  0  0  0  0  0  0  0  0  0
    3.5099   -6.8044   27.0354 N   0  0  0  0  0  0  0  0  0  0  0  0
    4.1758  -13.3356   31.7729 C   0  0  2  0  0  0  0  0  0  0  0  0
    4.9488  -14.1527   30.8672 N   0  0  0  0  0  0  0  0  0  0  0  0
    2.7760   -9.1092   27.5937 C   0  0  0  0  0  0  0  0  0  0  0  0
    4.8726   -5.9681   26.2853 C   0  0  0  0  0  0  0  0  0  0  0  0
    3.8764   -4.8851   25.9345 C   0  0  1  0  0  0  0  0  0  0  0  0
    4.6645   -3.5987   25.6779 C   0  0  0  0  0  0  0  0  0  0  0  0
    5.3562   -2.9853   26.9070 C   0  0  0  0  0  0  0  0  0  0  0  0
    4.3222   -2.4967   27.8241 N   0  0  0  0  0  0  0  0  0  0  0  0
    3.2185   -5.1797   24.7301 O   0  0  0  0  0  0  0  0  0  0  0  0
    6.5130   -6.1252   29.6278 C   0  0  0  0  0  0  0  0  0  0  0  0
    5.8517   -5.1221   30.5606 C   0  0  0  0  0  0  0  0  0  0  0  0
    2.6500  -13.6654   31.6482 C   0  0  1  0  0  0  0  0  0  0  0  0
    6.8020   -4.4448   31.4699 N   0  0  0  0  0  0  0  0  0  0  0  0
    2.4051  -15.0349   31.9029 O   0  0  0  0  0  0  0  0  0  0  0  0
    3.1864  -10.4662   28.1826 C   0  0  2  0  0  0  0  0  0  0  0  0
    2.0545  -11.3874   28.2034 N   0  0  0  0  0  0  0  0  0  0  0  0
    7.2621   -4.4866   33.9231 C   0  0  0  0  0  0  0  0  0  0  0  0
    7.2701   -6.0456   34.0306 N   0  0  0  0  0  0  0  0  0  0  0  0
    6.3383   -3.9416   32.7940 C   0  0  0  0  0  0  0  0  0  0  0  0
    5.9110   -6.1844   26.1667 O   0  0  0  0  0  0  0  0  0  0  0  0
    1.8904  -12.7841   32.6452 C   0  0  2  0  0  0  0  0  0  0  0  0
    0.4968  -13.0427   32.5927 O   0  0  0  0  0  0  0  0  0  0  0  0
    3.7079  -10.2945   29.5874 C   0  0  2  0  0  0  0  0  0  0  0  0
    2.1734  -11.2830   32.3491 C   0  0  2  0  0  0  0  0  0  0  0  0
    3.5873  -11.0005   32.4012 O   0  0  0  0  0  0  0  0  0  0  0  0
    4.9327   -9.2823   29.5971 C   0  0  2  0  0  0  0  0  0  0  0  0
    5.4137   -9.1459   30.9679 O   0  0  0  0  0  0  0  0  0  0  0  0
    1.4819  -10.3891   33.3080 C   0  0  0  0  0  0  0  0  0  0  0  0
    2.1151  -10.4325   34.5008 N   0  0  0  0  0  0  0  0  0  0  0  0
    4.4482   -7.8958   29.0475 C   0  0  1  0  0  0  0  0  0  0  0  0
    5.4935   -6.9768   29.0696 O   0  0  0  0  0  0  0  0  0  0  0  0
  1  2  1  6  0  0  0
  1  5  1  0  0  0  0
  1 29  1  0  0  0  0
  3  4  1  1  0  0  0
  3  7  1  0  0  0  0
  3 34  1  0  0  0  0
  5  6  1  6  0  0  0
  5 16  1  0  0  0  0
  7 19  1  0  0  0  0
  8  4  1  0  0  0  0
  8 24  2  0  0  0  0
  9  8  1  6  0  0  0
  9 10  1  0  0  0  0
  9 13  1  0  0  0  0
 10 11  1  0  0  0  0
 11 12  1  0  0  0  0
 14 15  1  0  0  0  0
 14 35  1  0  0  0  0
 15 17  1  0  0  0  0
 16 18  1  1  0  0  0
 16 25  1  0  0  0  0
 19 20  1  1  0  0  0
 19 27  1  0  0  0  0
 21 22  1  0  0  0  0
 21 23  1  0  0  0  0
 23 17  1  0  0  0  0
 25 26  1  6  0  0  0
 25 28  1  0  0  0  0
 27  2  1  6  0  0  0
 27 30  1  0  0  0  0
 28 29  1  0  0  0  0
 28 32  1  1  0  0  0
 30 31  1  1  0  0  0
 30 34  1  0  0  0  0
 32 33  2  0  0  0  0
 34 35  1  6  0  0  0
M  END
>  <CHROM.1>
156.77643630,-151.47308144,159.00980852,-67.66546924,-67.70332831,164.11514121
-59.79388272,-152.31247878,-61.20872934,127.52043087,-169.85151286,74.18609025
176.56592656,4.18122573,-8.56191898,29.95408094,-2.17736123,-1.09380820,-1.01461919

>  <Name>
2f4t_lig

>  <RI>
0

>  <Rbt.Current_Directory>
/home/itssahil/PROJECTS/Mol_Feturizer/New_Systems/rnas/2f4t

>  <Rbt.Executable>
rbdock ($Id: //depot/dev/client3/rdock/2013.1/src/exe/rbdock.cxx#4 $)

>  <Rbt.Library>
libRbt.so (2013.1, Build901 2013/11/27)

>  <Rbt.Parameter_File>
/export/apps/rDock/src/rDock_2013.1_src/data/scripts/dock_solv.prm

>  <Rbt.Receptor>
prm/pocket_docking_3.prm

>  <SCORE>
-11.0234

>  <SCORE.INTER>
-4.4737

>  <SCORE.INTER.CONST>
1

>  <SCORE.INTER.POLAR>
-2.11597

>  <SCORE.INTER.ROT>
13

>  <SCORE.INTER.SOLV>
16.8345

>  <SCORE.INTER.VDW>
-13.8074

>  <SCORE.INTER.norm>
-0.12782

>  <SCORE.INTRA>
-6.57986

>  <SCORE.INTRA.DIHEDRAL>
-14.3866

>  <SCORE.INTRA.DIHEDRAL.0>
23.8882

>  <SCORE.INTRA.POLAR>
0

>  <SCORE.INTRA.POLAR.0>
0

>  <SCORE.INTRA.REPUL>
0

>  <SCORE.INTRA.REPUL.0>
0

>  <SCORE.INTRA.SOLV>
3.12756

>  <SCORE.INTRA.SOLV.lig_0>
-97.6888

>  <SCORE.INTRA.VDW>
-0.950315

>  <SCORE.INTRA.VDW.0>
-3.9206

>  <SCORE.INTRA.norm>
-0.187996

>  <SCORE.RESTR>
0.030202

>  <SCORE.RESTR.CAVITY>
0.030202

>  <SCORE.RESTR.norm>
0.000862913

>  <SCORE.SYSTEM>
0

>  <SCORE.SYSTEM.CONST>
0

>  <SCORE.SYSTEM.DIHEDRAL>
0

>  <SCORE.SYSTEM.SOLV>
0

>  <SCORE.SYSTEM.norm>
0

>  <SCORE.heavy>
35

>  <SCORE.norm>
-0.314953

>  <RMSD>
8.134

$$$$
2f4t_lig
 OpenBabel11021811433D
libRbt.so/2013.1/901 2013/11/27
 35 36  0  0  0  0  0  0  0  0999 V2000
    2.9909  -12.3375   29.9871 C   0  0  2  0  0  0  0  0  0  0  0  0
    1.7955  -11.4996   30.1137 O   0  0  0  0  0  0  0  0  0  0  0  0
    2.9727   -7.8251   28.1722 C   0  0  2  0  0  0  0  0  0  0  0  0
    2.8852   -6.5965   27.3686 N   0  0  0  0  0  0  0  0  0  0  0  0
    2.8721  -13.4200   31.1022 C   0  0  2  0  0  0  0  0  0  0  0  0
    1.6344  -14.1525   30.9715 N   0  0  0  0  0  0  0  0  0  0  0  0
    2.4151   -9.0338   27.3346 C   0  0  0  0  0  0  0  0  0  0  0  0
    4.4606   -6.2462   26.6514 C   0  0  0  0  0  0  0  0  0  0  0  0
    3.7897   -5.0417   26.0292 C   0  0  1  0  0  0  0  0  0  0  0  0
    4.8717   -3.9891   25.7780 C   0  0  0  0  0  0  0  0  0  0  0  0
    5.2941   -3.1628   27.0044 C   0  0  0  0  0  0  0  0  0  0  0  0
    4.1587   -2.3316   27.4156 N   0  0  0  0  0  0  0  0  0  0  0  0
    3.2607   -5.3577   24.7680 O   0  0  0  0  0  0  0  0  0  0  0  0
    2.9778   -5.2535   30.5004 C   0  0  0  0  0  0  0  0  0  0  0  0
    4.0714   -4.8192   29.5367 C   0  0  0  0  0  0  0  0  0  0  0  0
    2.9707  -12.7505   32.5145 C   0  0  1  0  0  0  0  0  0  0  0  0
    5.4237   -5.2663   29.9367 N   0  0  0  0  0  0  0  0  0  0  0  0
    2.8697  -13.7174   33.5418 O   0  0  0  0  0  0  0  0  0  0  0  0
    2.4685  -10.3497   28.1233 C   0  0  2  0  0  0  0  0  0  0  0  0
    1.9089  -11.4476   27.3412 N   0  0  0  0  0  0  0  0  0  0  0  0
    7.1636   -6.9532   30.5356 C   0  0  0  0  0  0  0  0  0  0  0  0
    8.3274   -6.0842   29.9591 N   0  0  0  0  0  0  0  0  0  0  0  0
    5.7933   -6.7068   29.8378 C   0  0  0  0  0  0  0  0  0  0  0  0
    5.4188   -6.7152   26.6824 O   0  0  0  0  0  0  0  0  0  0  0  0
    4.3094  -12.0097   32.5967 C   0  0  2  0  0  0  0  0  0  0  0  0
    4.4690  -11.3879   33.8615 O   0  0  0  0  0  0  0  0  0  0  0  0
    1.6986  -10.2217   29.4140 C   0  0  2  0  0  0  0  0  0  0  0  0
    4.4012  -10.9523   31.4589 C   0  0  2  0  0  0  0  0  0  0  0  0
    4.2439  -11.5677   30.1635 O   0  0  0  0  0  0  0  0  0  0  0  0
    2.2770   -9.0215   30.2800 C   0  0  2  0  0  0  0  0  0  0  0  0
    1.5138   -8.9318   31.5204 O   0  0  0  0  0  0  0  0  0  0  0  0
    5.6940  -10.2277   31.4788 C   0  0  0  0  0  0  0  0  0  0  0  0
    5.5135   -8.9999   32.0133 N   0  0  0  0  0  0  0  0  0  0  0  0
    2.1420   -7.6928   29.4581 C   0  0  1  0  0  0  0  0  0  0  0  0
    2.6152   -6.6158   30.2022 O   0  0  0  0  0  0  0  0  0  0  0  0
  1  2  1  1  0  0  0
  1  5  1  0  0  0  0
  1 29  1  0  0  0  0
  3  4  1  6  0  0  0
  3  7  1  0  0  0  0
  3 34  1  0  0  0  0
  5  6  1  1  0  0  0
  5 16  1  0  0  0  0
  7 19  1  0  0  0  0
  8  4  1  0  0  0  0
  8 24  2  0  0  0  0
  9  8  1  6  0  0  0
  9 10  1  0  0  0  0
  9 13  1  0  0  0  0
 10 11  1  0  0  0  0
 11 12  1  0  0  0  0
 14 15  1  0  0  0  0
 14 35  1  0  0  0  0
 15 17  1  0  0  0  0
 16 18  1  1  0  0  0
 16 25  1  0  0  0  0
 19 20  1  6  0  0  0
 19 27  1  0  0  0  0
 21 22  1  0  0  0  0
 21 23  1  0  0  0  0
 23 17  1  0  0  0  0
 25 26  1  1  0  0  0
 25 28  1  0  0  0  0
 27  2  1  1  0  0  0
 27 30  1  0  0  0  0
 28 29  1  0  0  0  0
 28 32  1  6  0  0  0
 30 31  1  1  0  0  0
 30 34  1  0  0  0  0
 32 33  2  0  0  0  0
 34 35  1  1  0  0  0
M  END
>  <CHROM.1>
167.30060611,-99.19011925,154.04531649,-79.77865998,-66.55422643,-81.55625463
-61.28199548,71.19667230,-57.24929075,-170.46108846,32.00819892,-102.94240378
57.80801435,3.75683069,-8.53380083,29.55047918,1.81735006,0.80052780,2.44351860

>  <Name>
2f4t_lig

>  <RI>
0

>  <Rbt.Current_Directory>
/home/itssahil/PROJECTS/Mol_Feturizer/New_Systems/rnas/2f4t

>  <Rbt.Executable>
rbdock ($Id: //depot/dev/client3/rdock/2013.1/src/exe/rbdock.cxx#4 $)

>  <Rbt.Library>
libRbt.so (2013.1, Build901 2013/11/27)

>  <Rbt.Parameter_File>
/export/apps/rDock/src/rDock_2013.1_src/data/scripts/dock_solv.prm

>  <Rbt.Receptor>
prm/pocket_docking_3.prm

>  <SCORE>
-4.31249

>  <SCORE.INTER>
0.394222

>  <SCORE.INTER.CONST>
1

>  <SCORE.INTER.POLAR>
-1.41022

>  <SCORE.INTER.ROT>
13

>  <SCORE.INTER.SOLV>
12.8798

>  <SCORE.INTER.VDW>
-11.5964

>  <SCORE.INTER.norm>
0.0112635

>  <SCORE.INTRA>
-5.22239

>  <SCORE.INTRA.DIHEDRAL>
-13.3798

>  <SCORE.INTRA.DIHEDRAL.0>
23.8882

>  <SCORE.INTRA.POLAR>
0

>  <SCORE.INTRA.POLAR.0>
0

>  <SCORE.INTRA.REPUL>
0

>  <SCORE.INTRA.REPUL.0>
0

>  <SCORE.INTRA.SOLV>
7.13371

>  <SCORE.INTRA.SOLV.lig_0>
-97.6888

>  <SCORE.INTRA.VDW>
-2.09935

>  <SCORE.INTRA.VDW.0>
-3.9206

>  <SCORE.INTRA.norm>
-0.149211

>  <SCORE.RESTR>
0.515675

>  <SCORE.RESTR.CAVITY>
0.515675

>  <SCORE.RESTR.norm>
0.0147336

>  <SCORE.SYSTEM>
0

>  <SCORE.SYSTEM.CONST>
0

>  <SCORE.SYSTEM.DIHEDRAL>
0

>  <SCORE.SYSTEM.SOLV>
0

>  <SCORE.SYSTEM.norm>
0

>  <SCORE.heavy>
35

>  <SCORE.norm>
-0.123214

>  <RMSD>
8.150

$$$$
2f4t_lig
 OpenBabel11021811433D
libRbt.so/2013.1/901 2013/11/27
 35 36  0  0  0  0  0  0  0  0999 V2000
    4.2756   -7.6075   34.0850 C   0  0  2  0  0  0  0  0  0  0  0  0
    3.9793   -8.2228   32.7885 O   0  0  0  0  0  0  0  0  0  0  0  0
    3.9398  -12.3090   31.3889 C   0  0  2  0  0  0  0  0  0  0  0  0
    4.4274  -13.6325   30.9727 N   0  0  0  0  0  0  0  0  0  0  0  0
    3.6312   -6.1889   34.0400 C   0  0  2  0  0  0  0  0  0  0  0  0
    2.2192   -6.2795   33.7507 N   0  0  0  0  0  0  0  0  0  0  0  0
    4.7205  -11.1961   30.5981 C   0  0  0  0  0  0  0  0  0  0  0  0
    3.4515  -14.2248   29.6252 C   0  0  0  0  0  0  0  0  0  0  0  0
    4.3439  -15.4458   29.6556 C   0  0  1  0  0  0  0  0  0  0  0  0
    3.7258  -16.4449   30.6363 C   0  0  0  0  0  0  0  0  0  0  0  0
    4.5951  -17.6666   30.9783 C   0  0  0  0  0  0  0  0  0  0  0  0
    3.8536  -18.5138   31.9172 N   0  0  0  0  0  0  0  0  0  0  0  0
    4.3565  -16.0892   28.4081 O   0  0  0  0  0  0  0  0  0  0  0  0
    3.1483  -14.4099   34.0499 C   0  0  0  0  0  0  0  0  0  0  0  0
    2.0195  -14.3038   35.0638 C   0  0  0  0  0  0  0  0  0  0  0  0
    4.3573   -5.3018   32.9732 C   0  0  1  0  0  0  0  0  0  0  0  0
    1.5933  -15.6098   35.6128 N   0  0  0  0  0  0  0  0  0  0  0  0
    3.7902   -4.0072   32.9198 O   0  0  0  0  0  0  0  0  0  0  0  0
    4.2647   -9.7851   30.9955 C   0  0  2  0  0  0  0  0  0  0  0  0
    5.0309   -8.7703   30.2791 N   0  0  0  0  0  0  0  0  0  0  0  0
    1.1201  -15.9571   38.0391 C   0  0  0  0  0  0  0  0  0  0  0  0
    2.0805  -14.8336   38.5465 N   0  0  0  0  0  0  0  0  0  0  0  0
    0.5102  -15.6722   36.6348 C   0  0  0  0  0  0  0  0  0  0  0  0
    2.6177  -13.8428   29.0792 O   0  0  0  0  0  0  0  0  0  0  0  0
    5.8415   -5.2285   33.3469 C   0  0  2  0  0  0  0  0  0  0  0  0
    6.5588   -4.4255   32.4236 O   0  0  0  0  0  0  0  0  0  0  0  0
    4.4352   -9.5751   32.4794 C   0  0  2  0  0  0  0  0  0  0  0  0
    6.4460   -6.6612   33.4011 C   0  0  2  0  0  0  0  0  0  0  0  0
    5.7302   -7.4923   34.3385 O   0  0  0  0  0  0  0  0  0  0  0  0
    3.6234  -10.6777   33.2856 C   0  0  2  0  0  0  0  0  0  0  0  0
    3.8064  -10.4400   34.7135 O   0  0  0  0  0  0  0  0  0  0  0  0
    7.8767   -6.6447   33.7882 C   0  0  0  0  0  0  0  0  0  0  0  0
    8.0011   -6.1265   35.0298 N   0  0  0  0  0  0  0  0  0  0  0  0
    4.1678  -12.0951   32.8934 C   0  0  1  0  0  0  0  0  0  0  0  0
    3.4945  -13.0838   33.6054 O   0  0  0  0  0  0  0  0  0  0  0  0
  1  2  1  6  0  0  0
  1  5  1  0  0  0  0
  1 29  1  0  0  0  0
  3  4  1  6  0  0  0
  3  7  1  0  0  0  0
  3 34  1  0  0  0  0
  5  6  1  6  0  0  0
  5 16  1  0  0  0  0
  7 19  1  0  0  0  0
  8  4  1  0  0  0  0
  8 24  2  0  0  0  0
  9  8  1  6  0  0  0
  9 10  1  0  0  0  0
  9 13  1  0  0  0  0
 10 11  1  0  0  0  0
 11 12  1  0  0  0  0
 14 15  1  0  0  0  0
 14 35  1  0  0  0  0
 15 17  1  0  0  0  0
 16 18  1  1  0  0  0
 16 25  1  0  0  0  0
 19 20  1  6  0  0  0
 19 27  1  0  0  0  0
 21 22  1  0  0  0  0
 21 23  1  0  0  0  0
 23 17  1  0  0  0  0
 25 26  1  6  0  0  0
 25 28  1  0  0  0  0
 27  2  1  1  0  0  0
 27 30  1  0  0  0  0
 28 29  1  0  0  0  0
 28 32  1  1  0  0  0
 30 31  1  1  0  0  0
 30 34  1  0  0  0  0
 32 33  2  0  0  0  0
 34 35  1  1  0  0  0
M  END
>  <CHROM.1>
-179.83251226,-91.13294290,88.45887504,-170.87060427,-179.76603330,-178.94244524
-179.68299421,179.05295927,62.95164651,-105.12727669,-166.84752602,62.05188970
61.52959834,4.05071458,-11.10223453,32.92252298,0.94618185,1.17286720,0.64667459

>  <Name>
2f4t_lig

>  <RI>
0

>  <Rbt.Current_Directory>
/home/itssahil/PROJECTS/Mol_Feturizer/New_Systems/rnas/2f4t

>  <Rbt.Executable>
rbdock ($Id: //depot/dev/client3/rdock/2013.1/src/exe/rbdock.cxx#4 $)

>  <Rbt.Library>
libRbt.so (2013.1, Build901 2013/11/27)

>  <Rbt.Parameter_File>
/export/apps/rDock/src/rDock_2013.1_src/data/scripts/dock_solv.prm

>  <Rbt.Receptor>
prm/pocket_docking_7.prm

>  <SCORE>
-14.3342

>  <SCORE.INTER>
-5.50228

>  <SCORE.INTER.CONST>
1

>  <SCORE.INTER.POLAR>
-0.892865

>  <SCORE.INTER.ROT>
13

>  <SCORE.INTER.SOLV>
6.97796

>  <SCORE.INTER.VDW>
-15.2846

>  <SCORE.INTER.norm>
-0.157208

>  <SCORE.INTRA>
-8.83192

>  <SCORE.INTRA.DIHEDRAL>
-17.6318

>  <SCORE.INTRA.DIHEDRAL.0>
23.8882

>  <SCORE.INTRA.POLAR>
0

>  <SCORE.INTRA.POLAR.0>
0

>  <SCORE.INTRA.REPUL>
0

>  <SCORE.INTRA.REPUL.0>
0

>  <SCORE.INTRA.SOLV>
0.448683

>  <SCORE.INTRA.SOLV.lig_0>
-97.6888

>  <SCORE.INTRA.VDW>
-0.240366

>  <SCORE.INTRA.VDW.0>
-3.9206

>  <SCORE.INTRA.norm>
-0.252341

>  <SCORE.RESTR>
0

>  <SCORE.RESTR.CAVITY>
0

>  <SCORE.RESTR.norm>
0

>  <SCORE.SYSTEM>
0

>  <SCORE.SYSTEM.CONST>
0

>  <SCORE.SYSTEM.DIHEDRAL>
0

>  <SCORE.SYSTEM.SOLV>
0

>  <SCORE.SYSTEM.norm>
0

>  <SCORE.heavy>
35

>  <SCORE.norm>
-0.409549

>  <RMSD>
8.174

$$$$
2f4t_lig
 OpenBabel11021811433D
libRbt.so/2013.1/901 2013/11/27
 35 36  0  0  0  0  0  0  0  0999 V2000
   -1.7236   -5.8132   22.4557 C   0  0  2  0  0  0  0  0  0  0  0  0
   -0.3799   -5.3069   22.7476 O   0  0  0  0  0  0  0  0  0  0  0  0
    1.4150   -3.4185   26.1929 C   0  0  2  0  0  0  0  0  0  0  0  0
    1.7535   -3.1387   27.5964 N   0  0  0  0  0  0  0  0  0  0  0  0
   -1.5410   -6.8867   21.3404 C   0  0  2  0  0  0  0  0  0  0  0  0
   -0.6156   -7.9107   21.7653 N   0  0  0  0  0  0  0  0  0  0  0  0
   -0.1486   -3.4946   26.0414 C   0  0  0  0  0  0  0  0  0  0  0  0
    1.6844   -1.3978   27.8850 C   0  0  0  0  0  0  0  0  0  0  0  0
    2.0682   -1.7273   29.3106 C   0  0  1  0  0  0  0  0  0  0  0  0
    3.0749   -0.6717   29.7734 C   0  0  0  0  0  0  0  0  0  0  0  0
    4.4745   -0.7649   29.1428 C   0  0  0  0  0  0  0  0  0  0  0  0
    4.3749   -0.3693   27.7347 N   0  0  0  0  0  0  0  0  0  0  0  0
    0.9635   -1.6071   30.1682 O   0  0  0  0  0  0  0  0  0  0  0  0
    4.6729   -4.5798   26.5560 C   0  0  0  0  0  0  0  0  0  0  0  0
    5.7351   -5.2758   25.7189 C   0  0  0  0  0  0  0  0  0  0  0  0
   -1.0459   -6.2097   20.0180 C   0  0  1  0  0  0  0  0  0  0  0  0
    6.9509   -5.6313   26.4832 N   0  0  0  0  0  0  0  0  0  0  0  0
   -0.8783   -7.1671   18.9905 O   0  0  0  0  0  0  0  0  0  0  0  0
   -0.5697   -3.7959   24.5963 C   0  0  2  0  0  0  0  0  0  0  0  0
   -2.0214   -3.9017   24.4893 N   0  0  0  0  0  0  0  0  0  0  0  0
    9.3867   -5.5577   27.0246 C   0  0  0  0  0  0  0  0  0  0  0  0
    9.2232   -5.6032   28.5781 N   0  0  0  0  0  0  0  0  0  0  0  0
    8.2073   -4.8528   26.2914 C   0  0  0  0  0  0  0  0  0  0  0  0
    1.4638   -0.5463   27.2805 O   0  0  0  0  0  0  0  0  0  0  0  0
   -2.0772   -5.1521   19.6107 C   0  0  2  0  0  0  0  0  0  0  0  0
   -1.6942   -4.5061   18.4074 O   0  0  0  0  0  0  0  0  0  0  0  0
    0.0546   -5.0851   24.1239 C   0  0  2  0  0  0  0  0  0  0  0  0
   -2.2476   -4.1099   20.7534 C   0  0  2  0  0  0  0  0  0  0  0  0
   -2.6404   -4.7492   21.9857 O   0  0  0  0  0  0  0  0  0  0  0  0
    1.6369   -5.0041   24.2447 C   0  0  2  0  0  0  0  0  0  0  0  0
    2.2053   -6.2630   23.7745 O   0  0  0  0  0  0  0  0  0  0  0  0
   -3.2592   -3.0798   20.4175 C   0  0  0  0  0  0  0  0  0  0  0  0
   -2.7222   -1.8510   20.5830 N   0  0  0  0  0  0  0  0  0  0  0  0
    2.0183   -4.7593   25.7460 C   0  0  1  0  0  0  0  0  0  0  0  0
    3.4020   -4.7113   25.8899 O   0  0  0  0  0  0  0  0  0  0  0  0
  1  2  1  6  0  0  0
  1  5  1  0  0  0  0
  1 29  1  0  0  0  0
  3  4  1  1  0  0  0
  3  7  1  0  0  0  0
  3 34  1  0  0  0  0
  5  6  1  1  0  0  0
  5 16  1  0  0  0  0
  7 19  1  0  0  0  0
  8  4  1  0  0  0  0
  8 24  2  0  0  0  0
  9  8  1  6  0  0  0
  9 10  1  0  0  0  0
  9 13  1  0  0  0  0
 10 11  1  0  0  0  0
 11 12  1  0  0  0  0
 14 15  1  0  0  0  0
 14 35  1  0  0  0  0
 15 17  1  0  0  0  0
 16 18  1  6  0  0  0
 16 25  1  0  0  0  0
 19 20  1  1  0  0  0
 19 27  1  0  0  0  0
 21 22  1  0  0  0  0
 21 23  1  0  0  0  0
 23 17  1  0  0  0  0
 25 26  1  6  0  0  0
 25 28  1  0  0  0  0
 27  2  1  6  0  0  0
 27 30  1  0  0  0  0
 28 29  1  0  0  0  0
 28 32  1  6  0  0  0
 30 31  1  1  0  0  0
 30 34  1  0  0  0  0
 32 33  2  0  0  0  0
 34 35  1  6  0  0  0
M  END
>  <CHROM.1>
-137.01915732,-84.45944850,139.66533224,-71.48675879,70.49259414,-159.57571239
156.71447513,-106.12670949,-64.64446493,-170.91958066,-77.52511167,-127.38910335
60.38874136,1.47132072,-4.14722702,24.66703581,-2.42117853,-0.40995003,0.89260457

>  <Name>
2f4t_lig

>  <RI>
0

>  <Rbt.Current_Directory>
/home/itssahil/PROJECTS/Mol_Feturizer/New_Systems/rnas/2f4t

>  <Rbt.Executable>
rbdock ($Id: //depot/dev/client3/rdock/2013.1/src/exe/rbdock.cxx#4 $)

>  <Rbt.Library>
libRbt.so (2013.1, Build901 2013/11/27)

>  <Rbt.Parameter_File>
/export/apps/rDock/src/rDock_2013.1_src/data/scripts/dock_solv.prm

>  <Rbt.Receptor>
prm/pocket_docking_8.prm

>  <SCORE>
-19.3915

>  <SCORE.INTER>
-18.1642

>  <SCORE.INTER.CONST>
1

>  <SCORE.INTER.POLAR>
-1.72379

>  <SCORE.INTER.ROT>
13

>  <SCORE.INTER.SOLV>
19.5727

>  <SCORE.INTER.VDW>
-25.1544

>  <SCORE.INTER.norm>
-0.518977

>  <SCORE.INTRA>
-1.22728

>  <SCORE.INTRA.DIHEDRAL>
-7.41813

>  <SCORE.INTRA.DIHEDRAL.0>
23.8882

>  <SCORE.INTRA.POLAR>
0

>  <SCORE.INTRA.POLAR.0>
0

>  <SCORE.INTRA.REPUL>
0

>  <SCORE.INTRA.REPUL.0>
0

>  <SCORE.INTRA.SOLV>
5.49366

>  <SCORE.INTRA.SOLV.lig_0>
-97.6888

>  <SCORE.INTRA.VDW>
-0.265049

>  <SCORE.INTRA.VDW.0>
-3.9206

>  <SCORE.INTRA.norm>
-0.0350653

>  <SCORE.RESTR>
0

>  <SCORE.RESTR.CAVITY>
0

>  <SCORE.RESTR.norm>
0

>  <SCORE.SYSTEM>
0

>  <SCORE.SYSTEM.CONST>
0

>  <SCORE.SYSTEM.DIHEDRAL>
0

>  <SCORE.SYSTEM.SOLV>
0

>  <SCORE.SYSTEM.norm>
0

>  <SCORE.heavy>
35

>  <SCORE.norm>
-0.554043

>  <RMSD>
8.176

$$$$
2f4t_lig
 OpenBabel11021811433D
libRbt.so/2013.1/901 2013/11/27
 35 36  0  0  0  0  0  0  0  0999 V2000
    0.9481  -12.3617   29.6696 C   0  0  2  0  0  0  0  0  0  0  0  0
    1.4918  -11.3195   30.5445 O   0  0  0  0  0  0  0  0  0  0  0  0
    3.7317   -7.8227   29.3560 C   0  0  2  0  0  0  0  0  0  0  0  0
    4.8766   -6.9594   29.0293 N   0  0  0  0  0  0  0  0  0  0  0  0
   -0.0970  -13.1361   30.5286 C   0  0  2  0  0  0  0  0  0  0  0  0
   -1.0986  -12.2345   31.0475 N   0  0  0  0  0  0  0  0  0  0  0  0
    3.9694   -8.4906   30.7599 C   0  0  0  0  0  0  0  0  0  0  0  0
    6.3203   -7.9519   28.8065 C   0  0  0  0  0  0  0  0  0  0  0  0
    7.0393   -6.6518   28.5218 C   0  0  1  0  0  0  0  0  0  0  0  0
    8.3851   -6.6999   29.2488 C   0  0  0  0  0  0  0  0  0  0  0  0
    8.3134   -6.6706   30.7848 C   0  0  0  0  0  0  0  0  0  0  0  0
    9.6636   -6.4391   31.3067 N   0  0  0  0  0  0  0  0  0  0  0  0
    7.3439   -6.5354   27.1565 O   0  0  0  0  0  0  0  0  0  0  0  0
    2.7676   -7.5235   26.0447 C   0  0  0  0  0  0  0  0  0  0  0  0
    3.2555   -6.0951   26.2318 C   0  0  0  0  0  0  0  0  0  0  0  0
    0.6214  -13.8938   31.6957 C   0  0  1  0  0  0  0  0  0  0  0  0
    2.9688   -5.2163   25.0768 N   0  0  0  0  0  0  0  0  0  0  0  0
   -0.3098  -14.6076   32.4854 O   0  0  0  0  0  0  0  0  0  0  0  0
    2.8109   -9.4163   31.1568 C   0  0  2  0  0  0  0  0  0  0  0  0
    3.0730  -10.0549   32.4427 N   0  0  0  0  0  0  0  0  0  0  0  0
    1.0564   -4.0377   26.1655 C   0  0  0  0  0  0  0  0  0  0  0  0
    1.9302   -2.8437   26.6683 N   0  0  0  0  0  0  0  0  0  0  0  0
    1.5890   -4.6966   24.8588 C   0  0  0  0  0  0  0  0  0  0  0  0
    6.5265   -8.9976   28.8621 O   0  0  0  0  0  0  0  0  0  0  0  0
    1.6528  -14.8454   31.0806 C   0  0  2  0  0  0  0  0  0  0  0  0
    2.3343  -15.5757   32.0876 O   0  0  0  0  0  0  0  0  0  0  0  0
    2.6064  -10.4825   30.1097 C   0  0  2  0  0  0  0  0  0  0  0  0
    2.6665  -14.0417   30.2159 C   0  0  2  0  0  0  0  0  0  0  0  0
    1.9909  -13.2942   29.1833 O   0  0  0  0  0  0  0  0  0  0  0  0
    2.3346   -9.8147   28.6937 C   0  0  2  0  0  0  0  0  0  0  0  0
    2.1360  -10.8735   27.7095 O   0  0  0  0  0  0  0  0  0  0  0  0
    3.6697  -14.9244   29.5744 C   0  0  0  0  0  0  0  0  0  0  0  0
    4.9066  -14.4178   29.7718 N   0  0  0  0  0  0  0  0  0  0  0  0
    3.5708   -8.9317   28.3046 C   0  0  1  0  0  0  0  0  0  0  0  0
    3.3752   -8.3538   27.0533 O   0  0  0  0  0  0  0  0  0  0  0  0
  1  2  1  1  0  0  0
  1  5  1  0  0  0  0
  1 29  1  0  0  0  0
  3  4  1  6  0  0  0
  3  7  1  0  0  0  0
  3 34  1  0  0  0  0
  5  6  1  1  0  0  0
  5 16  1  0  0  0  0
  7 19  1  0  0  0  0
  8  4  1  0  0  0  0
  8 24  2  0  0  0  0
  9  8  1  6  0  0  0
  9 10  1  0  0  0  0
  9 13  1  0  0  0  0
 10 11  1  0  0  0  0
 11 12  1  0  0  0  0
 14 15  1  0  0  0  0
 14 35  1  0  0  0  0
 15 17  1  0  0  0  0
 16 18  1  6  0  0  0
 16 25  1  0  0  0  0
 19 20  1  1  0  0  0
 19 27  1  0  0  0  0
 21 22  1  0  0  0  0
 21 23  1  0  0  0  0
 23 17  1  0  0  0  0
 25 26  1  1  0  0  0
 25 28  1  0  0  0  0
 27  2  1  1  0  0  0
 27 30  1  0  0  0  0
 28 29  1  0  0  0  0
 28 32  1  6  0  0  0
 30 31  1  6  0  0  0
 30 34  1  0  0  0  0
 32 33  2  0  0  0  0
 34 35  1  6  0  0  0
M  END
>  <CHROM.1>
173.61081053,66.13119232,137.20946140,-67.83112848,-168.26055480,166.02225272
79.82892349,76.31847141,59.59729196,51.32383558,173.27166497,-131.92411442
-55.61517332,3.38110624,-9.62100821,29.19674774,1.96128953,0.31346467,2.60885770

>  <Name>
2f4t_lig

>  <RI>
0

>  <Rbt.Current_Directory>
/home/itssahil/PROJECTS/Mol_Feturizer/New_Systems/rnas/2f4t

>  <Rbt.Executable>
rbdock ($Id: //depot/dev/client3/rdock/2013.1/src/exe/rbdock.cxx#4 $)

>  <Rbt.Library>
libRbt.so (2013.1, Build901 2013/11/27)

>  <Rbt.Parameter_File>
/export/apps/rDock/src/rDock_2013.1_src/data/scripts/dock_solv.prm

>  <Rbt.Receptor>
prm/pocket_docking_5.prm

>  <SCORE>
-22.3061

>  <SCORE.INTER>
-15.382

>  <SCORE.INTER.CONST>
1

>  <SCORE.INTER.POLAR>
-2.67728

>  <SCORE.INTER.ROT>
13

>  <SCORE.INTER.SOLV>
15.7634

>  <SCORE.INTER.VDW>
-18.8515

>  <SCORE.INTER.norm>
-0.439486

>  <SCORE.INTRA>
-6.92404

>  <SCORE.INTRA.DIHEDRAL>
-16.7965

>  <SCORE.INTRA.DIHEDRAL.0>
23.8882

>  <SCORE.INTRA.POLAR>
0

>  <SCORE.INTRA.POLAR.0>
0

>  <SCORE.INTRA.REPUL>
0

>  <SCORE.INTRA.REPUL.0>
0

>  <SCORE.INTRA.SOLV>
0.97171

>  <SCORE.INTRA.SOLV.lig_0>
-97.6888

>  <SCORE.INTRA.VDW>
0.988365

>  <SCORE.INTRA.VDW.0>
-3.9206

>  <SCORE.INTRA.norm>
-0.19783

>  <SCORE.RESTR>
0

>  <SCORE.RESTR.CAVITY>
0

>  <SCORE.RESTR.norm>
0

>  <SCORE.SYSTEM>
0

>  <SCORE.SYSTEM.CONST>
0

>  <SCORE.SYSTEM.DIHEDRAL>
0

>  <SCORE.SYSTEM.SOLV>
0

>  <SCORE.SYSTEM.norm>
0

>  <SCORE.heavy>
35

>  <SCORE.norm>
-0.637316

>  <RMSD>
8.187

$$$$
2f4t_lig
 OpenBabel11021811433D
libRbt.so/2013.1/901 2013/11/27
 35 36  0  0  0  0  0  0  0  0999 V2000
    2.1468  -11.2977   31.5238 C   0  0  2  0  0  0  0  0  0  0  0  0
    3.1136  -10.2774   31.1097 O   0  0  0  0  0  0  0  0  0  0  0  0
    3.2899   -7.8836   27.5186 C   0  0  2  0  0  0  0  0  0  0  0  0
    2.8778   -6.9588   26.4520 N   0  0  0  0  0  0  0  0  0  0  0  0
    2.4269  -11.5613   33.0343 C   0  0  2  0  0  0  0  0  0  0  0  0
    2.3352  -10.3349   33.7913 N   0  0  0  0  0  0  0  0  0  0  0  0
    2.1976   -9.0027   27.6857 C   0  0  0  0  0  0  0  0  0  0  0  0
    1.5889   -5.9080   27.0464 C   0  0  0  0  0  0  0  0  0  0  0  0
    1.6162   -5.2766   25.6721 C   0  0  1  0  0  0  0  0  0  0  0  0
    0.2800   -4.5595   25.4670 C   0  0  0  0  0  0  0  0  0  0  0  0
   -0.0960   -4.2570   24.0067 C   0  0  0  0  0  0  0  0  0  0  0  0
   -0.2529   -5.5296   23.2962 N   0  0  0  0  0  0  0  0  0  0  0  0
    2.6025   -4.2807   25.5970 O   0  0  0  0  0  0  0  0  0  0  0  0
    5.2748   -5.0648   29.1100 C   0  0  0  0  0  0  0  0  0  0  0  0
    6.2378   -5.5911   30.1631 C   0  0  0  0  0  0  0  0  0  0  0  0
    3.8381  -12.2162   33.2134 C   0  0  1  0  0  0  0  0  0  0  0  0
    6.9528   -4.5237   30.8966 N   0  0  0  0  0  0  0  0  0  0  0  0
    4.1102  -12.4683   34.5782 O   0  0  0  0  0  0  0  0  0  0  0  0
    2.5635   -9.9985   28.7953 C   0  0  2  0  0  0  0  0  0  0  0  0
    1.5167  -11.0024   28.9586 N   0  0  0  0  0  0  0  0  0  0  0  0
    9.2732   -4.3966   31.8081 C   0  0  0  0  0  0  0  0  0  0  0  0
    9.4217   -2.8457   31.6871 N   0  0  0  0  0  0  0  0  0  0  0  0
    7.8112   -4.8674   32.0655 C   0  0  0  0  0  0  0  0  0  0  0  0
    1.0676   -5.8123   27.9728 O   0  0  0  0  0  0  0  0  0  0  0  0
    3.8637  -13.5181   32.4059 C   0  0  2  0  0  0  0  0  0  0  0  0
    5.1159  -14.1716   32.5352 O   0  0  0  0  0  0  0  0  0  0  0  0
    2.7635   -9.2775   30.1049 C   0  0  2  0  0  0  0  0  0  0  0  0
    3.5615  -13.2198   30.9090 C   0  0  2  0  0  0  0  0  0  0  0  0
    2.2888  -12.5572   30.7577 O   0  0  0  0  0  0  0  0  0  0  0  0
    3.8884   -8.1656   29.9519 C   0  0  2  0  0  0  0  0  0  0  0  0
    4.0583   -7.4948   31.2365 O   0  0  0  0  0  0  0  0  0  0  0  0
    3.5462  -14.4550   30.0899 C   0  0  0  0  0  0  0  0  0  0  0  0
    4.7615  -14.6375   29.5282 N   0  0  0  0  0  0  0  0  0  0  0  0
    3.4398   -7.1391   28.8544 C   0  0  1  0  0  0  0  0  0  0  0  0
    4.3933   -6.1344   28.7162 O   0  0  0  0  0  0  0  0  0  0  0  0
  1  2  1  6  0  0  0
  1  5  1  0  0  0  0
  1 29  1  0  0  0  0
  3  4  1  6  0  0  0
  3  7  1  0  0  0  0
  3 34  1  0  0  0  0
  5  6  1  1  0  0  0
  5 16  1  0  0  0  0
  7 19  1  0  0  0  0
  8  4  1  0  0  0  0
  8 24  2  0  0  0  0
  9  8  1  1  0  0  0
  9 10  1  0  0  0  0
  9 13  1  0  0  0  0
 10 11  1  0  0  0  0
 11 12  1  0  0  0  0
 14 15  1  0  0  0  0
 14 35  1  0  0  0  0
 15 17  1  0  0  0  0
 16 18  1  1  0  0  0
 16 25  1  0  0  0  0
 19 20  1  1  0  0  0
 19 27  1  0  0  0  0
 21 22  1  0  0  0  0
 21 23  1  0  0  0  0
 23 17  1  0  0  0  0
 25 26  1  6  0  0  0
 25 28  1  0  0  0  0
 27  2  1  1  0  0  0
 27 30  1  0  0  0  0
 28 29  1  0  0  0  0
 28 32  1  6  0  0  0
 30 31  1  1  0  0  0
 30 34  1  0  0  0  0
 32 33  2  0  0  0  0
 34 35  1  6  0  0  0
M  END
>  <CHROM.1>
-146.14151093,75.03703419,159.75618870,-160.41998358,63.25084281,-165.01128544
59.13775265,172.89780657,64.38008053,120.99424666,-66.22528013,-94.90773304
-174.20475324,3.55220029,-8.46332980,29.63470738,1.43794093,0.73454263,2.63218527

>  <Name>
2f4t_lig

>  <RI>
0

>  <Rbt.Current_Directory>
/home/itssahil/PROJECTS/Mol_Feturizer/New_Systems/rnas/2f4t

>  <Rbt.Executable>
rbdock ($Id: //depot/dev/client3/rdock/2013.1/src/exe/rbdock.cxx#4 $)

>  <Rbt.Library>
libRbt.so (2013.1, Build901 2013/11/27)

>  <Rbt.Parameter_File>
/export/apps/rDock/src/rDock_2013.1_src/data/scripts/dock_solv.prm

>  <Rbt.Receptor>
prm/pocket_docking_4.prm

>  <SCORE>
-6.48854

>  <SCORE.INTER>
-3.43049

>  <SCORE.INTER.CONST>
1

>  <SCORE.INTER.POLAR>
-0.853158

>  <SCORE.INTER.ROT>
13

>  <SCORE.INTER.SOLV>
10.7762

>  <SCORE.INTER.VDW>
-15.3019

>  <SCORE.INTER.norm>
-0.0980141

>  <SCORE.INTRA>
-3.05805

>  <SCORE.INTRA.DIHEDRAL>
-13.2783

>  <SCORE.INTRA.DIHEDRAL.0>
23.8882

>  <SCORE.INTRA.POLAR>
0

>  <SCORE.INTRA.POLAR.0>
0

>  <SCORE.INTRA.REPUL>
0

>  <SCORE.INTRA.REPUL.0>
0

>  <SCORE.INTRA.SOLV>
4.4071

>  <SCORE.INTRA.SOLV.lig_0>
-97.6888

>  <SCORE.INTRA.VDW>
1.37754

>  <SCORE.INTRA.VDW.0>
-3.9206

>  <SCORE.INTRA.norm>
-0.0873728

>  <SCORE.RESTR>
0

>  <SCORE.RESTR.CAVITY>
0

>  <SCORE.RESTR.norm>
0

>  <SCORE.SYSTEM>
0

>  <SCORE.SYSTEM.CONST>
0

>  <SCORE.SYSTEM.DIHEDRAL>
0

>  <SCORE.SYSTEM.SOLV>
0

>  <SCORE.SYSTEM.norm>
0

>  <SCORE.heavy>
35

>  <SCORE.norm>
-0.185387

>  <RMSD>
8.211

$$$$
2f4t_lig
 OpenBabel11021811433D
libRbt.so/2013.1/901 2013/11/27
 35 36  0  0  0  0  0  0  0  0999 V2000
    3.2085  -10.1787   33.9018 C   0  0  2  0  0  0  0  0  0  0  0  0
    4.3798  -10.3858   33.0459 O   0  0  0  0  0  0  0  0  0  0  0  0
    7.2529   -7.6130   31.3984 C   0  0  2  0  0  0  0  0  0  0  0  0
    7.8377   -6.5841   30.5255 N   0  0  0  0  0  0  0  0  0  0  0  0
    3.0546  -11.4861   34.7364 C   0  0  2  0  0  0  0  0  0  0  0  0
    4.2661  -11.7678   35.4702 N   0  0  0  0  0  0  0  0  0  0  0  0
    6.6436   -8.7605   30.5121 C   0  0  0  0  0  0  0  0  0  0  0  0
    6.5506   -5.7541   29.6462 C   0  0  0  0  0  0  0  0  0  0  0  0
    7.6549   -4.9290   29.0233 C   0  0  1  0  0  0  0  0  0  0  0  0
    7.0284   -4.0830   27.9124 C   0  0  0  0  0  0  0  0  0  0  0  0
    6.4954   -4.8651   26.7003 C   0  0  0  0  0  0  0  0  0  0  0  0
    7.5970   -5.6502   26.1354 N   0  0  0  0  0  0  0  0  0  0  0  0
    8.1831   -4.0165   29.9499 O   0  0  0  0  0  0  0  0  0  0  0  0
    7.4880   -5.3503   34.0359 C   0  0  0  0  0  0  0  0  0  0  0  0
    7.0380   -3.9058   34.1916 C   0  0  0  0  0  0  0  0  0  0  0  0
    2.6873  -12.6839   33.7969 C   0  0  1  0  0  0  0  0  0  0  0  0
    7.2275   -3.0927   32.9703 N   0  0  0  0  0  0  0  0  0  0  0  0
    2.5383  -13.8805   34.5361 O   0  0  0  0  0  0  0  0  0  0  0  0
    6.0053   -9.8653   31.3655 C   0  0  2  0  0  0  0  0  0  0  0  0
    5.4118  -10.8971   30.5209 N   0  0  0  0  0  0  0  0  0  0  0  0
    9.0866   -1.4956   33.4441 C   0  0  0  0  0  0  0  0  0  0  0  0
   10.5361   -1.0166   33.1103 N   0  0  0  0  0  0  0  0  0  0  0  0
    8.5973   -2.6772   32.5554 C   0  0  0  0  0  0  0  0  0  0  0  0
    5.4875   -5.8429   29.6138 O   0  0  0  0  0  0  0  0  0  0  0  0
    1.3875  -12.3329   33.0656 C   0  0  2  0  0  0  0  0  0  0  0  0
    0.9895  -13.3862   32.2030 O   0  0  0  0  0  0  0  0  0  0  0  0
    4.9381   -9.2880   32.2616 C   0  0  2  0  0  0  0  0  0  0  0  0
    1.5716  -11.0145   32.2599 C   0  0  2  0  0  0  0  0  0  0  0  0
    1.9739   -9.9302   33.1224 O   0  0  0  0  0  0  0  0  0  0  0  0
    5.5535   -8.1489   33.1827 C   0  0  2  0  0  0  0  0  0  0  0  0
    4.4965   -7.6192   34.0378 O   0  0  0  0  0  0  0  0  0  0  0  0
    0.3291  -10.6167   31.5565 C   0  0  0  0  0  0  0  0  0  0  0  0
    0.5397  -10.6415   30.2221 N   0  0  0  0  0  0  0  0  0  0  0  0
    6.1347   -7.0161   32.2671 C   0  0  1  0  0  0  0  0  0  0  0  0
    6.6573   -5.9876   33.0461 O   0  0  0  0  0  0  0  0  0  0  0  0
  1  2  1  6  0  0  0
  1  5  1  0  0  0  0
  1 29  1  0  0  0  0
  3  4  1  6  0  0  0
  3  7  1  0  0  0  0
  3 34  1  0  0  0  0
  5  6  1  6  0  0  0
  5 16  1  0  0  0  0
  7 19  1  0  0  0  0
  8  4  1  0  0  0  0
  8 24  2  0  0  0  0
  9  8  1  1  0  0  0
  9 10  1  0  0  0  0
  9 13  1  0  0  0  0
 10 11  1  0  0  0  0
 11 12  1  0  0  0  0
 14 15  1  0  0  0  0
 14 35  1  0  0  0  0
 15 17  1  0  0  0  0
 16 18  1  1  0  0  0
 16 25  1  0  0  0  0
 19 20  1  6  0  0  0
 19 27  1  0  0  0  0
 21 22  1  0  0  0  0
 21 23  1  0  0  0  0
 23 17  1  0  0  0  0
 25 26  1  6  0  0  0
 25 28  1  0  0  0  0
 27  2  1  1  0  0  0
 27 30  1  0  0  0  0
 28 29  1  0  0  0  0
 28 32  1  1  0  0  0
 30 31  1  1  0  0  0
 30 34  1  0  0  0  0
 32 33  2  0  0  0  0
 34 35  1  1  0  0  0
M  END
>  <CHROM.1>
-171.15055250,68.19716351,171.60495025,-66.95758445,-57.42282309,-64.20527146
-173.17676123,-72.71262572,178.29222520,-76.86709911,-172.72851129,-116.46751080
-61.94940467,5.32990579,-7.79234336,31.90949918,-2.86831286,-0.93963162,-1.48723209

>  <Name>
2f4t_lig

>  <RI>
0

>  <Rbt.Current_Directory>
/home/itssahil/PROJECTS/Mol_Feturizer/New_Systems/rnas/2f4t

>  <Rbt.Executable>
rbdock ($Id: //depot/dev/client3/rdock/2013.1/src/exe/rbdock.cxx#4 $)

>  <Rbt.Library>
libRbt.so (2013.1, Build901 2013/11/27)

>  <Rbt.Parameter_File>
/export/apps/rDock/src/rDock_2013.1_src/data/scripts/dock_solv.prm

>  <Rbt.Receptor>
prm/pocket_docking_5.prm

>  <SCORE>
-9.13368

>  <SCORE.INTER>
-0.078016

>  <SCORE.INTER.CONST>
1

>  <SCORE.INTER.POLAR>
-1.8408

>  <SCORE.INTER.ROT>
13

>  <SCORE.INTER.SOLV>
16.1334

>  <SCORE.INTER.VDW>
-11.5605

>  <SCORE.INTER.norm>
-0.00222903

>  <SCORE.INTRA>
-9.05567

>  <SCORE.INTRA.DIHEDRAL>
-20.6492

>  <SCORE.INTRA.DIHEDRAL.0>
23.8882

>  <SCORE.INTRA.POLAR>
0

>  <SCORE.INTRA.POLAR.0>
0

>  <SCORE.INTRA.REPUL>
0

>  <SCORE.INTRA.REPUL.0>
0

>  <SCORE.INTRA.SOLV>
2.25697

>  <SCORE.INTRA.SOLV.lig_0>
-97.6888

>  <SCORE.INTRA.VDW>
0.140466

>  <SCORE.INTRA.VDW.0>
-3.9206

>  <SCORE.INTRA.norm>
-0.258733

>  <SCORE.RESTR>
0

>  <SCORE.RESTR.CAVITY>
0

>  <SCORE.RESTR.norm>
0

>  <SCORE.SYSTEM>
0

>  <SCORE.SYSTEM.CONST>
0

>  <SCORE.SYSTEM.DIHEDRAL>
0

>  <SCORE.SYSTEM.SOLV>
0

>  <SCORE.SYSTEM.norm>
0

>  <SCORE.heavy>
35

>  <SCORE.norm>
-0.260962

>  <RMSD>
8.213

$$$$
2f4t_lig
 OpenBabel11021811433D
libRbt.so/2013.1/901 2013/11/27
 35 36  0  0  0  0  0  0  0  0999 V2000
   -3.1124   -8.8855   22.1376 C   0  0  2  0  0  0  0  0  0  0  0  0
   -1.7060   -8.5715   21.8718 O   0  0  0  0  0  0  0  0  0  0  0  0
    1.6048   -7.0730   24.2064 C   0  0  2  0  0  0  0  0  0  0  0  0
    2.4109   -6.1697   25.0413 N   0  0  0  0  0  0  0  0  0  0  0  0
   -3.6008   -9.7195   20.9147 C   0  0  2  0  0  0  0  0  0  0  0  0
   -2.7712  -10.8870   20.7301 N   0  0  0  0  0  0  0  0  0  0  0  0
    1.0973   -6.2931   22.9384 C   0  0  0  0  0  0  0  0  0  0  0  0
    1.4136   -4.8153   25.5795 C   0  0  0  0  0  0  0  0  0  0  0  0
    2.6513   -4.3299   26.3011 C   0  0  1  0  0  0  0  0  0  0  0  0
    2.3772   -2.9020   26.7783 C   0  0  0  0  0  0  0  0  0  0  0  0
    3.5277   -2.2220   27.5393 C   0  0  0  0  0  0  0  0  0  0  0  0
    4.7234   -2.2498   26.6915 N   0  0  0  0  0  0  0  0  0  0  0  0
    2.8843   -5.0850   27.4612 O   0  0  0  0  0  0  0  0  0  0  0  0
    1.5014   -8.4818   27.3731 C   0  0  0  0  0  0  0  0  0  0  0  0
    2.9985   -8.3445   27.1423 C   0  0  0  0  0  0  0  0  0  0  0  0
   -3.6006   -8.8325   19.6241 C   0  0  1  0  0  0  0  0  0  0  0  0
    3.8055   -8.5361   28.3673 N   0  0  0  0  0  0  0  0  0  0  0  0
   -4.0457   -9.5700   18.5023 O   0  0  0  0  0  0  0  0  0  0  0  0
    0.2374   -7.1800   22.0272 C   0  0  2  0  0  0  0  0  0  0  0  0
   -0.2547   -6.4237   20.8800 N   0  0  0  0  0  0  0  0  0  0  0  0
    5.8583   -8.3465   29.7749 C   0  0  0  0  0  0  0  0  0  0  0  0
    7.3763   -7.9830   29.8496 N   0  0  0  0  0  0  0  0  0  0  0  0
    5.2813   -8.3313   28.3285 C   0  0  0  0  0  0  0  0  0  0  0  0
    0.3973   -4.5266   25.4280 O   0  0  0  0  0  0  0  0  0  0  0  0
   -4.5113   -7.6265   19.8763 C   0  0  2  0  0  0  0  0  0  0  0  0
   -4.5663   -6.7842   18.7363 O   0  0  0  0  0  0  0  0  0  0  0  0
   -0.9379   -7.7367   22.7912 C   0  0  2  0  0  0  0  0  0  0  0  0
   -4.0059   -6.8296   21.1135 C   0  0  2  0  0  0  0  0  0  0  0  0
   -3.9464   -7.6704   22.2844 O   0  0  0  0  0  0  0  0  0  0  0  0
   -0.4314   -8.5528   24.0570 C   0  0  2  0  0  0  0  0  0  0  0  0
   -1.5923   -9.0802   24.7665 O   0  0  0  0  0  0  0  0  0  0  0  0
   -4.8737   -5.6668   21.4160 C   0  0  0  0  0  0  0  0  0  0  0  0
   -6.0755   -6.1036   21.8527 N   0  0  0  0  0  0  0  0  0  0  0  0
    0.3860   -7.5899   24.9865 C   0  0  1  0  0  0  0  0  0  0  0  0
    0.8208   -8.2694   26.1209 O   0  0  0  0  0  0  0  0  0  0  0  0
  1  2  1  6  0  0  0
  1  5  1  0  0  0  0
  1 29  1  0  0  0  0
  3  4  1  1  0  0  0
  3  7  1  0  0  0  0
  3 34  1  0  0  0  0
  5  6  1  6  0  0  0
  5 16  1  0  0  0  0
  7 19  1  0  0  0  0
  8  4  1  0  0  0  0
  8 24  2  0  0  0  0
  9  8  1  1  0  0  0
  9 10  1  0  0  0  0
  9 13  1  0  0  0  0
 10 11  1  0  0  0  0
 11 12  1  0  0  0  0
 14 15  1  0  0  0  0
 14 35  1  0  0  0  0
 15 17  1  0  0  0  0
 16 18  1  6  0  0  0
 16 25  1  0  0  0  0
 19 20  1  6  0  0  0
 19 27  1  0  0  0  0
 21 22  1  0  0  0  0
 21 23  1  0  0  0  0
 23 17  1  0  0  0  0
 25 26  1  6  0  0  0
 25 28  1  0  0  0  0
 27  2  1  6  0  0  0
 27 30  1  0  0  0  0
 28 29  1  0  0  0  0
 28 32  1  1  0  0  0
 30 31  1  1  0  0  0
 30 34  1  0  0  0  0
 32 33  2  0  0  0  0
 34 35  1  1  0  0  0
M  END
>  <CHROM.1>
177.05619711,61.29767842,168.85445156,-179.83388250,55.80582499,179.68578387
-63.67045946,-175.35578050,-173.63780599,170.11545253,-159.00439222,68.39316899
57.33543283,0.02571349,-7.08692270,24.10331677,-2.98092611,-0.74188281,-0.01476328

>  <Name>
2f4t_lig

>  <RI>
0

>  <Rbt.Current_Directory>
/home/itssahil/PROJECTS/Mol_Feturizer/New_Systems/rnas/2f4t

>  <Rbt.Executable>
rbdock ($Id: //depot/dev/client3/rdock/2013.1/src/exe/rbdock.cxx#4 $)

>  <Rbt.Library>
libRbt.so (2013.1, Build901 2013/11/27)

>  <Rbt.Parameter_File>
/export/apps/rDock/src/rDock_2013.1_src/data/scripts/dock_solv.prm

>  <Rbt.Receptor>
prm/pocket_docking_8.prm

>  <SCORE>
-24.763

>  <SCORE.INTER>
-16.1276

>  <SCORE.INTER.CONST>
1

>  <SCORE.INTER.POLAR>
-1.74091

>  <SCORE.INTER.ROT>
13

>  <SCORE.INTER.SOLV>
15.0055

>  <SCORE.INTER.VDW>
-22.2172

>  <SCORE.INTER.norm>
-0.460788

>  <SCORE.INTRA>
-8.63542

>  <SCORE.INTRA.DIHEDRAL>
-18.6763

>  <SCORE.INTRA.DIHEDRAL.0>
23.8882

>  <SCORE.INTRA.POLAR>
0

>  <SCORE.INTRA.POLAR.0>
0

>  <SCORE.INTRA.REPUL>
0

>  <SCORE.INTRA.REPUL.0>
0

>  <SCORE.INTRA.SOLV>
2.10297

>  <SCORE.INTRA.SOLV.lig_0>
-97.6888

>  <SCORE.INTRA.VDW>
-0.348748

>  <SCORE.INTRA.VDW.0>
-3.9206

>  <SCORE.INTRA.norm>
-0.246726

>  <SCORE.RESTR>
0

>  <SCORE.RESTR.CAVITY>
0

>  <SCORE.RESTR.norm>
0

>  <SCORE.SYSTEM>
0

>  <SCORE.SYSTEM.CONST>
0

>  <SCORE.SYSTEM.DIHEDRAL>
0

>  <SCORE.SYSTEM.SOLV>
0

>  <SCORE.SYSTEM.norm>
0

>  <SCORE.heavy>
35

>  <SCORE.norm>
-0.707515

>  <RMSD>
8.237

$$$$
2f4t_lig
 OpenBabel11021811433D
libRbt.so/2013.1/901 2013/11/27
 35 36  0  0  0  0  0  0  0  0999 V2000
    2.4114  -11.4178   33.6956 C   0  0  2  0  0  0  0  0  0  0  0  0
    3.6682  -11.5436   32.9528 O   0  0  0  0  0  0  0  0  0  0  0  0
    6.2382   -8.5435   31.2056 C   0  0  2  0  0  0  0  0  0  0  0  0
    6.7490   -7.5439   30.2556 N   0  0  0  0  0  0  0  0  0  0  0  0
    2.1597  -12.8120   34.3455 C   0  0  2  0  0  0  0  0  0  0  0  0
    3.2818  -13.2014   35.1668 N   0  0  0  0  0  0  0  0  0  0  0  0
    5.9197   -9.8769   30.4348 C   0  0  0  0  0  0  0  0  0  0  0  0
    8.4907   -7.7557   30.0547 C   0  0  0  0  0  0  0  0  0  0  0  0
    8.4115   -6.5969   29.0856 C   0  0  1  0  0  0  0  0  0  0  0  0
    9.8432   -6.1465   28.7867 C   0  0  0  0  0  0  0  0  0  0  0  0
    9.9786   -4.9496   27.8306 C   0  0  0  0  0  0  0  0  0  0  0  0
   11.4047   -4.7034   27.5965 N   0  0  0  0  0  0  0  0  0  0  0  0
    7.8729   -7.0070   27.8560 O   0  0  0  0  0  0  0  0  0  0  0  0
    4.9486   -5.6756   33.3354 C   0  0  0  0  0  0  0  0  0  0  0  0
    6.2473   -4.9021   33.5050 C   0  0  0  0  0  0  0  0  0  0  0  0
    1.8909  -13.8826   33.2347 C   0  0  1  0  0  0  0  0  0  0  0  0
    6.7983   -4.3858   32.2328 N   0  0  0  0  0  0  0  0  0  0  0  0
    1.6551  -15.1556   33.8043 O   0  0  0  0  0  0  0  0  0  0  0  0
    5.3705  -10.9622   31.3712 C   0  0  2  0  0  0  0  0  0  0  0  0
    5.0448  -12.1747   30.6270 N   0  0  0  0  0  0  0  0  0  0  0  0
    6.4637   -3.1018   30.1184 C   0  0  0  0  0  0  0  0  0  0  0  0
    6.0542   -1.7537   29.4424 N   0  0  0  0  0  0  0  0  0  0  0  0
    6.2926   -3.1033   31.6663 C   0  0  0  0  0  0  0  0  0  0  0  0
    9.2164   -8.4229   30.4637 O   0  0  0  0  0  0  0  0  0  0  0  0
    0.6810  -13.4230   32.4146 C   0  0  2  0  0  0  0  0  0  0  0  0
    0.3742  -14.3587   31.3937 O   0  0  0  0  0  0  0  0  0  0  0  0
    4.1322  -10.4704   32.0781 C   0  0  2  0  0  0  0  0  0  0  0  0
    0.9597  -12.0219   31.7978 C   0  0  2  0  0  0  0  0  0  0  0  0
    1.2710  -11.0554   32.8228 O   0  0  0  0  0  0  0  0  0  0  0  0
    4.4541   -9.1398   32.8849 C   0  0  2  0  0  0  0  0  0  0  0  0
    3.2379   -8.6978   33.5590 O   0  0  0  0  0  0  0  0  0  0  0  0
   -0.1960  -11.5203   31.0171 C   0  0  0  0  0  0  0  0  0  0  0  0
    0.1870  -11.2933   29.7414 N   0  0  0  0  0  0  0  0  0  0  0  0
    4.9498   -8.0445   31.8781 C   0  0  1  0  0  0  0  0  0  0  0  0
    5.2139   -6.8552   32.5516 O   0  0  0  0  0  0  0  0  0  0  0  0
  1  2  1  6  0  0  0
  1  5  1  0  0  0  0
  1 29  1  0  0  0  0
  3  4  1  6  0  0  0
  3  7  1  0  0  0  0
  3 34  1  0  0  0  0
  5  6  1  6  0  0  0
  5 16  1  0  0  0  0
  7 19  1  0  0  0  0
  8  4  1  0  0  0  0
  8 24  2  0  0  0  0
  9  8  1  1  0  0  0
  9 10  1  0  0  0  0
  9 13  1  0  0  0  0
 10 11  1  0  0  0  0
 11 12  1  0  0  0  0
 14 15  1  0  0  0  0
 14 35  1  0  0  0  0
 15 17  1  0  0  0  0
 16 18  1  1  0  0  0
 16 25  1  0  0  0  0
 19 20  1  6  0  0  0
 19 27  1  0  0  0  0
 21 22  1  0  0  0  0
 21 23  1  0  0  0  0
 23 17  1  0  0  0  0
 25 26  1  6  0  0  0
 25 28  1  0  0  0  0
 27  2  1  1  0  0  0
 27 30  1  0  0  0  0
 28 29  1  0  0  0  0
 28 32  1  1  0  0  0
 30 31  1  6  0  0  0
 30 34  1  0  0  0  0
 32 33  2  0  0  0  0
 34 35  1  1  0  0  0
M  END
>  <CHROM.1>
172.36450457,-85.60969347,168.18588200,-178.94242710,-176.81969941,64.17164082
-179.29839671,83.15163396,-175.87710878,-153.02246912,-174.72936285,-121.10054107
177.26472142,4.89880735,-8.93598925,31.46860263,2.43677008,-0.63069487,-2.90119212

>  <Name>
2f4t_lig

>  <RI>
0

>  <Rbt.Current_Directory>
/home/itssahil/PROJECTS/Mol_Feturizer/New_Systems/rnas/2f4t

>  <Rbt.Executable>
rbdock ($Id: //depot/dev/client3/rdock/2013.1/src/exe/rbdock.cxx#4 $)

>  <Rbt.Library>
libRbt.so (2013.1, Build901 2013/11/27)

>  <Rbt.Parameter_File>
/export/apps/rDock/src/rDock_2013.1_src/data/scripts/dock_solv.prm

>  <Rbt.Receptor>
prm/pocket_docking_8.prm

>  <SCORE>
-10.4384

>  <SCORE.INTER>
0.278413

>  <SCORE.INTER.CONST>
1

>  <SCORE.INTER.POLAR>
-1.26804

>  <SCORE.INTER.ROT>
13

>  <SCORE.INTER.SOLV>
11.174

>  <SCORE.INTER.VDW>
-11.5789

>  <SCORE.INTER.norm>
0.00795467

>  <SCORE.INTRA>
-10.7169

>  <SCORE.INTRA.DIHEDRAL>
-20.1384

>  <SCORE.INTRA.DIHEDRAL.0>
23.8882

>  <SCORE.INTRA.POLAR>
0

>  <SCORE.INTRA.POLAR.0>
0

>  <SCORE.INTRA.REPUL>
0

>  <SCORE.INTRA.REPUL.0>
0

>  <SCORE.INTRA.SOLV>
-0.529421

>  <SCORE.INTRA.SOLV.lig_0>
-97.6888

>  <SCORE.INTRA.VDW>
-0.38294

>  <SCORE.INTRA.VDW.0>
-3.9206

>  <SCORE.INTRA.norm>
-0.306196

>  <SCORE.RESTR>
0

>  <SCORE.RESTR.CAVITY>
0

>  <SCORE.RESTR.norm>
0

>  <SCORE.SYSTEM>
0

>  <SCORE.SYSTEM.CONST>
0

>  <SCORE.SYSTEM.DIHEDRAL>
0

>  <SCORE.SYSTEM.SOLV>
0

>  <SCORE.SYSTEM.norm>
0

>  <SCORE.heavy>
35

>  <SCORE.norm>
-0.298241

>  <RMSD>
8.238

$$$$
2f4t_lig
 OpenBabel11021811433D
libRbt.so/2013.1/901 2013/11/27
 35 36  0  0  0  0  0  0  0  0999 V2000
    4.7422   -9.7187   31.2929 C   0  0  2  0  0  0  0  0  0  0  0  0
    5.3394  -10.9713   31.7634 O   0  0  0  0  0  0  0  0  0  0  0  0
    1.8228  -13.3523   32.5517 C   0  0  2  0  0  0  0  0  0  0  0  0
    0.9879  -14.5114   32.9014 N   0  0  0  0  0  0  0  0  0  0  0  0
    5.9175   -8.8822   30.7025 C   0  0  2  0  0  0  0  0  0  0  0  0
    6.6009   -9.6228   29.6681 N   0  0  0  0  0  0  0  0  0  0  0  0
    2.8358  -13.7646   31.4215 C   0  0  0  0  0  0  0  0  0  0  0  0
    2.0035  -15.7894   33.5751 C   0  0  0  0  0  0  0  0  0  0  0  0
    0.7236  -16.5825   33.7202 C   0  0  1  0  0  0  0  0  0  0  0  0
    1.1106  -18.0349   34.0078 C   0  0  0  0  0  0  0  0  0  0  0  0
   -0.0600  -19.0256   34.1222 C   0  0  0  0  0  0  0  0  0  0  0  0
    0.4863  -20.3575   34.3992 N   0  0  0  0  0  0  0  0  0  0  0  0
   -0.0098  -16.1517   34.8368 O   0  0  0  0  0  0  0  0  0  0  0  0
    0.6641  -12.6659   35.7413 C   0  0  0  0  0  0  0  0  0  0  0  0
    0.4663  -11.3422   36.4639 C   0  0  0  0  0  0  0  0  0  0  0  0
    6.9137   -8.4763   31.8406 C   0  0  1  0  0  0  0  0  0  0  0  0
    0.2377  -10.1996   35.5525 N   0  0  0  0  0  0  0  0  0  0  0  0
    7.9864   -7.7115   31.3261 O   0  0  0  0  0  0  0  0  0  0  0  0
    3.7476  -12.5979   31.0167 C   0  0  2  0  0  0  0  0  0  0  0  0
    4.7045  -13.0156   29.9969 N   0  0  0  0  0  0  0  0  0  0  0  0
   -0.7421  -10.6300   33.2972 C   0  0  0  0  0  0  0  0  0  0  0  0
   -2.0059  -10.6111   32.3784 N   0  0  0  0  0  0  0  0  0  0  0  0
   -1.0135  -10.1269   34.7458 C   0  0  0  0  0  0  0  0  0  0  0  0
    3.0482  -15.8931   33.7675 O   0  0  0  0  0  0  0  0  0  0  0  0
    6.1347   -7.6790   32.8919 C   0  0  2  0  0  0  0  0  0  0  0  0
    6.9847   -7.2677   33.9502 O   0  0  0  0  0  0  0  0  0  0  0  0
    4.5007  -12.0778   32.2156 C   0  0  2  0  0  0  0  0  0  0  0  0
    4.9596   -8.5364   33.4443 C   0  0  2  0  0  0  0  0  0  0  0  0
    4.0819   -8.9617   32.3812 O   0  0  0  0  0  0  0  0  0  0  0  0
    3.4824  -11.6299   33.3502 C   0  0  2  0  0  0  0  0  0  0  0  0
    4.2446  -11.1282   34.4888 O   0  0  0  0  0  0  0  0  0  0  0  0
    4.1565   -7.7959   34.4461 C   0  0  0  0  0  0  0  0  0  0  0  0
    4.3289   -8.3556   35.6638 N   0  0  0  0  0  0  0  0  0  0  0  0
    2.6192  -12.8688   33.7737 C   0  0  1  0  0  0  0  0  0  0  0  0
    1.7344  -12.5153   34.7885 O   0  0  0  0  0  0  0  0  0  0  0  0
  1  2  1  1  0  0  0
  1  5  1  0  0  0  0
  1 29  1  0  0  0  0
  3  4  1  1  0  0  0
  3  7  1  0  0  0  0
  3 34  1  0  0  0  0
  5  6  1  6  0  0  0
  5 16  1  0  0  0  0
  7 19  1  0  0  0  0
  8  4  1  0  0  0  0
  8 24  2  0  0  0  0
  9  8  1  1  0  0  0
  9 10  1  0  0  0  0
  9 13  1  0  0  0  0
 10 11  1  0  0  0  0
 11 12  1  0  0  0  0
 14 15  1  0  0  0  0
 14 35  1  0  0  0  0
 15 17  1  0  0  0  0
 16 18  1  6  0  0  0
 16 25  1  0  0  0  0
 19 20  1  6  0  0  0
 19 27  1  0  0  0  0
 21 22  1  0  0  0  0
 21 23  1  0  0  0  0
 23 17  1  0  0  0  0
 25 26  1  1  0  0  0
 25 28  1  0  0  0  0
 27  2  1  6  0  0  0
 27 30  1  0  0  0  0
 28 29  1  0  0  0  0
 28 32  1  1  0  0  0
 30 31  1  1  0  0  0
 30 34  1  0  0  0  0
 32 33  2  0  0  0  0
 34 35  1  1  0  0  0
M  END
>  <CHROM.1>
-171.63839978,63.54547472,166.62490168,-177.15068910,-179.90371623,54.76348178
-177.40365819,67.34124561,179.13295226,-98.88335736,67.06234829,-111.98084339
55.74619761,2.97790149,-11.95827919,33.23377363,-0.86291232,-0.57431773,-2.92043117

>  <Name>
2f4t_lig

>  <RI>
0

>  <Rbt.Current_Directory>
/home/itssahil/PROJECTS/Mol_Feturizer/New_Systems/rnas/2f4t

>  <Rbt.Executable>
rbdock ($Id: //depot/dev/client3/rdock/2013.1/src/exe/rbdock.cxx#4 $)

>  <Rbt.Library>
libRbt.so (2013.1, Build901 2013/11/27)

>  <Rbt.Parameter_File>
/export/apps/rDock/src/rDock_2013.1_src/data/scripts/dock_solv.prm

>  <Rbt.Receptor>
prm/pocket_docking_7.prm

>  <SCORE>
-8.99643

>  <SCORE.INTER>
0.951057

>  <SCORE.INTER.CONST>
1

>  <SCORE.INTER.POLAR>
-1.71358

>  <SCORE.INTER.ROT>
13

>  <SCORE.INTER.SOLV>
12.0918

>  <SCORE.INTER.VDW>
-9.9513

>  <SCORE.INTER.norm>
0.0271731

>  <SCORE.INTRA>
-9.94748

>  <SCORE.INTRA.DIHEDRAL>
-20.3067

>  <SCORE.INTRA.DIHEDRAL.0>
23.8882

>  <SCORE.INTRA.POLAR>
0

>  <SCORE.INTRA.POLAR.0>
0

>  <SCORE.INTRA.REPUL>
0

>  <SCORE.INTRA.REPUL.0>
0

>  <SCORE.INTRA.SOLV>
1.92734

>  <SCORE.INTRA.SOLV.lig_0>
-97.6888

>  <SCORE.INTRA.VDW>
-0.7578

>  <SCORE.INTRA.VDW.0>
-3.9206

>  <SCORE.INTRA.norm>
-0.284214

>  <SCORE.RESTR>
0

>  <SCORE.RESTR.CAVITY>
0

>  <SCORE.RESTR.norm>
0

>  <SCORE.SYSTEM>
0

>  <SCORE.SYSTEM.CONST>
0

>  <SCORE.SYSTEM.DIHEDRAL>
0

>  <SCORE.SYSTEM.SOLV>
0

>  <SCORE.SYSTEM.norm>
0

>  <SCORE.heavy>
35

>  <SCORE.norm>
-0.257041

>  <RMSD>
8.261

$$$$
2f4t_lig
 OpenBabel11021811433D
libRbt.so/2013.1/901 2013/11/27
 35 36  0  0  0  0  0  0  0  0999 V2000
    0.5551  -11.1776   31.1495 C   0  0  2  0  0  0  0  0  0  0  0  0
    1.7467  -10.6773   31.8403 O   0  0  0  0  0  0  0  0  0  0  0  0
    5.1063   -8.4547   30.2814 C   0  0  2  0  0  0  0  0  0  0  0  0
    6.3946   -8.1713   29.6312 N   0  0  0  0  0  0  0  0  0  0  0  0
   -0.5206  -11.3913   32.2571 C   0  0  2  0  0  0  0  0  0  0  0  0
   -0.7468  -10.1681   32.9906 N   0  0  0  0  0  0  0  0  0  0  0  0
    5.3133   -9.5548   31.3861 C   0  0  0  0  0  0  0  0  0  0  0  0
    7.4644   -7.3513   30.7722 C   0  0  0  0  0  0  0  0  0  0  0  0
    8.4815   -7.3503   29.6524 C   0  0  1  0  0  0  0  0  0  0  0  0
    8.2696   -6.0723   28.8376 C   0  0  0  0  0  0  0  0  0  0  0  0
    9.2190   -5.8793   27.6432 C   0  0  0  0  0  0  0  0  0  0  0  0
    8.9303   -4.5804   27.0279 N   0  0  0  0  0  0  0  0  0  0  0  0
    9.7873   -7.2700   30.1608 O   0  0  0  0  0  0  0  0  0  0  0  0
    3.5100   -6.7599   27.6723 C   0  0  0  0  0  0  0  0  0  0  0  0
    3.7445   -6.8365   26.1714 C   0  0  0  0  0  0  0  0  0  0  0  0
   -0.0766  -12.5405   33.2238 C   0  0  1  0  0  0  0  0  0  0  0  0
    3.0716   -5.7597   25.4122 N   0  0  0  0  0  0  0  0  0  0  0  0
   -1.0424  -12.7539   34.2347 O   0  0  0  0  0  0  0  0  0  0  0  0
    3.9993   -9.9053   32.0982 C   0  0  2  0  0  0  0  0  0  0  0  0
    4.2094  -10.9559   33.0892 N   0  0  0  0  0  0  0  0  0  0  0  0
    1.9239   -3.8358   26.5135 C   0  0  0  0  0  0  0  0  0  0  0  0
    2.0386   -2.3943   27.1058 N   0  0  0  0  0  0  0  0  0  0  0  0
    3.2309   -4.3386   25.8321 C   0  0  0  0  0  0  0  0  0  0  0  0
    7.3734   -7.0289   31.7855 O   0  0  0  0  0  0  0  0  0  0  0  0
    0.1261  -13.8104   32.3908 C   0  0  2  0  0  0  0  0  0  0  0  0
    0.5190  -14.8987   33.2111 O   0  0  0  0  0  0  0  0  0  0  0  0
    2.9671  -10.3682   31.1006 C   0  0  2  0  0  0  0  0  0  0  0  0
    1.1905  -13.5550   31.2849 C   0  0  2  0  0  0  0  0  0  0  0  0
    0.8058  -12.4521   30.4380 O   0  0  0  0  0  0  0  0  0  0  0  0
    2.7296   -9.2484   29.9985 C   0  0  2  0  0  0  0  0  0  0  0  0
    1.7234   -9.7275   29.0567 O   0  0  0  0  0  0  0  0  0  0  0  0
    1.4009  -14.7488   30.4319 C   0  0  0  0  0  0  0  0  0  0  0  0
    0.2116  -15.1741   29.9518 N   0  0  0  0  0  0  0  0  0  0  0  0
    4.0838   -8.9719   29.2576 C   0  0  1  0  0  0  0  0  0  0  0  0
    3.9026   -8.0134   28.2644 O   0  0  0  0  0  0  0  0  0  0  0  0
  1  2  1  1  0  0  0
  1  5  1  0  0  0  0
  1 29  1  0  0  0  0
  3  4  1  6  0  0  0
  3  7  1  0  0  0  0
  3 34  1  0  0  0  0
  5  6  1  1  0  0  0
  5 16  1  0  0  0  0
  7 19  1  0  0  0  0
  8  4  1  0  0  0  0
  8 24  2  0  0  0  0
  9  8  1  1  0  0  0
  9 10  1  0  0  0  0
  9 13  1  0  0  0  0
 10 11  1  0  0  0  0
 11 12  1  0  0  0  0
 14 15  1  0  0  0  0
 14 35  1  0  0  0  0
 15 17  1  0  0  0  0
 16 18  1  1  0  0  0
 16 25  1  0  0  0  0
 19 20  1  1  0  0  0
 19 27  1  0  0  0  0
 21 22  1  0  0  0  0
 21 23  1  0  0  0  0
 23 17  1  0  0  0  0
 25 26  1  1  0  0  0
 25 28  1  0  0  0  0
 27  2  1  1  0  0  0
 27 30  1  0  0  0  0
 28 29  1  0  0  0  0
 28 32  1  6  0  0  0
 30 31  1  6  0  0  0
 30 34  1  0  0  0  0
 32 33  2  0  0  0  0
 34 35  1  6  0  0  0
M  END
>  <CHROM.1>
179.81593028,-68.97984073,88.86885863,179.79665357,-176.76477637,165.33366409
-175.39451160,50.03678336,174.72872506,-105.77905329,-179.00447753,53.04474533
-65.87909919,3.47111528,-9.20660024,30.06756915,2.20411552,0.22256459,2.45892098

>  <Name>
2f4t_lig

>  <RI>
0

>  <Rbt.Current_Directory>
/home/itssahil/PROJECTS/Mol_Feturizer/New_Systems/rnas/2f4t

>  <Rbt.Executable>
rbdock ($Id: //depot/dev/client3/rdock/2013.1/src/exe/rbdock.cxx#4 $)

>  <Rbt.Library>
libRbt.so (2013.1, Build901 2013/11/27)

>  <Rbt.Parameter_File>
/export/apps/rDock/src/rDock_2013.1_src/data/scripts/dock_solv.prm

>  <Rbt.Receptor>
prm/pocket_docking_6.prm

>  <SCORE>
-11.3152

>  <SCORE.INTER>
-2.96749

>  <SCORE.INTER.CONST>
1

>  <SCORE.INTER.POLAR>
-1.59283

>  <SCORE.INTER.ROT>
13

>  <SCORE.INTER.SOLV>
9.94718

>  <SCORE.INTER.VDW>
-12.2513

>  <SCORE.INTER.norm>
-0.0847855

>  <SCORE.INTRA>
-8.34767

>  <SCORE.INTRA.DIHEDRAL>
-18.1063

>  <SCORE.INTRA.DIHEDRAL.0>
23.8882

>  <SCORE.INTRA.POLAR>
0

>  <SCORE.INTRA.POLAR.0>
0

>  <SCORE.INTRA.REPUL>
0

>  <SCORE.INTRA.REPUL.0>
0

>  <SCORE.INTRA.SOLV>
-1.64534

>  <SCORE.INTRA.SOLV.lig_0>
-97.6888

>  <SCORE.INTRA.VDW>
1.52812

>  <SCORE.INTRA.VDW.0>
-3.9206

>  <SCORE.INTRA.norm>
-0.238505

>  <SCORE.RESTR>
0

>  <SCORE.RESTR.CAVITY>
0

>  <SCORE.RESTR.norm>
0

>  <SCORE.SYSTEM>
0

>  <SCORE.SYSTEM.CONST>
0

>  <SCORE.SYSTEM.DIHEDRAL>
0

>  <SCORE.SYSTEM.SOLV>
0

>  <SCORE.SYSTEM.norm>
0

>  <SCORE.heavy>
35

>  <SCORE.norm>
-0.32329

>  <RMSD>
8.276

$$$$
2f4t_lig
 OpenBabel11021811433D
libRbt.so/2013.1/901 2013/11/27
 35 36  0  0  0  0  0  0  0  0999 V2000
   -1.8298   -5.7745   22.4340 C   0  0  2  0  0  0  0  0  0  0  0  0
   -0.4609   -5.3265   22.7033 O   0  0  0  0  0  0  0  0  0  0  0  0
    1.3173   -3.3637   26.1155 C   0  0  2  0  0  0  0  0  0  0  0  0
    1.6745   -3.0729   27.5121 N   0  0  0  0  0  0  0  0  0  0  0  0
   -1.7224   -6.7836   21.2509 C   0  0  2  0  0  0  0  0  0  0  0  0
   -0.8149   -7.8581   21.5784 N   0  0  0  0  0  0  0  0  0  0  0  0
   -0.2436   -3.5184   26.0004 C   0  0  0  0  0  0  0  0  0  0  0  0
    1.5909   -1.3314   27.7929 C   0  0  0  0  0  0  0  0  0  0  0  0
    2.0003   -1.6492   29.2141 C   0  0  1  0  0  0  0  0  0  0  0  0
    3.0837   -0.6465   29.6176 C   0  0  0  0  0  0  0  0  0  0  0  0
    4.4033   -0.7407   28.8335 C   0  0  0  0  0  0  0  0  0  0  0  0
    5.3091    0.3018   29.3252 N   0  0  0  0  0  0  0  0  0  0  0  0
    0.9335   -1.4408   30.1021 O   0  0  0  0  0  0  0  0  0  0  0  0
    4.7452   -4.9379   25.6709 C   0  0  0  0  0  0  0  0  0  0  0  0
    5.6014   -3.7984   26.2021 C   0  0  0  0  0  0  0  0  0  0  0  0
   -1.2551   -6.0429   19.9527 C   0  0  1  0  0  0  0  0  0  0  0  0
    7.0549   -4.0555   26.1034 N   0  0  0  0  0  0  0  0  0  0  0  0
   -1.1557   -6.9410   18.8647 O   0  0  0  0  0  0  0  0  0  0  0  0
   -0.6830   -3.8347   24.5640 C   0  0  2  0  0  0  0  0  0  0  0  0
   -2.1297   -4.0137   24.4906 N   0  0  0  0  0  0  0  0  0  0  0  0
    9.2566   -4.9953   26.8110 C   0  0  0  0  0  0  0  0  0  0  0  0
   10.0624   -5.8366   27.8526 N   0  0  0  0  0  0  0  0  0  0  0  0
    7.7334   -4.9056   27.1225 C   0  0  0  0  0  0  0  0  0  0  0  0
    1.3517   -0.4855   27.1876 O   0  0  0  0  0  0  0  0  0  0  0  0
   -2.2666   -4.9328   19.6489 C   0  0  2  0  0  0  0  0  0  0  0  0
   -1.9079   -4.2269   18.4721 O   0  0  0  0  0  0  0  0  0  0  0  0
   -0.0057   -5.0886   24.0701 C   0  0  2  0  0  0  0  0  0  0  0  0
   -2.3619   -3.9569   20.8569 C   0  0  2  0  0  0  0  0  0  0  0  0
   -2.7291   -4.6576   22.0635 O   0  0  0  0  0  0  0  0  0  0  0  0
    1.5729   -4.9278   24.1541 C   0  0  2  0  0  0  0  0  0  0  0  0
    2.1930   -6.1543   23.6639 O   0  0  0  0  0  0  0  0  0  0  0  0
   -3.3520   -2.8791   20.6220 C   0  0  0  0  0  0  0  0  0  0  0  0
   -2.7139   -1.6906   20.5460 N   0  0  0  0  0  0  0  0  0  0  0  0
    1.9770   -4.6702   25.6473 C   0  0  1  0  0  0  0  0  0  0  0  0
    3.3596   -4.5527   25.7589 O   0  0  0  0  0  0  0  0  0  0  0  0
  1  2  1  6  0  0  0
  1  5  1  0  0  0  0
  1 29  1  0  0  0  0
  3  4  1  1  0  0  0
  3  7  1  0  0  0  0
  3 34  1  0  0  0  0
  5  6  1  1  0  0  0
  5 16  1  0  0  0  0
  7 19  1  0  0  0  0
  8  4  1  0  0  0  0
  8 24  2  0  0  0  0
  9  8  1  6  0  0  0
  9 10  1  0  0  0  0
  9 13  1  0  0  0  0
 10 11  1  0  0  0  0
 11 12  1  0  0  0  0
 14 15  1  0  0  0  0
 14 35  1  0  0  0  0
 15 17  1  0  0  0  0
 16 18  1  6  0  0  0
 16 25  1  0  0  0  0
 19 20  1  1  0  0  0
 19 27  1  0  0  0  0
 21 22  1  0  0  0  0
 21 23  1  0  0  0  0
 23 17  1  0  0  0  0
 25 26  1  6  0  0  0
 25 28  1  0  0  0  0
 27  2  1  6  0  0  0
 27 30  1  0  0  0  0
 28 29  1  0  0  0  0
 28 32  1  6  0  0  0
 30 31  1  1  0  0  0
 30 34  1  0  0  0  0
 32 33  2  0  0  0  0
 34 35  1  6  0  0  0
M  END
>  <CHROM.1>
-142.42029696,-86.86005104,135.29017082,-64.91102295,178.79993592,-177.32386174
-178.57645220,-80.39263474,178.37010361,-178.82482123,-71.46408157,-113.92593914
-179.27982535,1.42502128,-3.97157739,24.64028719,-2.42168805,-0.37045098
0.89332150

>  <Name>
2f4t_lig

>  <RI>
0

>  <Rbt.Current_Directory>
/home/itssahil/PROJECTS/Mol_Feturizer/New_Systems/rnas/2f4t

>  <Rbt.Executable>
rbdock ($Id: //depot/dev/client3/rdock/2013.1/src/exe/rbdock.cxx#4 $)

>  <Rbt.Library>
libRbt.so (2013.1, Build901 2013/11/27)

>  <Rbt.Parameter_File>
/export/apps/rDock/src/rDock_2013.1_src/data/scripts/dock_solv.prm

>  <Rbt.Receptor>
prm/pocket_docking_8.prm

>  <SCORE>
-20.4277

>  <SCORE.INTER>
-14.364

>  <SCORE.INTER.CONST>
1

>  <SCORE.INTER.POLAR>
-0.938083

>  <SCORE.INTER.ROT>
13

>  <SCORE.INTER.SOLV>
19.0276

>  <SCORE.INTER.VDW>
-25.0583

>  <SCORE.INTER.norm>
-0.410401

>  <SCORE.INTRA>
-6.0636

>  <SCORE.INTRA.DIHEDRAL>
-14.3001

>  <SCORE.INTRA.DIHEDRAL.0>
23.8882

>  <SCORE.INTRA.POLAR>
0

>  <SCORE.INTRA.POLAR.0>
0

>  <SCORE.INTRA.REPUL>
0

>  <SCORE.INTRA.REPUL.0>
0

>  <SCORE.INTRA.SOLV>
1.04939

>  <SCORE.INTRA.SOLV.lig_0>
-97.6888

>  <SCORE.INTRA.VDW>
0.56176

>  <SCORE.INTRA.VDW.0>
-3.9206

>  <SCORE.INTRA.norm>
-0.173246

>  <SCORE.RESTR>
0

>  <SCORE.RESTR.CAVITY>
0

>  <SCORE.RESTR.norm>
0

>  <SCORE.SYSTEM>
0

>  <SCORE.SYSTEM.CONST>
0

>  <SCORE.SYSTEM.DIHEDRAL>
0

>  <SCORE.SYSTEM.SOLV>
0

>  <SCORE.SYSTEM.norm>
0

>  <SCORE.heavy>
35

>  <SCORE.norm>
-0.583647

>  <RMSD>
8.286

$$$$
2f4t_lig
 OpenBabel11021811433D
libRbt.so/2013.1/901 2013/11/27
 35 36  0  0  0  0  0  0  0  0999 V2000
    2.9992  -12.0359   31.3606 C   0  0  2  0  0  0  0  0  0  0  0  0
    3.9388  -11.1489   30.6694 O   0  0  0  0  0  0  0  0  0  0  0  0
    3.4431   -8.2917   27.4683 C   0  0  2  0  0  0  0  0  0  0  0  0
    2.8811   -7.1887   26.6744 N   0  0  0  0  0  0  0  0  0  0  0  0
    3.6756  -12.3984   32.7173 C   0  0  2  0  0  0  0  0  0  0  0  0
    3.9984  -11.2034   33.4611 N   0  0  0  0  0  0  0  0  0  0  0  0
    2.3009   -9.3154   27.8158 C   0  0  0  0  0  0  0  0  0  0  0  0
    1.7621   -6.2540   27.6709 C   0  0  0  0  0  0  0  0  0  0  0  0
    1.5650   -5.3870   26.4470 C   0  0  1  0  0  0  0  0  0  0  0  0
    0.3972   -4.4408   26.7348 C   0  0  0  0  0  0  0  0  0  0  0  0
   -0.0459   -3.5534   25.5595 C   0  0  0  0  0  0  0  0  0  0  0  0
   -0.5149   -4.4216   24.4754 N   0  0  0  0  0  0  0  0  0  0  0  0
    2.6815   -4.5646   26.2296 O   0  0  0  0  0  0  0  0  0  0  0  0
    6.2374   -6.3137   27.8671 C   0  0  0  0  0  0  0  0  0  0  0  0
    6.5187   -4.9386   28.4531 C   0  0  0  0  0  0  0  0  0  0  0  0
    4.9615  -13.2558   32.4652 C   0  0  1  0  0  0  0  0  0  0  0  0
    7.0803   -4.9826   29.8210 N   0  0  0  0  0  0  0  0  0  0  0  0
    5.5885  -13.5998   33.6854 O   0  0  0  0  0  0  0  0  0  0  0  0
    2.8214  -10.4901   28.6559 C   0  0  2  0  0  0  0  0  0  0  0  0
    1.7367  -11.4041   28.9996 N   0  0  0  0  0  0  0  0  0  0  0  0
    7.0146   -5.2280   32.3044 C   0  0  0  0  0  0  0  0  0  0  0  0
    6.1681   -5.5358   33.5813 N   0  0  0  0  0  0  0  0  0  0  0  0
    6.1993   -5.3035   30.9796 C   0  0  0  0  0  0  0  0  0  0  0  0
    1.4208   -6.3226   28.6798 O   0  0  0  0  0  0  0  0  0  0  0  0
    4.5499  -14.5139   31.6935 C   0  0  2  0  0  0  0  0  0  0  0  0
    5.6713  -15.3451   31.4419 O   0  0  0  0  0  0  0  0  0  0  0  0
    3.4624   -9.9867   29.9250 C   0  0  2  0  0  0  0  0  0  0  0  0
    3.8620  -14.1145   30.3562 C   0  0  2  0  0  0  0  0  0  0  0  0
    2.7161  -13.2705   30.5930 O   0  0  0  0  0  0  0  0  0  0  0  0
    4.6385   -8.9752   29.5807 C   0  0  2  0  0  0  0  0  0  0  0  0
    5.2376   -8.5147   30.8290 O   0  0  0  0  0  0  0  0  0  0  0  0
    3.4184  -15.3003   29.5855 C   0  0  0  0  0  0  0  0  0  0  0  0
    4.3953  -15.6716   28.7290 N   0  0  0  0  0  0  0  0  0  0  0  0
    4.0466   -7.7642   28.7793 C   0  0  1  0  0  0  0  0  0  0  0  0
    5.0493   -6.8441   28.4862 O   0  0  0  0  0  0  0  0  0  0  0  0
  1  2  1  6  0  0  0
  1  5  1  0  0  0  0
  1 29  1  0  0  0  0
  3  4  1  1  0  0  0
  3  7  1  0  0  0  0
  3 34  1  0  0  0  0
  5  6  1  6  0  0  0
  5 16  1  0  0  0  0
  7 19  1  0  0  0  0
  8  4  1  0  0  0  0
  8 24  2  0  0  0  0
  9  8  1  1  0  0  0
  9 10  1  0  0  0  0
  9 13  1  0  0  0  0
 10 11  1  0  0  0  0
 11 12  1  0  0  0  0
 14 15  1  0  0  0  0
 14 35  1  0  0  0  0
 15 17  1  0  0  0  0
 16 18  1  1  0  0  0
 16 25  1  0  0  0  0
 19 20  1  1  0  0  0
 19 27  1  0  0  0  0
 21 22  1  0  0  0  0
 21 23  1  0  0  0  0
 23 17  1  0  0  0  0
 25 26  1  6  0  0  0
 25 28  1  0  0  0  0
 27  2  1  6  0  0  0
 27 30  1  0  0  0  0
 28 29  1  0  0  0  0
 28 32  1  1  0  0  0
 30 31  1  1  0  0  0
 30 34  1  0  0  0  0
 32 33  2  0  0  0  0
 34 35  1  6  0  0  0
M  END
>  <CHROM.1>
-139.76422391,66.77974816,170.57103382,-174.82984129,62.29308366,75.11676066
-176.26592400,-75.05599513,179.39431817,-177.66475583,-73.48627055,-91.97468374
-50.79638788,3.78841779,-9.07367581,29.52355404,1.32528928,0.77461656,2.86735875

>  <Name>
2f4t_lig

>  <RI>
0

>  <Rbt.Current_Directory>
/home/itssahil/PROJECTS/Mol_Feturizer/New_Systems/rnas/2f4t

>  <Rbt.Executable>
rbdock ($Id: //depot/dev/client3/rdock/2013.1/src/exe/rbdock.cxx#4 $)

>  <Rbt.Library>
libRbt.so (2013.1, Build901 2013/11/27)

>  <Rbt.Parameter_File>
/export/apps/rDock/src/rDock_2013.1_src/data/scripts/dock_solv.prm

>  <Rbt.Receptor>
prm/pocket_docking_4.prm

>  <SCORE>
-10.7349

>  <SCORE.INTER>
-6.07286

>  <SCORE.INTER.CONST>
1

>  <SCORE.INTER.POLAR>
-0.794579

>  <SCORE.INTER.ROT>
13

>  <SCORE.INTER.SOLV>
15.9735

>  <SCORE.INTER.VDW>
-18.9911

>  <SCORE.INTER.norm>
-0.17351

>  <SCORE.INTRA>
-4.662

>  <SCORE.INTRA.DIHEDRAL>
-13.8356

>  <SCORE.INTRA.DIHEDRAL.0>
23.8882

>  <SCORE.INTRA.POLAR>
0

>  <SCORE.INTRA.POLAR.0>
0

>  <SCORE.INTRA.REPUL>
0

>  <SCORE.INTRA.REPUL.0>
0

>  <SCORE.INTRA.SOLV>
4.06455

>  <SCORE.INTRA.SOLV.lig_0>
-97.6888

>  <SCORE.INTRA.VDW>
0.223535

>  <SCORE.INTRA.VDW.0>
-3.9206

>  <SCORE.INTRA.norm>
-0.1332

>  <SCORE.RESTR>
0

>  <SCORE.RESTR.CAVITY>
0

>  <SCORE.RESTR.norm>
0

>  <SCORE.SYSTEM>
0

>  <SCORE.SYSTEM.CONST>
0

>  <SCORE.SYSTEM.DIHEDRAL>
0

>  <SCORE.SYSTEM.SOLV>
0

>  <SCORE.SYSTEM.norm>
0

>  <SCORE.heavy>
35

>  <SCORE.norm>
-0.30671

>  <RMSD>
8.289

$$$$
2f4t_lig
 OpenBabel11021811433D
libRbt.so/2013.1/901 2013/11/27
 35 36  0  0  0  0  0  0  0  0999 V2000
    2.5468  -12.9364   30.2158 C   0  0  2  0  0  0  0  0  0  0  0  0
    3.4047  -11.9536   29.5484 O   0  0  0  0  0  0  0  0  0  0  0  0
    2.3371   -8.1589   27.7827 C   0  0  2  0  0  0  0  0  0  0  0  0
    1.8158   -6.7893   27.6593 N   0  0  0  0  0  0  0  0  0  0  0  0
    2.9307  -12.8808   31.7255 C   0  0  2  0  0  0  0  0  0  0  0  0
    2.7838  -11.5393   32.2397 N   0  0  0  0  0  0  0  0  0  0  0  0
    1.2427   -9.0730   28.4461 C   0  0  0  0  0  0  0  0  0  0  0  0
    2.1718   -6.1647   26.0463 C   0  0  0  0  0  0  0  0  0  0  0  0
    1.4657   -4.9045   26.4954 C   0  0  1  0  0  0  0  0  0  0  0  0
    2.2382   -3.7138   25.9233 C   0  0  0  0  0  0  0  0  0  0  0  0
    3.6744   -3.5393   26.4450 C   0  0  0  0  0  0  0  0  0  0  0  0
    4.5009   -4.6175   25.8944 N   0  0  0  0  0  0  0  0  0  0  0  0
    0.1772   -4.8277   25.9439 O   0  0  0  0  0  0  0  0  0  0  0  0
    5.8410   -6.7025   27.9489 C   0  0  0  0  0  0  0  0  0  0  0  0
    6.1752   -5.9993   29.2555 C   0  0  0  0  0  0  0  0  0  0  0  0
    4.3974  -13.3915   31.9268 C   0  0  1  0  0  0  0  0  0  0  0  0
    5.2111   -4.9376   29.6189 N   0  0  0  0  0  0  0  0  0  0  0  0
    4.7643  -13.3536   33.2922 O   0  0  0  0  0  0  0  0  0  0  0  0
    1.7296  -10.5191   28.6138 C   0  0  2  0  0  0  0  0  0  0  0  0
    0.7132  -11.3372   29.2678 N   0  0  0  0  0  0  0  0  0  0  0  0
    6.2852   -3.5804   31.4177 C   0  0  0  0  0  0  0  0  0  0  0  0
    6.2822   -2.2031   30.6795 N   0  0  0  0  0  0  0  0  0  0  0  0
    5.0853   -4.4973   31.0372 C   0  0  0  0  0  0  0  0  0  0  0  0
    2.6676   -6.5536   25.1848 O   0  0  0  0  0  0  0  0  0  0  0  0
    4.4816  -14.8212   31.3821 C   0  0  2  0  0  0  0  0  0  0  0  0
    5.7871  -15.3510   31.5455 O   0  0  0  0  0  0  0  0  0  0  0  0
    2.9950  -10.5568   29.4338 C   0  0  2  0  0  0  0  0  0  0  0  0
    4.0737  -14.8416   29.8807 C   0  0  2  0  0  0  0  0  0  0  0  0
    2.7459  -14.3086   29.6955 O   0  0  0  0  0  0  0  0  0  0  0  0
    4.1160   -9.6599   28.7526 C   0  0  2  0  0  0  0  0  0  0  0  0
    5.3243   -9.7252   29.5680 O   0  0  0  0  0  0  0  0  0  0  0  0
    4.1114  -16.2110   29.3148 C   0  0  0  0  0  0  0  0  0  0  0  0
    4.8103  -16.2011   28.1585 N   0  0  0  0  0  0  0  0  0  0  0  0
    3.5971   -8.1829   28.6619 C   0  0  1  0  0  0  0  0  0  0  0  0
    4.5695   -7.3646   28.0940 O   0  0  0  0  0  0  0  0  0  0  0  0
  1  2  1  6  0  0  0
  1  5  1  0  0  0  0
  1 29  1  0  0  0  0
  3  4  1  1  0  0  0
  3  7  1  0  0  0  0
  3 34  1  0  0  0  0
  5  6  1  6  0  0  0
  5 16  1  0  0  0  0
  7 19  1  0  0  0  0
  8  4  1  0  0  0  0
  8 24  2  0  0  0  0
  9  8  1  6  0  0  0
  9 10  1  0  0  0  0
  9 13  1  0  0  0  0
 10 11  1  0  0  0  0
 11 12  1  0  0  0  0
 14 15  1  0  0  0  0
 14 35  1  0  0  0  0
 15 17  1  0  0  0  0
 16 18  1  1  0  0  0
 16 25  1  0  0  0  0
 19 20  1  1  0  0  0
 19 27  1  0  0  0  0
 21 22  1  0  0  0  0
 21 23  1  0  0  0  0
 23 17  1  0  0  0  0
 25 26  1  6  0  0  0
 25 28  1  0  0  0  0
 27  2  1  6  0  0  0
 27 30  1  0  0  0  0
 28 29  1  0  0  0  0
 28 32  1  1  0  0  0
 30 31  1  1  0  0  0
 30 34  1  0  0  0  0
 32 33  2  0  0  0  0
 34 35  1  6  0  0  0
M  END
>  <CHROM.1>
-87.98085440,-134.25016100,141.05718903,-64.41316467,70.61356095,-62.74461916
-51.16073200,157.95298719,67.72691482,76.45763053,-62.19403719,-130.29425844
-179.43650179,3.64743126,-9.18038763,29.06261062,1.53183140,0.82748725,2.87075783

>  <Name>
2f4t_lig

>  <RI>
0

>  <Rbt.Current_Directory>
/home/itssahil/PROJECTS/Mol_Feturizer/New_Systems/rnas/2f4t

>  <Rbt.Executable>
rbdock ($Id: //depot/dev/client3/rdock/2013.1/src/exe/rbdock.cxx#4 $)

>  <Rbt.Library>
libRbt.so (2013.1, Build901 2013/11/27)

>  <Rbt.Parameter_File>
/export/apps/rDock/src/rDock_2013.1_src/data/scripts/dock_solv.prm

>  <Rbt.Receptor>
prm/pocket_docking_4.prm

>  <SCORE>
-9.2672

>  <SCORE.INTER>
-7.15705

>  <SCORE.INTER.CONST>
1

>  <SCORE.INTER.POLAR>
-0.873412

>  <SCORE.INTER.ROT>
13

>  <SCORE.INTER.SOLV>
11.992

>  <SCORE.INTER.VDW>
-18.124

>  <SCORE.INTER.norm>
-0.204487

>  <SCORE.INTRA>
-2.11015

>  <SCORE.INTRA.DIHEDRAL>
-15.0108

>  <SCORE.INTRA.DIHEDRAL.0>
23.8882

>  <SCORE.INTRA.POLAR>
0

>  <SCORE.INTRA.POLAR.0>
0

>  <SCORE.INTRA.REPUL>
0

>  <SCORE.INTRA.REPUL.0>
0

>  <SCORE.INTRA.SOLV>
10.4123

>  <SCORE.INTRA.SOLV.lig_0>
-97.6888

>  <SCORE.INTRA.VDW>
0.189117

>  <SCORE.INTRA.VDW.0>
-3.9206

>  <SCORE.INTRA.norm>
-0.06029

>  <SCORE.RESTR>
0

>  <SCORE.RESTR.CAVITY>
0

>  <SCORE.RESTR.norm>
0

>  <SCORE.SYSTEM>
0

>  <SCORE.SYSTEM.CONST>
0

>  <SCORE.SYSTEM.DIHEDRAL>
0

>  <SCORE.SYSTEM.SOLV>
0

>  <SCORE.SYSTEM.norm>
0

>  <SCORE.heavy>
35

>  <SCORE.norm>
-0.264777

>  <RMSD>
8.299

$$$$
2f4t_lig
 OpenBabel11021811433D
libRbt.so/2013.1/901 2013/11/27
 35 36  0  0  0  0  0  0  0  0999 V2000
    3.5129  -12.2354   30.1877 C   0  0  2  0  0  0  0  0  0  0  0  0
    3.8618  -10.8131   30.2367 O   0  0  0  0  0  0  0  0  0  0  0  0
    2.4191   -7.4323   27.9682 C   0  0  2  0  0  0  0  0  0  0  0  0
    1.4848   -6.4835   27.3441 N   0  0  0  0  0  0  0  0  0  0  0  0
    2.1479  -12.3646   30.9291 C   0  0  2  0  0  0  0  0  0  0  0  0
    1.1572  -11.5037   30.3266 N   0  0  0  0  0  0  0  0  0  0  0  0
    2.0110   -8.8988   27.5727 C   0  0  0  0  0  0  0  0  0  0  0  0
    1.9134   -6.2633   25.6451 C   0  0  0  0  0  0  0  0  0  0  0  0
    0.7340   -5.3183   25.5811 C   0  0  1  0  0  0  0  0  0  0  0  0
    1.2774   -3.8929   25.7034 C   0  0  0  0  0  0  0  0  0  0  0  0
    1.8998   -3.5321   27.0627 C   0  0  0  0  0  0  0  0  0  0  0  0
    2.2632   -2.1120   27.0430 N   0  0  0  0  0  0  0  0  0  0  0  0
    0.1059   -5.3839   24.3276 O   0  0  0  0  0  0  0  0  0  0  0  0
    2.5681   -4.5880   30.0557 C   0  0  0  0  0  0  0  0  0  0  0  0
    3.9323   -3.9868   30.3576 C   0  0  0  0  0  0  0  0  0  0  0  0
    2.3258  -12.0233   32.4471 C   0  0  1  0  0  0  0  0  0  0  0  0
    4.5516   -4.5166   31.5922 N   0  0  0  0  0  0  0  0  0  0  0  0
    1.0982  -12.1392   33.1398 O   0  0  0  0  0  0  0  0  0  0  0  0
    2.9440   -9.9422   28.2030 C   0  0  2  0  0  0  0  0  0  0  0  0
    2.5212  -11.2951   27.8550 N   0  0  0  0  0  0  0  0  0  0  0  0
    6.4162   -4.6073   33.2495 C   0  0  0  0  0  0  0  0  0  0  0  0
    5.9655   -3.3673   34.0869 N   0  0  0  0  0  0  0  0  0  0  0  0
    6.0345   -4.5173   31.7424 C   0  0  0  0  0  0  0  0  0  0  0  0
    2.6763   -6.6527   25.0083 O   0  0  0  0  0  0  0  0  0  0  0  0
    3.3700  -12.9810   33.0302 C   0  0  2  0  0  0  0  0  0  0  0  0
    3.5710  -12.7333   34.4122 O   0  0  0  0  0  0  0  0  0  0  0  0
    2.9546   -9.8003   29.7046 C   0  0  2  0  0  0  0  0  0  0  0  0
    4.7115  -12.8390   32.2547 C   0  0  2  0  0  0  0  0  0  0  0  0
    4.5268  -13.0908   30.8462 O   0  0  0  0  0  0  0  0  0  0  0  0
    3.3965   -8.3295   30.1126 C   0  0  2  0  0  0  0  0  0  0  0  0
    3.4011   -8.2313   31.5684 O   0  0  0  0  0  0  0  0  0  0  0  0
    5.7473  -13.7687   32.7644 C   0  0  0  0  0  0  0  0  0  0  0  0
    5.7997  -14.8621   31.9723 N   0  0  0  0  0  0  0  0  0  0  0  0
    2.3786   -7.3064   29.4991 C   0  0  1  0  0  0  0  0  0  0  0  0
    2.7228   -6.0075   29.8627 O   0  0  0  0  0  0  0  0  0  0  0  0
  1  2  1  1  0  0  0
  1  5  1  0  0  0  0
  1 29  1  0  0  0  0
  3  4  1  6  0  0  0
  3  7  1  0  0  0  0
  3 34  1  0  0  0  0
  5  6  1  6  0  0  0
  5 16  1  0  0  0  0
  7 19  1  0  0  0  0
  8  4  1  0  0  0  0
  8 24  2  0  0  0  0
  9  8  1  6  0  0  0
  9 10  1  0  0  0  0
  9 13  1  0  0  0  0
 10 11  1  0  0  0  0
 11 12  1  0  0  0  0
 14 15  1  0  0  0  0
 14 35  1  0  0  0  0
 15 17  1  0  0  0  0
 16 18  1  1  0  0  0
 16 25  1  0  0  0  0
 19 20  1  1  0  0  0
 19 27  1  0  0  0  0
 21 22  1  0  0  0  0
 21 23  1  0  0  0  0
 23 17  1  0  0  0  0
 25 26  1  1  0  0  0
 25 28  1  0  0  0  0
 27  2  1  1  0  0  0
 27 30  1  0  0  0  0
 28 29  1  0  0  0  0
 28 32  1  1  0  0  0
 30 31  1  1  0  0  0
 30 34  1  0  0  0  0
 32 33  2  0  0  0  0
 34 35  1  6  0  0  0
M  END
>  <CHROM.1>
-56.69535307,-78.78193480,98.87528530,-66.91786197,-175.34870667,-61.55183406
-167.81480918,153.80809717,-64.49604427,159.09486524,-69.89391163,98.36165267
75.31807288,3.09176258,-8.38707036,29.83029489,1.24440686,1.06244709,2.90512853

>  <Name>
2f4t_lig

>  <RI>
0

>  <Rbt.Current_Directory>
/home/itssahil/PROJECTS/Mol_Feturizer/New_Systems/rnas/2f4t

>  <Rbt.Executable>
rbdock ($Id: //depot/dev/client3/rdock/2013.1/src/exe/rbdock.cxx#4 $)

>  <Rbt.Library>
libRbt.so (2013.1, Build901 2013/11/27)

>  <Rbt.Parameter_File>
/export/apps/rDock/src/rDock_2013.1_src/data/scripts/dock_solv.prm

>  <Rbt.Receptor>
prm/pocket_docking_4.prm

>  <SCORE>
-9.99015

>  <SCORE.INTER>
-7.75863

>  <SCORE.INTER.CONST>
1

>  <SCORE.INTER.POLAR>
-1.86735

>  <SCORE.INTER.ROT>
13

>  <SCORE.INTER.SOLV>
14.6712

>  <SCORE.INTER.VDW>
-16.105

>  <SCORE.INTER.norm>
-0.221675

>  <SCORE.INTRA>
-2.23152

>  <SCORE.INTRA.DIHEDRAL>
-16.985

>  <SCORE.INTRA.DIHEDRAL.0>
23.8882

>  <SCORE.INTRA.POLAR>
0

>  <SCORE.INTRA.POLAR.0>
0

>  <SCORE.INTRA.REPUL>
0

>  <SCORE.INTRA.REPUL.0>
0

>  <SCORE.INTRA.SOLV>
7.41229

>  <SCORE.INTRA.SOLV.lig_0>
-97.6888

>  <SCORE.INTRA.VDW>
2.55482

>  <SCORE.INTRA.VDW.0>
-3.9206

>  <SCORE.INTRA.norm>
-0.0637577

>  <SCORE.RESTR>
0

>  <SCORE.RESTR.CAVITY>
0

>  <SCORE.RESTR.norm>
0

>  <SCORE.SYSTEM>
0

>  <SCORE.SYSTEM.CONST>
0

>  <SCORE.SYSTEM.DIHEDRAL>
0

>  <SCORE.SYSTEM.SOLV>
0

>  <SCORE.SYSTEM.norm>
0

>  <SCORE.heavy>
35

>  <SCORE.norm>
-0.285433

>  <RMSD>
8.328

$$$$
2f4t_lig
 OpenBabel11021811433D
libRbt.so/2013.1/901 2013/11/27
 35 36  0  0  0  0  0  0  0  0999 V2000
    3.4751  -10.8533   30.9574 C   0  0  2  0  0  0  0  0  0  0  0  0
    4.6958  -10.3663   30.3094 O   0  0  0  0  0  0  0  0  0  0  0  0
    5.1466   -7.3932   27.2086 C   0  0  2  0  0  0  0  0  0  0  0  0
    5.0644   -6.1027   26.5083 N   0  0  0  0  0  0  0  0  0  0  0  0
    3.9230  -11.4179   32.3395 C   0  0  2  0  0  0  0  0  0  0  0  0
    4.6200  -10.4080   33.1009 N   0  0  0  0  0  0  0  0  0  0  0  0
    3.7213   -7.7831   27.7472 C   0  0  0  0  0  0  0  0  0  0  0  0
    4.6912   -4.8240   27.6677 C   0  0  0  0  0  0  0  0  0  0  0  0
    4.7476   -3.8826   26.4850 C   0  0  1  0  0  0  0  0  0  0  0  0
    3.3072   -3.5325   26.1048 C   0  0  0  0  0  0  0  0  0  0  0  0
    2.4357   -4.7116   25.6406 C   0  0  0  0  0  0  0  0  0  0  0  0
    1.0761   -4.2171   25.4040 N   0  0  0  0  0  0  0  0  0  0  0  0
    5.3578   -2.6690   26.8383 O   0  0  0  0  0  0  0  0  0  0  0  0
    8.7990   -6.7099   27.9782 C   0  0  0  0  0  0  0  0  0  0  0  0
    9.1943   -5.9037   26.7505 C   0  0  0  0  0  0  0  0  0  0  0  0
    4.8284  -12.6796   32.1372 C   0  0  1  0  0  0  0  0  0  0  0  0
   10.6569   -5.7502   26.5899 N   0  0  0  0  0  0  0  0  0  0  0  0
    5.2423  -13.2109   33.3809 O   0  0  0  0  0  0  0  0  0  0  0  0
    3.7403   -9.1205   28.5005 C   0  0  2  0  0  0  0  0  0  0  0  0
    2.4164   -9.4404   29.0250 N   0  0  0  0  0  0  0  0  0  0  0  0
   11.6828   -3.6235   27.4001 C   0  0  0  0  0  0  0  0  0  0  0  0
   10.3698   -2.7792   27.4705 N   0  0  0  0  0  0  0  0  0  0  0  0
   11.4678   -5.1401   27.6815 C   0  0  0  0  0  0  0  0  0  0  0  0
    4.5160   -4.7947   28.7202 O   0  0  0  0  0  0  0  0  0  0  0  0
    4.0272  -13.7171   31.3440 C   0  0  2  0  0  0  0  0  0  0  0  0
    4.7883  -14.8957   31.1356 O   0  0  0  0  0  0  0  0  0  0  0  0
    4.7234   -9.0673   29.6432 C   0  0  2  0  0  0  0  0  0  0  0  0
    3.5808  -13.1136   29.9810 C   0  0  2  0  0  0  0  0  0  0  0  0
    2.8020  -11.9145   30.1737 O   0  0  0  0  0  0  0  0  0  0  0  0
    6.1728   -8.7044   29.1024 C   0  0  2  0  0  0  0  0  0  0  0  0
    7.0959   -8.6679   30.2318 O   0  0  0  0  0  0  0  0  0  0  0  0
    2.7755  -14.0723   29.1877 C   0  0  0  0  0  0  0  0  0  0  0  0
    1.4615  -13.8228   29.3793 N   0  0  0  0  0  0  0  0  0  0  0  0
    6.1147   -7.3042   28.3986 C   0  0  1  0  0  0  0  0  0  0  0  0
    7.3779   -6.9441   27.9375 O   0  0  0  0  0  0  0  0  0  0  0  0
  1  2  1  6  0  0  0
  1  5  1  0  0  0  0
  1 29  1  0  0  0  0
  3  4  1  1  0  0  0
  3  7  1  0  0  0  0
  3 34  1  0  0  0  0
  5  6  1  6  0  0  0
  5 16  1  0  0  0  0
  7 19  1  0  0  0  0
  8  4  1  0  0  0  0
  8 24  2  0  0  0  0
  9  8  1  1  0  0  0
  9 10  1  0  0  0  0
  9 13  1  0  0  0  0
 10 11  1  0  0  0  0
 11 12  1  0  0  0  0
 14 15  1  0  0  0  0
 14 35  1  0  0  0  0
 15 17  1  0  0  0  0
 16 18  1  1  0  0  0
 16 25  1  0  0  0  0
 19 20  1  1  0  0  0
 19 27  1  0  0  0  0
 21 22  1  0  0  0  0
 21 23  1  0  0  0  0
 23 17  1  0  0  0  0
 25 26  1  6  0  0  0
 25 28  1  0  0  0  0
 27  2  1  6  0  0  0
 27 30  1  0  0  0  0
 28 29  1  0  0  0  0
 28 32  1  1  0  0  0
 30 31  1  1  0  0  0
 30 34  1  0  0  0  0
 32 33  2  0  0  0  0
 34 35  1  6  0  0  0
M  END
>  <CHROM.1>
-134.74672435,67.02720048,103.54580539,-62.80602039,176.31558926,-172.50641285
-166.28002306,-56.93085794,66.71696873,-96.08295789,-62.75408220,96.68529076
-169.32291105,5.33859796,-8.27087504,28.83147625,1.94716557,0.17453220,2.61818197

>  <Name>
2f4t_lig

>  <RI>
0

>  <Rbt.Current_Directory>
/home/itssahil/PROJECTS/Mol_Feturizer/New_Systems/rnas/2f4t

>  <Rbt.Executable>
rbdock ($Id: //depot/dev/client3/rdock/2013.1/src/exe/rbdock.cxx#4 $)

>  <Rbt.Library>
libRbt.so (2013.1, Build901 2013/11/27)

>  <Rbt.Parameter_File>
/export/apps/rDock/src/rDock_2013.1_src/data/scripts/dock_solv.prm

>  <Rbt.Receptor>
prm/pocket_docking_8.prm

>  <SCORE>
-10.791

>  <SCORE.INTER>
-9.12575

>  <SCORE.INTER.CONST>
1

>  <SCORE.INTER.POLAR>
-1.52393

>  <SCORE.INTER.ROT>
13

>  <SCORE.INTER.SOLV>
14.4648

>  <SCORE.INTER.VDW>
-18.0923

>  <SCORE.INTER.norm>
-0.260736

>  <SCORE.INTRA>
-1.66522

>  <SCORE.INTRA.DIHEDRAL>
-11.563

>  <SCORE.INTRA.DIHEDRAL.0>
23.8882

>  <SCORE.INTRA.POLAR>
0

>  <SCORE.INTRA.POLAR.0>
0

>  <SCORE.INTRA.REPUL>
0

>  <SCORE.INTRA.REPUL.0>
0

>  <SCORE.INTRA.SOLV>
3.85415

>  <SCORE.INTRA.SOLV.lig_0>
-97.6888

>  <SCORE.INTRA.VDW>
2.1892

>  <SCORE.INTRA.VDW.0>
-3.9206

>  <SCORE.INTRA.norm>
-0.0475776

>  <SCORE.RESTR>
0

>  <SCORE.RESTR.CAVITY>
0

>  <SCORE.RESTR.norm>
0

>  <SCORE.SYSTEM>
0

>  <SCORE.SYSTEM.CONST>
0

>  <SCORE.SYSTEM.DIHEDRAL>
0

>  <SCORE.SYSTEM.SOLV>
0

>  <SCORE.SYSTEM.norm>
0

>  <SCORE.heavy>
35

>  <SCORE.norm>
-0.308313

>  <RMSD>
8.338

$$$$
2f4t_lig
 OpenBabel11021811433D
libRbt.so/2013.1/901 2013/11/27
 35 36  0  0  0  0  0  0  0  0999 V2000
    4.8151  -11.4821   31.8657 C   0  0  2  0  0  0  0  0  0  0  0  0
    3.9721  -11.3767   30.6717 O   0  0  0  0  0  0  0  0  0  0  0  0
    3.7642   -8.1516   27.8059 C   0  0  2  0  0  0  0  0  0  0  0  0
    3.3559   -6.8882   27.1737 N   0  0  0  0  0  0  0  0  0  0  0  0
    4.6563  -12.9481   32.3708 C   0  0  2  0  0  0  0  0  0  0  0  0
    5.0056  -13.8864   31.3301 N   0  0  0  0  0  0  0  0  0  0  0  0
    2.4827   -8.9880   28.1691 C   0  0  0  0  0  0  0  0  0  0  0  0
    4.7314   -6.1838   26.3188 C   0  0  0  0  0  0  0  0  0  0  0  0
    3.7839   -5.0696   25.9329 C   0  0  1  0  0  0  0  0  0  0  0  0
    4.6157   -3.7977   25.7534 C   0  0  0  0  0  0  0  0  0  0  0  0
    5.1664   -3.1743   27.0469 C   0  0  0  0  0  0  0  0  0  0  0  0
    4.0344   -2.8227   27.9095 N   0  0  0  0  0  0  0  0  0  0  0  0
    3.1938   -5.3225   24.6847 O   0  0  0  0  0  0  0  0  0  0  0  0
    6.9533   -6.4733   28.9982 C   0  0  0  0  0  0  0  0  0  0  0  0
    8.0145   -7.5338   29.2488 C   0  0  0  0  0  0  0  0  0  0  0  0
    3.1899  -13.1912   32.8638 C   0  0  1  0  0  0  0  0  0  0  0  0
    8.9906   -7.1578   30.2949 N   0  0  0  0  0  0  0  0  0  0  0  0
    3.0256  -14.5159   33.3313 O   0  0  0  0  0  0  0  0  0  0  0  0
    2.8406  -10.3191   28.8447 C   0  0  2  0  0  0  0  0  0  0  0  0
    1.6355  -11.0578   29.2085 N   0  0  0  0  0  0  0  0  0  0  0  0
   10.3152   -5.4311   31.5178 C   0  0  0  0  0  0  0  0  0  0  0  0
   10.8823   -3.9752   31.4924 N   0  0  0  0  0  0  0  0  0  0  0  0
    9.8322   -5.9392   30.1272 C   0  0  0  0  0  0  0  0  0  0  0  0
    5.7503   -6.4679   26.1764 O   0  0  0  0  0  0  0  0  0  0  0  0
    2.8894  -12.1821   33.9769 C   0  0  2  0  0  0  0  0  0  0  0  0
    1.5744  -12.3566   34.4793 O   0  0  0  0  0  0  0  0  0  0  0  0
    3.6627  -10.0756   30.0855 C   0  0  2  0  0  0  0  0  0  0  0  0
    3.0764  -10.7325   33.4433 C   0  0  2  0  0  0  0  0  0  0  0  0
    4.4105  -10.5356   32.9305 O   0  0  0  0  0  0  0  0  0  0  0  0
    4.9754   -9.2577   29.7211 C   0  0  2  0  0  0  0  0  0  0  0  0
    5.7468   -9.0466   30.9415 O   0  0  0  0  0  0  0  0  0  0  0  0
    2.8246   -9.7183   34.4944 C   0  0  0  0  0  0  0  0  0  0  0  0
    1.6711   -9.0682   34.2254 N   0  0  0  0  0  0  0  0  0  0  0  0
    4.5574   -7.8824   29.0941 C   0  0  1  0  0  0  0  0  0  0  0  0
    5.6873   -7.1287   28.7891 O   0  0  0  0  0  0  0  0  0  0  0  0
  1  2  1  6  0  0  0
  1  5  1  0  0  0  0
  1 29  1  0  0  0  0
  3  4  1  1  0  0  0
  3  7  1  0  0  0  0
  3 34  1  0  0  0  0
  5  6  1  6  0  0  0
  5 16  1  0  0  0  0
  7 19  1  0  0  0  0
  8  4  1  0  0  0  0
  8 24  2  0  0  0  0
  9  8  1  6  0  0  0
  9 10  1  0  0  0  0
  9 13  1  0  0  0  0
 10 11  1  0  0  0  0
 11 12  1  0  0  0  0
 14 15  1  0  0  0  0
 14 35  1  0  0  0  0
 15 17  1  0  0  0  0
 16 18  1  1  0  0  0
 16 25  1  0  0  0  0
 19 20  1  1  0  0  0
 19 27  1  0  0  0  0
 21 22  1  0  0  0  0
 21 23  1  0  0  0  0
 23 17  1  0  0  0  0
 25 26  1  6  0  0  0
 25 28  1  0  0  0  0
 27  2  1  6  0  0  0
 27 30  1  0  0  0  0
 28 29  1  0  0  0  0
 28 32  1  1  0  0  0
 30 31  1  1  0  0  0
 30 34  1  0  0  0  0
 32 33  2  0  0  0  0
 34 35  1  6  0  0  0
M  END
>  <CHROM.1>
167.59494287,-162.42862179,151.14026915,-71.63857341,-60.12065290,-140.50295485
65.99129059,-60.16074870,-164.99254739,156.84439665,177.29672482,-109.31922732
-171.57355290,4.75114484,-8.58096505,30.03909777,-1.92523726,-0.50356443
-0.81974554

>  <Name>
2f4t_lig

>  <RI>
0

>  <Rbt.Current_Directory>
/home/itssahil/PROJECTS/Mol_Feturizer/New_Systems/rnas/2f4t

>  <Rbt.Executable>
rbdock ($Id: //depot/dev/client3/rdock/2013.1/src/exe/rbdock.cxx#4 $)

>  <Rbt.Library>
libRbt.so (2013.1, Build901 2013/11/27)

>  <Rbt.Parameter_File>
/export/apps/rDock/src/rDock_2013.1_src/data/scripts/dock_solv.prm

>  <Rbt.Receptor>
prm/pocket_docking_5.prm

>  <SCORE>
-19.9143

>  <SCORE.INTER>
-13.4245

>  <SCORE.INTER.CONST>
1

>  <SCORE.INTER.POLAR>
-2.82464

>  <SCORE.INTER.ROT>
13

>  <SCORE.INTER.SOLV>
15.6272

>  <SCORE.INTER.VDW>
-17.0099

>  <SCORE.INTER.norm>
-0.383557

>  <SCORE.INTRA>
-6.48985

>  <SCORE.INTRA.DIHEDRAL>
-14.1906

>  <SCORE.INTRA.DIHEDRAL.0>
23.8882

>  <SCORE.INTRA.POLAR>
0

>  <SCORE.INTRA.POLAR.0>
0

>  <SCORE.INTRA.REPUL>
0

>  <SCORE.INTRA.REPUL.0>
0

>  <SCORE.INTRA.SOLV>
1.08401

>  <SCORE.INTRA.SOLV.lig_0>
-97.6888

>  <SCORE.INTRA.VDW>
0.0634324

>  <SCORE.INTRA.VDW.0>
-3.9206

>  <SCORE.INTRA.norm>
-0.185424

>  <SCORE.RESTR>
0

>  <SCORE.RESTR.CAVITY>
0

>  <SCORE.RESTR.norm>
0

>  <SCORE.SYSTEM>
0

>  <SCORE.SYSTEM.CONST>
0

>  <SCORE.SYSTEM.DIHEDRAL>
0

>  <SCORE.SYSTEM.SOLV>
0

>  <SCORE.SYSTEM.norm>
0

>  <SCORE.heavy>
35

>  <SCORE.norm>
-0.568981

>  <RMSD>
8.348

$$$$
2f4t_lig
 OpenBabel11021811433D
libRbt.so/2013.1/901 2013/11/27
 35 36  0  0  0  0  0  0  0  0999 V2000
    4.9328  -12.0245   31.9711 C   0  0  2  0  0  0  0  0  0  0  0  0
    4.3957  -11.6954   30.6480 O   0  0  0  0  0  0  0  0  0  0  0  0
    4.0046   -7.9865   28.4690 C   0  0  2  0  0  0  0  0  0  0  0  0
    3.5144   -6.6547   28.0835 N   0  0  0  0  0  0  0  0  0  0  0  0
    4.6316  -13.5383   32.1882 C   0  0  2  0  0  0  0  0  0  0  0  0
    5.1972  -14.3288   31.1202 N   0  0  0  0  0  0  0  0  0  0  0  0
    2.7838   -8.9677   28.6112 C   0  0  0  0  0  0  0  0  0  0  0  0
    3.3837   -6.5594   26.3249 C   0  0  0  0  0  0  0  0  0  0  0  0
    2.8878   -5.1475   26.5454 C   0  0  1  0  0  0  0  0  0  0  0  0
    4.1078   -4.2237   26.5403 C   0  0  0  0  0  0  0  0  0  0  0  0
    3.8619   -2.7932   27.0488 C   0  0  0  0  0  0  0  0  0  0  0  0
    5.1094   -2.0346   26.9175 N   0  0  0  0  0  0  0  0  0  0  0  0
    2.0819   -4.7260   25.4763 O   0  0  0  0  0  0  0  0  0  0  0  0
    6.9591   -6.2705   30.1269 C   0  0  0  0  0  0  0  0  0  0  0  0
    6.5040   -5.2644   31.1730 C   0  0  0  0  0  0  0  0  0  0  0  0
    3.0861  -13.7704   32.2878 C   0  0  1  0  0  0  0  0  0  0  0  0
    7.6111   -4.4724   31.7524 N   0  0  0  0  0  0  0  0  0  0  0  0
    2.7912  -15.1388   32.4899 O   0  0  0  0  0  0  0  0  0  0  0  0
    3.2280  -10.3780   29.0239 C   0  0  2  0  0  0  0  0  0  0  0  0
    2.0758  -11.2585   29.1887 N   0  0  0  0  0  0  0  0  0  0  0  0
    6.9304   -3.7343   34.0379 C   0  0  0  0  0  0  0  0  0  0  0  0
    6.5809   -2.5507   34.9965 N   0  0  0  0  0  0  0  0  0  0  0  0
    7.3140   -3.2816   32.5981 C   0  0  0  0  0  0  0  0  0  0  0  0
    3.5820   -7.2333   25.5213 O   0  0  0  0  0  0  0  0  0  0  0  0
    2.5522  -12.9236   33.4477 C   0  0  2  0  0  0  0  0  0  0  0  0
    1.1530  -13.0976   33.6018 O   0  0  0  0  0  0  0  0  0  0  0  0
    4.0000  -10.3290   30.3187 C   0  0  2  0  0  0  0  0  0  0  0  0
    2.8872  -11.4232   33.2071 C   0  0  2  0  0  0  0  0  0  0  0  0
    4.3079  -11.2264   33.0509 O   0  0  0  0  0  0  0  0  0  0  0  0
    5.2534   -9.3633   30.1729 C   0  0  2  0  0  0  0  0  0  0  0  0
    5.9779   -9.3455   31.4394 O   0  0  0  0  0  0  0  0  0  0  0  0
    2.4153  -10.5648   34.3194 C   0  0  0  0  0  0  0  0  0  0  0  0
    3.1726   -9.4472   34.3778 N   0  0  0  0  0  0  0  0  0  0  0  0
    4.7447   -7.9239   29.8142 C   0  0  1  0  0  0  0  0  0  0  0  0
    5.8195   -7.0458   29.7070 O   0  0  0  0  0  0  0  0  0  0  0  0
  1  2  1  6  0  0  0
  1  5  1  0  0  0  0
  1 29  1  0  0  0  0
  3  4  1  1  0  0  0
  3  7  1  0  0  0  0
  3 34  1  0  0  0  0
  5  6  1  6  0  0  0
  5 16  1  0  0  0  0
  7 19  1  0  0  0  0
  8  4  1  0  0  0  0
  8 24  2  0  0  0  0
  9  8  1  6  0  0  0
  9 10  1  0  0  0  0
  9 13  1  0  0  0  0
 10 11  1  0  0  0  0
 11 12  1  0  0  0  0
 14 15  1  0  0  0  0
 14 35  1  0  0  0  0
 15 17  1  0  0  0  0
 16 18  1  1  0  0  0
 16 25  1  0  0  0  0
 19 20  1  1  0  0  0
 19 27  1  0  0  0  0
 21 22  1  0  0  0  0
 21 23  1  0  0  0  0
 23 17  1  0  0  0  0
 25 26  1  6  0  0  0
 25 28  1  0  0  0  0
 27  2  1  6  0  0  0
 27 30  1  0  0  0  0
 28 29  1  0  0  0  0
 28 32  1  1  0  0  0
 30 31  1  1  0  0  0
 30 34  1  0  0  0  0
 32 33  2  0  0  0  0
 34 35  1  6  0  0  0
M  END
>  <CHROM.1>
154.90989317,-87.15475698,89.89134127,-167.24079854,-177.40394282,175.85489093
-62.50217327,168.74423436,-179.19407777,79.46426405,-168.03673234,154.13844906
176.11588670,4.28187909,-8.48444671,30.47119856,-1.94105285,-1.08593053,-0.75059771

>  <Name>
2f4t_lig

>  <RI>
0

>  <Rbt.Current_Directory>
/home/itssahil/PROJECTS/Mol_Feturizer/New_Systems/rnas/2f4t

>  <Rbt.Executable>
rbdock ($Id: //depot/dev/client3/rdock/2013.1/src/exe/rbdock.cxx#4 $)

>  <Rbt.Library>
libRbt.so (2013.1, Build901 2013/11/27)

>  <Rbt.Parameter_File>
/export/apps/rDock/src/rDock_2013.1_src/data/scripts/dock_solv.prm

>  <Rbt.Receptor>
prm/pocket_docking_3.prm

>  <SCORE>
-8.68869

>  <SCORE.INTER>
-1.08991

>  <SCORE.INTER.CONST>
1

>  <SCORE.INTER.POLAR>
-1.70753

>  <SCORE.INTER.ROT>
13

>  <SCORE.INTER.SOLV>
13.8055

>  <SCORE.INTER.VDW>
-11.9033

>  <SCORE.INTER.norm>
-0.0311402

>  <SCORE.INTRA>
-8.21214

>  <SCORE.INTRA.DIHEDRAL>
-15.8611

>  <SCORE.INTRA.DIHEDRAL.0>
23.8882

>  <SCORE.INTRA.POLAR>
0

>  <SCORE.INTRA.POLAR.0>
0

>  <SCORE.INTRA.REPUL>
0

>  <SCORE.INTRA.REPUL.0>
0

>  <SCORE.INTRA.SOLV>
-1.34003

>  <SCORE.INTRA.SOLV.lig_0>
-97.6888

>  <SCORE.INTRA.VDW>
0.388422

>  <SCORE.INTRA.VDW.0>
-3.9206

>  <SCORE.INTRA.norm>
-0.234633

>  <SCORE.RESTR>
0.613354

>  <SCORE.RESTR.CAVITY>
0.613354

>  <SCORE.RESTR.norm>
0.0175244

>  <SCORE.SYSTEM>
0

>  <SCORE.SYSTEM.CONST>
0

>  <SCORE.SYSTEM.DIHEDRAL>
0

>  <SCORE.SYSTEM.SOLV>
0

>  <SCORE.SYSTEM.norm>
0

>  <SCORE.heavy>
35

>  <SCORE.norm>
-0.248248

>  <RMSD>
8.353

$$$$
2f4t_lig
 OpenBabel11021811433D
libRbt.so/2013.1/901 2013/11/27
 35 36  0  0  0  0  0  0  0  0999 V2000
    4.0569  -11.9207   31.7580 C   0  0  2  0  0  0  0  0  0  0  0  0
    4.4160  -10.7573   30.9427 O   0  0  0  0  0  0  0  0  0  0  0  0
    6.0847   -6.9470   32.1063 C   0  0  2  0  0  0  0  0  0  0  0  0
    6.9999   -5.9632   32.7040 N   0  0  0  0  0  0  0  0  0  0  0  0
    3.7180  -13.0594   30.7489 C   0  0  2  0  0  0  0  0  0  0  0  0
    4.8286  -13.2973   29.8572 N   0  0  0  0  0  0  0  0  0  0  0  0
    5.6949   -8.0183   33.1898 C   0  0  0  0  0  0  0  0  0  0  0  0
    6.0967   -4.5143   33.1557 C   0  0  0  0  0  0  0  0  0  0  0  0
    7.4198   -3.9742   33.6515 C   0  0  1  0  0  0  0  0  0  0  0  0
    7.6087   -2.5838   33.0409 C   0  0  0  0  0  0  0  0  0  0  0  0
    6.6256   -1.5048   33.5252 C   0  0  0  0  0  0  0  0  0  0  0  0
    6.8994   -0.2661   32.7906 N   0  0  0  0  0  0  0  0  0  0  0  0
    7.3946   -3.7834   35.0418 O   0  0  0  0  0  0  0  0  0  0  0  0
    7.7890   -5.5797   29.4006 C   0  0  0  0  0  0  0  0  0  0  0  0
    7.3801   -5.4468   27.9416 C   0  0  0  0  0  0  0  0  0  0  0  0
    2.4283  -12.6942   29.9391 C   0  0  1  0  0  0  0  0  0  0  0  0
    5.9339   -5.1984   27.7533 N   0  0  0  0  0  0  0  0  0  0  0  0
    2.1003  -13.7179   29.0199 O   0  0  0  0  0  0  0  0  0  0  0  0
    4.7460   -9.0845   32.6249 C   0  0  2  0  0  0  0  0  0  0  0  0
    4.4315  -10.0888   33.6363 N   0  0  0  0  0  0  0  0  0  0  0  0
    3.7617   -5.2156   26.5233 C   0  0  0  0  0  0  0  0  0  0  0  0
    2.9757   -5.6181   25.2341 N   0  0  0  0  0  0  0  0  0  0  0  0
    5.2476   -5.6822   26.5219 C   0  0  0  0  0  0  0  0  0  0  0  0
    5.0744   -4.2160   33.0839 O   0  0  0  0  0  0  0  0  0  0  0  0
    1.2866  -12.4754   30.9371 C   0  0  2  0  0  0  0  0  0  0  0  0
    0.0798  -12.1520   30.2656 O   0  0  0  0  0  0  0  0  0  0  0  0
    5.3691   -9.7651   31.4318 C   0  0  2  0  0  0  0  0  0  0  0  0
    1.6669  -11.3473   31.9390 C   0  0  2  0  0  0  0  0  0  0  0  0
    2.8916  -11.6607   32.6343 O   0  0  0  0  0  0  0  0  0  0  0  0
    5.7372   -8.6918   30.3194 C   0  0  2  0  0  0  0  0  0  0  0  0
    6.3305   -9.3853   29.1809 O   0  0  0  0  0  0  0  0  0  0  0  0
    0.6030  -11.1180   32.9453 C   0  0  0  0  0  0  0  0  0  0  0  0
   -0.2825  -10.2166   32.4667 N   0  0  0  0  0  0  0  0  0  0  0  0
    6.7555   -7.6642   30.9245 C   0  0  1  0  0  0  0  0  0  0  0  0
    7.1203   -6.7249   29.9640 O   0  0  0  0  0  0  0  0  0  0  0  0
  1  2  1  6  0  0  0
  1  5  1  0  0  0  0
  1 29  1  0  0  0  0
  3  4  1  1  0  0  0
  3  7  1  0  0  0  0
  3 34  1  0  0  0  0
  5  6  1  6  0  0  0
  5 16  1  0  0  0  0
  7 19  1  0  0  0  0
  8  4  1  0  0  0  0
  8 24  2  0  0  0  0
  9  8  1  6  0  0  0
  9 10  1  0  0  0  0
  9 13  1  0  0  0  0
 10 11  1  0  0  0  0
 11 12  1  0  0  0  0
 14 15  1  0  0  0  0
 14 35  1  0  0  0  0
 15 17  1  0  0  0  0
 16 18  1  6  0  0  0
 16 25  1  0  0  0  0
 19 20  1  1  0  0  0
 19 27  1  0  0  0  0
 21 22  1  0  0  0  0
 21 23  1  0  0  0  0
 23 17  1  0  0  0  0
 25 26  1  6  0  0  0
 25 28  1  0  0  0  0
 27  2  1  6  0  0  0
 27 30  1  0  0  0  0
 28 29  1  0  0  0  0
 28 32  1  1  0  0  0
 30 31  1  6  0  0  0
 30 34  1  0  0  0  0
 32 33  2  0  0  0  0
 34 35  1  6  0  0  0
M  END
>  <CHROM.1>
-149.99766498,-99.41394218,129.23392798,66.98450277,-176.91295536,62.71001579
179.18068300,-150.09234847,177.21384957,-176.31525020,-65.59467518,-88.08856854
60.43423207,4.77780534,-8.01107430,31.04748885,3.11170260,-1.08909187,-1.48465380

>  <Name>
2f4t_lig

>  <RI>
0

>  <Rbt.Current_Directory>
/home/itssahil/PROJECTS/Mol_Feturizer/New_Systems/rnas/2f4t

>  <Rbt.Executable>
rbdock ($Id: //depot/dev/client3/rdock/2013.1/src/exe/rbdock.cxx#4 $)

>  <Rbt.Library>
libRbt.so (2013.1, Build901 2013/11/27)

>  <Rbt.Parameter_File>
/export/apps/rDock/src/rDock_2013.1_src/data/scripts/dock_solv.prm

>  <Rbt.Receptor>
prm/pocket_docking_5.prm

>  <SCORE>
-8.63786

>  <SCORE.INTER>
-4.13083

>  <SCORE.INTER.CONST>
1

>  <SCORE.INTER.POLAR>
-2.49194

>  <SCORE.INTER.ROT>
13

>  <SCORE.INTER.SOLV>
16.6206

>  <SCORE.INTER.VDW>
-12.2543

>  <SCORE.INTER.norm>
-0.118024

>  <SCORE.INTRA>
-4.50703

>  <SCORE.INTRA.DIHEDRAL>
-14.6865

>  <SCORE.INTRA.DIHEDRAL.0>
23.8882

>  <SCORE.INTRA.POLAR>
0

>  <SCORE.INTRA.POLAR.0>
0

>  <SCORE.INTRA.REPUL>
0

>  <SCORE.INTRA.REPUL.0>
0

>  <SCORE.INTRA.SOLV>
2.15228

>  <SCORE.INTRA.SOLV.lig_0>
-97.6888

>  <SCORE.INTRA.VDW>
1.76006

>  <SCORE.INTRA.VDW.0>
-3.9206

>  <SCORE.INTRA.norm>
-0.128772

>  <SCORE.RESTR>
0

>  <SCORE.RESTR.CAVITY>
0

>  <SCORE.RESTR.norm>
0

>  <SCORE.SYSTEM>
0

>  <SCORE.SYSTEM.CONST>
0

>  <SCORE.SYSTEM.DIHEDRAL>
0

>  <SCORE.SYSTEM.SOLV>
0

>  <SCORE.SYSTEM.norm>
0

>  <SCORE.heavy>
35

>  <SCORE.norm>
-0.246796

>  <RMSD>
8.372

$$$$
2f4t_lig
 OpenBabel11021811433D
libRbt.so/2013.1/901 2013/11/27
 35 36  0  0  0  0  0  0  0  0999 V2000
    3.2160  -12.0914   31.3601 C   0  0  2  0  0  0  0  0  0  0  0  0
    3.6453  -11.6510   30.0300 O   0  0  0  0  0  0  0  0  0  0  0  0
    3.8260   -8.0326   27.6779 C   0  0  2  0  0  0  0  0  0  0  0  0
    3.4486   -6.7239   27.1236 N   0  0  0  0  0  0  0  0  0  0  0  0
    3.5882  -13.6024   31.4488 C   0  0  2  0  0  0  0  0  0  0  0  0
    4.9978  -13.7955   31.2013 N   0  0  0  0  0  0  0  0  0  0  0  0
    2.6158   -9.0265   27.5322 C   0  0  0  0  0  0  0  0  0  0  0  0
    4.8589   -5.9712   26.3731 C   0  0  0  0  0  0  0  0  0  0  0  0
    3.9326   -4.8246   26.0335 C   0  0  1  0  0  0  0  0  0  0  0  0
    4.8002   -3.5894   25.7812 C   0  0  0  0  0  0  0  0  0  0  0  0
    5.5550   -3.0448   27.0054 C   0  0  0  0  0  0  0  0  0  0  0  0
    6.3506   -1.8886   26.5818 N   0  0  0  0  0  0  0  0  0  0  0  0
    3.2521   -5.0687   24.8304 O   0  0  0  0  0  0  0  0  0  0  0  0
    6.5206   -6.4051   29.0454 C   0  0  0  0  0  0  0  0  0  0  0  0
    7.5442   -7.5015   28.7932 C   0  0  0  0  0  0  0  0  0  0  0  0
    2.7310  -14.4282   30.4310 C   0  0  1  0  0  0  0  0  0  0  0  0
    8.5387   -7.1543   27.7545 N   0  0  0  0  0  0  0  0  0  0  0  0
    3.0503  -15.8043   30.4989 O   0  0  0  0  0  0  0  0  0  0  0  0
    2.9420  -10.4133   28.1038 C   0  0  2  0  0  0  0  0  0  0  0  0
    1.7915  -11.3046   27.9939 N   0  0  0  0  0  0  0  0  0  0  0  0
    9.5427   -4.9107   27.3194 C   0  0  0  0  0  0  0  0  0  0  0  0
    9.5734   -5.0661   25.7647 N   0  0  0  0  0  0  0  0  0  0  0  0
    9.6829   -6.2588   28.0863 C   0  0  0  0  0  0  0  0  0  0  0  0
    5.8809   -6.2525   26.2486 O   0  0  0  0  0  0  0  0  0  0  0  0
    1.2521  -14.1979   30.7587 C   0  0  2  0  0  0  0  0  0  0  0  0
    0.4164  -14.9308   29.8776 O   0  0  0  0  0  0  0  0  0  0  0  0
    3.3441  -10.3041   29.5534 C   0  0  2  0  0  0  0  0  0  0  0  0
    0.9215  -12.6795   30.6795 C   0  0  2  0  0  0  0  0  0  0  0  0
    1.7606  -11.9176   31.5723 O   0  0  0  0  0  0  0  0  0  0  0  0
    4.5867   -9.3254   29.7049 C   0  0  2  0  0  0  0  0  0  0  0  0
    4.9506   -9.2492   31.1159 O   0  0  0  0  0  0  0  0  0  0  0  0
   -0.4947  -12.4022   31.0178 C   0  0  0  0  0  0  0  0  0  0  0  0
   -0.6526  -12.4397   32.3592 N   0  0  0  0  0  0  0  0  0  0  0  0
    4.1839   -7.9084   29.1671 C   0  0  1  0  0  0  0  0  0  0  0  0
    5.2445   -7.0186   29.3123 O   0  0  0  0  0  0  0  0  0  0  0  0
  1  2  1  6  0  0  0
  1  5  1  0  0  0  0
  1 29  1  0  0  0  0
  3  4  1  1  0  0  0
  3  7  1  0  0  0  0
  3 34  1  0  0  0  0
  5  6  1  6  0  0  0
  5 16  1  0  0  0  0
  7 19  1  0  0  0  0
  8  4  1  0  0  0  0
  8 24  2  0  0  0  0
  9  8  1  6  0  0  0
  9 10  1  0  0  0  0
  9 13  1  0  0  0  0
 10 11  1  0  0  0  0
 11 12  1  0  0  0  0
 14 15  1  0  0  0  0
 14 35  1  0  0  0  0
 15 17  1  0  0  0  0
 16 18  1  1  0  0  0
 16 25  1  0  0  0  0
 19 20  1  1  0  0  0
 19 27  1  0  0  0  0
 21 22  1  0  0  0  0
 21 23  1  0  0  0  0
 23 17  1  0  0  0  0
 25 26  1  6  0  0  0
 25 28  1  0  0  0  0
 27  2  1  6  0  0  0
 27 30  1  0  0  0  0
 28 29  1  0  0  0  0
 28 32  1  1  0  0  0
 30 31  1  1  0  0  0
 30 34  1  0  0  0  0
 32 33  2  0  0  0  0
 34 35  1  6  0  0  0
M  END
>  <CHROM.1>
174.51862688,-145.60475447,159.03718467,-66.59661288,178.85505714,143.43167147
-42.23373274,78.84513593,-62.04582869,-112.96680421,-138.99830364,78.30265043
-45.93582011,4.22033390,-9.06895027,28.80517086,-2.04625760,-0.15091182,-0.51436717

>  <Name>
2f4t_lig

>  <RI>
0

>  <Rbt.Current_Directory>
/home/itssahil/PROJECTS/Mol_Feturizer/New_Systems/rnas/2f4t

>  <Rbt.Executable>
rbdock ($Id: //depot/dev/client3/rdock/2013.1/src/exe/rbdock.cxx#4 $)

>  <Rbt.Library>
libRbt.so (2013.1, Build901 2013/11/27)

>  <Rbt.Parameter_File>
/export/apps/rDock/src/rDock_2013.1_src/data/scripts/dock_solv.prm

>  <Rbt.Receptor>
prm/pocket_docking_6.prm

>  <SCORE>
-14.7182

>  <SCORE.INTER>
-12.0008

>  <SCORE.INTER.CONST>
1

>  <SCORE.INTER.POLAR>
-2.71

>  <SCORE.INTER.ROT>
13

>  <SCORE.INTER.SOLV>
15.9582

>  <SCORE.INTER.VDW>
-16.5533

>  <SCORE.INTER.norm>
-0.342881

>  <SCORE.INTRA>
-2.71737

>  <SCORE.INTRA.DIHEDRAL>
-6.82681

>  <SCORE.INTRA.DIHEDRAL.0>
23.8882

>  <SCORE.INTRA.POLAR>
0

>  <SCORE.INTRA.POLAR.0>
0

>  <SCORE.INTRA.REPUL>
0

>  <SCORE.INTRA.REPUL.0>
0

>  <SCORE.INTRA.SOLV>
4.15908

>  <SCORE.INTRA.SOLV.lig_0>
-97.6888

>  <SCORE.INTRA.VDW>
-1.38351

>  <SCORE.INTRA.VDW.0>
-3.9206

>  <SCORE.INTRA.norm>
-0.0776393

>  <SCORE.RESTR>
0

>  <SCORE.RESTR.CAVITY>
0

>  <SCORE.RESTR.norm>
0

>  <SCORE.SYSTEM>
0

>  <SCORE.SYSTEM.CONST>
0

>  <SCORE.SYSTEM.DIHEDRAL>
0

>  <SCORE.SYSTEM.SOLV>
0

>  <SCORE.SYSTEM.norm>
0

>  <SCORE.heavy>
35

>  <SCORE.norm>
-0.42052

>  <RMSD>
8.372

$$$$
2f4t_lig
 OpenBabel11021811433D
libRbt.so/2013.1/901 2013/11/27
 35 36  0  0  0  0  0  0  0  0999 V2000
    4.7907  -11.5554   31.8245 C   0  0  2  0  0  0  0  0  0  0  0  0
    4.0375  -11.0245   30.6851 O   0  0  0  0  0  0  0  0  0  0  0  0
    4.6395   -7.5434   28.1998 C   0  0  2  0  0  0  0  0  0  0  0  0
    4.6602   -6.1362   27.7733 N   0  0  0  0  0  0  0  0  0  0  0  0
    4.3470  -13.0423   31.9724 C   0  0  2  0  0  0  0  0  0  0  0  0
    4.5703  -13.7655   30.7426 N   0  0  0  0  0  0  0  0  0  0  0  0
    3.2118   -7.8956   28.7576 C   0  0  0  0  0  0  0  0  0  0  0  0
    3.9193   -5.9919   26.1767 C   0  0  0  0  0  0  0  0  0  0  0  0
    4.2022   -4.5108   26.2974 C   0  0  1  0  0  0  0  0  0  0  0  0
    5.3873   -4.1912   25.3834 C   0  0  0  0  0  0  0  0  0  0  0  0
    6.7520   -4.7232   25.8522 C   0  0  0  0  0  0  0  0  0  0  0  0
    7.2258   -3.8769   26.9514 N   0  0  0  0  0  0  0  0  0  0  0  0
    3.1257   -3.7530   25.8104 O   0  0  0  0  0  0  0  0  0  0  0  0
    8.3761   -7.5291   28.6983 C   0  0  0  0  0  0  0  0  0  0  0  0
    9.0031   -7.2946   30.0640 C   0  0  0  0  0  0  0  0  0  0  0  0
    2.8393  -13.1148   32.3894 C   0  0  1  0  0  0  0  0  0  0  0  0
    8.9699   -5.8797   30.4947 N   0  0  0  0  0  0  0  0  0  0  0  0
    2.4175  -14.4571   32.5338 O   0  0  0  0  0  0  0  0  0  0  0  0
    3.1260   -9.3532   29.2316 C   0  0  2  0  0  0  0  0  0  0  0  0
    1.8058   -9.6441   29.7816 N   0  0  0  0  0  0  0  0  0  0  0  0
   10.0394   -3.7501   31.2381 C   0  0  0  0  0  0  0  0  0  0  0  0
   11.2659   -3.0539   31.9110 N   0  0  0  0  0  0  0  0  0  0  0  0
   10.1123   -5.3056   31.2607 C   0  0  0  0  0  0  0  0  0  0  0  0
    3.4850   -6.6811   25.4872 O   0  0  0  0  0  0  0  0  0  0  0  0
    2.6731  -12.3496   33.7064 C   0  0  2  0  0  0  0  0  0  0  0  0
    1.3261  -12.3868   34.1491 O   0  0  0  0  0  0  0  0  0  0  0  0
    4.1700   -9.6264   30.2854 C   0  0  2  0  0  0  0  0  0  0  0  0
    3.1429  -10.8771   33.5271 C   0  0  2  0  0  0  0  0  0  0  0  0
    4.5133  -10.8196   33.0796 O   0  0  0  0  0  0  0  0  0  0  0  0
    5.6186   -9.3024   29.7183 C   0  0  2  0  0  0  0  0  0  0  0  0
    6.6006   -9.5835   30.7604 O   0  0  0  0  0  0  0  0  0  0  0  0
    3.0286  -10.1018   34.7852 C   0  0  0  0  0  0  0  0  0  0  0  0
    4.2390  -10.0302   35.3812 N   0  0  0  0  0  0  0  0  0  0  0  0
    5.6751   -7.7899   29.3080 C   0  0  1  0  0  0  0  0  0  0  0  0
    6.9429   -7.4668   28.8324 O   0  0  0  0  0  0  0  0  0  0  0  0
  1  2  1  6  0  0  0
  1  5  1  0  0  0  0
  1 29  1  0  0  0  0
  3  4  1  1  0  0  0
  3  7  1  0  0  0  0
  3 34  1  0  0  0  0
  5  6  1  6  0  0  0
  5 16  1  0  0  0  0
  7 19  1  0  0  0  0
  8  4  1  0  0  0  0
  8 24  2  0  0  0  0
  9  8  1  6  0  0  0
  9 10  1  0  0  0  0
  9 13  1  0  0  0  0
 10 11  1  0  0  0  0
 11 12  1  0  0  0  0
 14 15  1  0  0  0  0
 14 35  1  0  0  0  0
 15 17  1  0  0  0  0
 16 18  1  1  0  0  0
 16 25  1  0  0  0  0
 19 20  1  1  0  0  0
 19 27  1  0  0  0  0
 21 22  1  0  0  0  0
 21 23  1  0  0  0  0
 23 17  1  0  0  0  0
 25 26  1  6  0  0  0
 25 28  1  0  0  0  0
 27  2  1  6  0  0  0
 27 30  1  0  0  0  0
 28 29  1  0  0  0  0
 28 32  1  1  0  0  0
 30 31  1  1  0  0  0
 30 34  1  0  0  0  0
 32 33  2  0  0  0  0
 34 35  1  6  0  0  0
M  END
>  <CHROM.1>
177.78011421,-80.14251399,105.45651665,-71.05766675,-75.53826581,-75.42642136
-57.09155251,-143.36799185,-174.95856092,163.76985743,-171.69717002,99.56454513
-149.56714597,5.14714078,-8.42006911,30.08474765,-2.05007843,-0.57669797
-0.87456507

>  <Name>
2f4t_lig

>  <RI>
0

>  <Rbt.Current_Directory>
/home/itssahil/PROJECTS/Mol_Feturizer/New_Systems/rnas/2f4t

>  <Rbt.Executable>
rbdock ($Id: //depot/dev/client3/rdock/2013.1/src/exe/rbdock.cxx#4 $)

>  <Rbt.Library>
libRbt.so (2013.1, Build901 2013/11/27)

>  <Rbt.Parameter_File>
/export/apps/rDock/src/rDock_2013.1_src/data/scripts/dock_solv.prm

>  <Rbt.Receptor>
prm/pocket_docking_7.prm

>  <SCORE>
-16.2291

>  <SCORE.INTER>
-10.312

>  <SCORE.INTER.CONST>
1

>  <SCORE.INTER.POLAR>
-2.24063

>  <SCORE.INTER.ROT>
13

>  <SCORE.INTER.SOLV>
13.9324

>  <SCORE.INTER.VDW>
-16.3167

>  <SCORE.INTER.norm>
-0.294629

>  <SCORE.INTRA>
-5.91709

>  <SCORE.INTRA.DIHEDRAL>
-12.9024

>  <SCORE.INTRA.DIHEDRAL.0>
23.8882

>  <SCORE.INTRA.POLAR>
0

>  <SCORE.INTRA.POLAR.0>
0

>  <SCORE.INTRA.REPUL>
0

>  <SCORE.INTRA.REPUL.0>
0

>  <SCORE.INTRA.SOLV>
1.27991

>  <SCORE.INTRA.SOLV.lig_0>
-97.6888

>  <SCORE.INTRA.VDW>
-0.105855

>  <SCORE.INTRA.VDW.0>
-3.9206

>  <SCORE.INTRA.norm>
-0.16906

>  <SCORE.RESTR>
0

>  <SCORE.RESTR.CAVITY>
0

>  <SCORE.RESTR.norm>
0

>  <SCORE.SYSTEM>
0

>  <SCORE.SYSTEM.CONST>
0

>  <SCORE.SYSTEM.DIHEDRAL>
0

>  <SCORE.SYSTEM.SOLV>
0

>  <SCORE.SYSTEM.norm>
0

>  <SCORE.heavy>
35

>  <SCORE.norm>
-0.463688

>  <RMSD>
8.377

$$$$
2f4t_lig
 OpenBabel11021811433D
libRbt.so/2013.1/901 2013/11/27
 35 36  0  0  0  0  0  0  0  0999 V2000
    2.4390   -8.5373   31.4408 C   0  0  2  0  0  0  0  0  0  0  0  0
    3.1048   -7.7436   30.4044 O   0  0  0  0  0  0  0  0  0  0  0  0
    2.7027   -6.7001   26.2323 C   0  0  2  0  0  0  0  0  0  0  0  0
    2.2261   -6.7230   24.8413 N   0  0  0  0  0  0  0  0  0  0  0  0
    3.2828   -8.3394   32.7363 C   0  0  2  0  0  0  0  0  0  0  0  0
    3.3943   -6.9370   33.0626 N   0  0  0  0  0  0  0  0  0  0  0  0
    3.1245   -8.1536   26.6603 C   0  0  0  0  0  0  0  0  0  0  0  0
    0.7621   -7.7050   24.7344 C   0  0  0  0  0  0  0  0  0  0  0  0
    0.7700   -7.3643   23.2606 C   0  0  1  0  0  0  0  0  0  0  0  0
    0.2302   -8.5794   22.5030 C   0  0  0  0  0  0  0  0  0  0  0  0
    0.4589   -8.5713   20.9823 C   0  0  0  0  0  0  0  0  0  0  0  0
   -0.0356   -9.8374   20.4332 N   0  0  0  0  0  0  0  0  0  0  0  0
   -0.1181   -6.3131   22.9839 O   0  0  0  0  0  0  0  0  0  0  0  0
    0.6807   -3.8872   25.9530 C   0  0  0  0  0  0  0  0  0  0  0  0
    0.7892   -2.5619   26.6915 C   0  0  0  0  0  0  0  0  0  0  0  0
    4.7010   -8.9789   32.5575 C   0  0  1  0  0  0  0  0  0  0  0  0
    2.1486   -2.2792   27.2021 N   0  0  0  0  0  0  0  0  0  0  0  0
    5.4821   -8.8143   33.7251 O   0  0  0  0  0  0  0  0  0  0  0  0
    3.6235   -8.2008   28.1112 C   0  0  2  0  0  0  0  0  0  0  0  0
    3.9701   -9.5649   28.4975 N   0  0  0  0  0  0  0  0  0  0  0  0
    1.8173   -0.9849   29.3108 C   0  0  0  0  0  0  0  0  0  0  0  0
    2.3575   -2.1281   30.2290 N   0  0  0  0  0  0  0  0  0  0  0  0
    2.4363   -0.9843   27.8818 C   0  0  0  0  0  0  0  0  0  0  0  0
    0.1817   -8.2632   25.4348 O   0  0  0  0  0  0  0  0  0  0  0  0
    4.5148  -10.4651   32.2348 C   0  0  2  0  0  0  0  0  0  0  0  0
    5.7673  -11.1105   32.0721 O   0  0  0  0  0  0  0  0  0  0  0  0
    2.5650   -7.6769   29.0494 C   0  0  2  0  0  0  0  0  0  0  0  0
    3.6532  -10.6248   30.9490 C   0  0  2  0  0  0  0  0  0  0  0  0
    2.3729   -9.9765   31.0974 O   0  0  0  0  0  0  0  0  0  0  0  0
    2.1561   -6.1965   28.6419 C   0  0  2  0  0  0  0  0  0  0  0  0
    1.1374   -5.7215   29.5724 O   0  0  0  0  0  0  0  0  0  0  0  0
    3.4201  -12.0491   30.6114 C   0  0  0  0  0  0  0  0  0  0  0  0
    4.5756  -12.6057   30.1863 N   0  0  0  0  0  0  0  0  0  0  0  0
    1.5945   -6.2111   27.1777 C   0  0  1  0  0  0  0  0  0  0  0  0
    1.2002   -4.9305   26.8002 O   0  0  0  0  0  0  0  0  0  0  0  0
  1  2  1  6  0  0  0
  1  5  1  0  0  0  0
  1 29  1  0  0  0  0
  3  4  1  6  0  0  0
  3  7  1  0  0  0  0
  3 34  1  0  0  0  0
  5  6  1  6  0  0  0
  5 16  1  0  0  0  0
  7 19  1  0  0  0  0
  8  4  1  0  0  0  0
  8 24  2  0  0  0  0
  9  8  1  1  0  0  0
  9 10  1  0  0  0  0
  9 13  1  0  0  0  0
 10 11  1  0  0  0  0
 11 12  1  0  0  0  0
 14 15  1  0  0  0  0
 14 35  1  0  0  0  0
 15 17  1  0  0  0  0
 16 18  1  1  0  0  0
 16 25  1  0  0  0  0
 19 20  1  1  0  0  0
 19 27  1  0  0  0  0
 21 22  1  0  0  0  0
 21 23  1  0  0  0  0
 23 17  1  0  0  0  0
 25 26  1  6  0  0  0
 25 28  1  0  0  0  0
 27  2  1  1  0  0  0
 27 30  1  0  0  0  0
 28 29  1  0  0  0  0
 28 32  1  1  0  0  0
 30 31  1  1  0  0  0
 30 34  1  0  0  0  0
 32 33  2  0  0  0  0
 34 35  1  6  0  0  0
M  END
>  <CHROM.1>
-178.90737780,64.32391660,145.64898751,-166.25197897,176.27547150,52.92595592
-176.26888927,176.56969014,59.39554654,74.34167385,-120.52908351,-70.23156074
59.74406672,2.37816408,-7.29445629,28.13243768,0.01606865,-1.19153480,0.42251590

>  <Name>
2f4t_lig

>  <RI>
0

>  <Rbt.Current_Directory>
/home/itssahil/PROJECTS/Mol_Feturizer/New_Systems/rnas/2f4t

>  <Rbt.Executable>
rbdock ($Id: //depot/dev/client3/rdock/2013.1/src/exe/rbdock.cxx#4 $)

>  <Rbt.Library>
libRbt.so (2013.1, Build901 2013/11/27)

>  <Rbt.Parameter_File>
/export/apps/rDock/src/rDock_2013.1_src/data/scripts/dock_solv.prm

>  <Rbt.Receptor>
prm/pocket_docking_4.prm

>  <SCORE>
-14.1252

>  <SCORE.INTER>
-10.7612

>  <SCORE.INTER.CONST>
1

>  <SCORE.INTER.POLAR>
-1.64614

>  <SCORE.INTER.ROT>
13

>  <SCORE.INTER.SOLV>
12.7197

>  <SCORE.INTER.VDW>
-18.1936

>  <SCORE.INTER.norm>
-0.307462

>  <SCORE.INTRA>
-3.36968

>  <SCORE.INTRA.DIHEDRAL>
-11.9824

>  <SCORE.INTRA.DIHEDRAL.0>
23.8882

>  <SCORE.INTRA.POLAR>
0

>  <SCORE.INTRA.POLAR.0>
0

>  <SCORE.INTRA.REPUL>
0

>  <SCORE.INTRA.REPUL.0>
0

>  <SCORE.INTRA.SOLV>
5.65773

>  <SCORE.INTRA.SOLV.lig_0>
-97.6888

>  <SCORE.INTRA.VDW>
-0.207349

>  <SCORE.INTRA.VDW.0>
-3.9206

>  <SCORE.INTRA.norm>
-0.0962766

>  <SCORE.RESTR>
0.00566322

>  <SCORE.RESTR.CAVITY>
0.00566322

>  <SCORE.RESTR.norm>
0.000161806

>  <SCORE.SYSTEM>
0

>  <SCORE.SYSTEM.CONST>
0

>  <SCORE.SYSTEM.DIHEDRAL>
0

>  <SCORE.SYSTEM.SOLV>
0

>  <SCORE.SYSTEM.norm>
0

>  <SCORE.heavy>
35

>  <SCORE.norm>
-0.403577

>  <RMSD>
8.384

$$$$
2f4t_lig
 OpenBabel11021811433D
libRbt.so/2013.1/901 2013/11/27
 35 36  0  0  0  0  0  0  0  0999 V2000
    3.6168  -12.4339   29.5228 C   0  0  2  0  0  0  0  0  0  0  0  0
    3.4196  -11.4333   30.5751 O   0  0  0  0  0  0  0  0  0  0  0  0
    5.0638   -7.5293   31.4191 C   0  0  2  0  0  0  0  0  0  0  0  0
    6.0443   -6.4838   31.7480 N   0  0  0  0  0  0  0  0  0  0  0  0
    2.1910  -12.9294   29.1341 C   0  0  2  0  0  0  0  0  0  0  0  0
    1.3585  -11.8205   28.7307 N   0  0  0  0  0  0  0  0  0  0  0  0
    5.1713   -8.6917   32.4730 C   0  0  0  0  0  0  0  0  0  0  0  0
    5.5755   -5.6863   33.2524 C   0  0  0  0  0  0  0  0  0  0  0  0
    6.8192   -4.8450   33.0686 C   0  0  1  0  0  0  0  0  0  0  0  0
    6.3861   -3.5065   32.4664 C   0  0  0  0  0  0  0  0  0  0  0  0
    7.5268   -2.5509   32.0783 C   0  0  0  0  0  0  0  0  0  0  0  0
    6.9390   -1.2769   31.6535 N   0  0  0  0  0  0  0  0  0  0  0  0
    7.4048   -4.5381   34.3067 O   0  0  0  0  0  0  0  0  0  0  0  0
    4.7038   -5.9589   28.3699 C   0  0  0  0  0  0  0  0  0  0  0  0
    5.2945   -5.9286   26.9686 C   0  0  0  0  0  0  0  0  0  0  0  0
    1.5427  -13.6981   30.3346 C   0  0  1  0  0  0  0  0  0  0  0  0
    6.7738   -5.9226   26.9506 N   0  0  0  0  0  0  0  0  0  0  0  0
    0.2486  -14.1608   30.0005 O   0  0  0  0  0  0  0  0  0  0  0  0
    4.1777   -9.8244   32.1793 C   0  0  2  0  0  0  0  0  0  0  0  0
    4.3245  -10.9082   33.1457 N   0  0  0  0  0  0  0  0  0  0  0  0
    7.4013   -3.8139   25.7711 C   0  0  0  0  0  0  0  0  0  0  0  0
    8.2058   -2.4745   25.7956 N   0  0  0  0  0  0  0  0  0  0  0  0
    7.5167   -4.6378   27.0876 C   0  0  0  0  0  0  0  0  0  0  0  0
    4.7644   -5.7962   33.9374 O   0  0  0  0  0  0  0  0  0  0  0  0
    2.4601  -14.8698   30.6995 C   0  0  2  0  0  0  0  0  0  0  0  0
    1.9228  -15.6191   31.7772 O   0  0  0  0  0  0  0  0  0  0  0  0
    4.3966  -10.3698   30.7902 C   0  0  2  0  0  0  0  0  0  0  0  0
    3.8775  -14.3405   31.0625 C   0  0  2  0  0  0  0  0  0  0  0  0
    4.4416  -13.5776   29.9756 O   0  0  0  0  0  0  0  0  0  0  0  0
    4.2585   -9.2063   29.7168 C   0  0  2  0  0  0  0  0  0  0  0  0
    4.4699   -9.7706   28.3880 O   0  0  0  0  0  0  0  0  0  0  0  0
    4.8119  -15.4419   31.3955 C   0  0  0  0  0  0  0  0  0  0  0  0
    5.9421  -14.9276   31.9282 N   0  0  0  0  0  0  0  0  0  0  0  0
    5.3342   -8.1064   30.0209 C   0  0  1  0  0  0  0  0  0  0  0  0
    5.2576   -7.0842   29.0791 O   0  0  0  0  0  0  0  0  0  0  0  0
  1  2  1  1  0  0  0
  1  5  1  0  0  0  0
  1 29  1  0  0  0  0
  3  4  1  1  0  0  0
  3  7  1  0  0  0  0
  3 34  1  0  0  0  0
  5  6  1  1  0  0  0
  5 16  1  0  0  0  0
  7 19  1  0  0  0  0
  8  4  1  0  0  0  0
  8 24  2  0  0  0  0
  9  8  1  1  0  0  0
  9 10  1  0  0  0  0
  9 13  1  0  0  0  0
 10 11  1  0  0  0  0
 11 12  1  0  0  0  0
 14 15  1  0  0  0  0
 14 35  1  0  0  0  0
 15 17  1  0  0  0  0
 16 18  1  6  0  0  0
 16 25  1  0  0  0  0
 19 20  1  1  0  0  0
 19 27  1  0  0  0  0
 21 22  1  0  0  0  0
 21 23  1  0  0  0  0
 23 17  1  0  0  0  0
 25 26  1  1  0  0  0
 25 28  1  0  0  0  0
 27  2  1  6  0  0  0
 27 30  1  0  0  0  0
 28 29  1  0  0  0  0
 28 32  1  6  0  0  0
 30 31  1  6  0  0  0
 30 34  1  0  0  0  0
 32 33  2  0  0  0  0
 34 35  1  6  0  0  0
M  END
>  <CHROM.1>
-153.70178912,-68.27395763,99.45577309,-174.50205449,-174.21034087,-54.61877546
-154.74669288,-84.63930628,-177.35377736,-73.38786951,-160.82284683,-169.16777614
-51.49669906,4.83600113,-8.86377544,30.44988403,3.01358277,1.19297139,1.64820484

>  <Name>
2f4t_lig

>  <RI>
0

>  <Rbt.Current_Directory>
/home/itssahil/PROJECTS/Mol_Feturizer/New_Systems/rnas/2f4t

>  <Rbt.Executable>
rbdock ($Id: //depot/dev/client3/rdock/2013.1/src/exe/rbdock.cxx#4 $)

>  <Rbt.Library>
libRbt.so (2013.1, Build901 2013/11/27)

>  <Rbt.Parameter_File>
/export/apps/rDock/src/rDock_2013.1_src/data/scripts/dock_solv.prm

>  <Rbt.Receptor>
prm/pocket_docking_6.prm

>  <SCORE>
-12.3237

>  <SCORE.INTER>
-6.50829

>  <SCORE.INTER.CONST>
1

>  <SCORE.INTER.POLAR>
-2.60626

>  <SCORE.INTER.ROT>
13

>  <SCORE.INTER.SOLV>
11.2156

>  <SCORE.INTER.VDW>
-11.6565

>  <SCORE.INTER.norm>
-0.185951

>  <SCORE.INTRA>
-5.81536

>  <SCORE.INTRA.DIHEDRAL>
-11.4116

>  <SCORE.INTRA.DIHEDRAL.0>
23.8882

>  <SCORE.INTRA.POLAR>
0

>  <SCORE.INTRA.POLAR.0>
0

>  <SCORE.INTRA.REPUL>
0

>  <SCORE.INTRA.REPUL.0>
0

>  <SCORE.INTRA.SOLV>
-0.318342

>  <SCORE.INTRA.SOLV.lig_0>
-97.6888

>  <SCORE.INTRA.VDW>
0.0496332

>  <SCORE.INTRA.VDW.0>
-3.9206

>  <SCORE.INTRA.norm>
-0.166153

>  <SCORE.RESTR>
0

>  <SCORE.RESTR.CAVITY>
0

>  <SCORE.RESTR.norm>
0

>  <SCORE.SYSTEM>
0

>  <SCORE.SYSTEM.CONST>
0

>  <SCORE.SYSTEM.DIHEDRAL>
0

>  <SCORE.SYSTEM.SOLV>
0

>  <SCORE.SYSTEM.norm>
0

>  <SCORE.heavy>
35

>  <SCORE.norm>
-0.352104

>  <RMSD>
8.384

$$$$
2f4t_lig
 OpenBabel11021811433D
libRbt.so/2013.1/901 2013/11/27
 35 36  0  0  0  0  0  0  0  0999 V2000
    3.1220   -9.5838   31.5123 C   0  0  2  0  0  0  0  0  0  0  0  0
    4.3845   -8.8647   31.3217 O   0  0  0  0  0  0  0  0  0  0  0  0
    4.9616   -4.8292   29.8939 C   0  0  2  0  0  0  0  0  0  0  0  0
    5.1588   -3.7064   28.9649 N   0  0  0  0  0  0  0  0  0  0  0  0
    3.4478  -10.7691   32.4708 C   0  0  2  0  0  0  0  0  0  0  0  0
    4.0303  -10.2849   33.7003 N   0  0  0  0  0  0  0  0  0  0  0  0
    6.0209   -5.9500   29.5857 C   0  0  0  0  0  0  0  0  0  0  0  0
    4.8916   -4.2564   27.3081 C   0  0  0  0  0  0  0  0  0  0  0  0
    5.1936   -2.8314   26.9002 C   0  0  1  0  0  0  0  0  0  0  0  0
    5.8103   -2.8729   25.5002 C   0  0  0  0  0  0  0  0  0  0  0  0
    6.3461   -1.5329   24.9688 C   0  0  0  0  0  0  0  0  0  0  0  0
    7.4114   -1.0727   25.8645 N   0  0  0  0  0  0  0  0  0  0  0  0
    4.0121   -2.0835   26.7778 O   0  0  0  0  0  0  0  0  0  0  0  0
    1.8725   -3.2112   29.8100 C   0  0  0  0  0  0  0  0  0  0  0  0
    2.8208   -2.0420   30.0274 C   0  0  0  0  0  0  0  0  0  0  0  0
    4.4110  -11.7823   31.7652 C   0  0  1  0  0  0  0  0  0  0  0  0
    3.4562   -2.0367   31.3634 N   0  0  0  0  0  0  0  0  0  0  0  0
    4.7157  -12.8692   32.6174 O   0  0  0  0  0  0  0  0  0  0  0  0
    5.8619   -7.1597   30.5173 C   0  0  2  0  0  0  0  0  0  0  0  0
    6.8283   -8.2018   30.1855 N   0  0  0  0  0  0  0  0  0  0  0  0
    3.5395   -1.6462   33.8275 C   0  0  0  0  0  0  0  0  0  0  0  0
    4.4775   -2.8601   34.1250 N   0  0  0  0  0  0  0  0  0  0  0  0
    2.6231   -1.8526   32.5854 C   0  0  0  0  0  0  0  0  0  0  0  0
    4.6342   -5.1909   26.8613 O   0  0  0  0  0  0  0  0  0  0  0  0
    3.7291  -12.2726   30.4838 C   0  0  2  0  0  0  0  0  0  0  0  0
    4.5467  -13.2077   29.7990 O   0  0  0  0  0  0  0  0  0  0  0  0
    4.4686   -7.7274   30.4099 C   0  0  2  0  0  0  0  0  0  0  0  0
    3.4017  -11.0632   29.5611 C   0  0  2  0  0  0  0  0  0  0  0  0
    2.5674  -10.1020   30.2406 O   0  0  0  0  0  0  0  0  0  0  0  0
    3.3933   -6.6082   30.7506 C   0  0  2  0  0  0  0  0  0  0  0  0
    2.0612   -7.1937   30.6427 O   0  0  0  0  0  0  0  0  0  0  0  0
    2.7129  -11.4848   28.3182 C   0  0  0  0  0  0  0  0  0  0  0  0
    1.5157  -12.0284   28.6294 N   0  0  0  0  0  0  0  0  0  0  0  0
    3.5543   -5.4251   29.7341 C   0  0  1  0  0  0  0  0  0  0  0  0
    2.6058   -4.4386   29.9889 O   0  0  0  0  0  0  0  0  0  0  0  0
  1  2  1  6  0  0  0
  1  5  1  0  0  0  0
  1 29  1  0  0  0  0
  3  4  1  6  0  0  0
  3  7  1  0  0  0  0
  3 34  1  0  0  0  0
  5  6  1  1  0  0  0
  5 16  1  0  0  0  0
  7 19  1  0  0  0  0
  8  4  1  0  0  0  0
  8 24  2  0  0  0  0
  9  8  1  6  0  0  0
  9 10  1  0  0  0  0
  9 13  1  0  0  0  0
 10 11  1  0  0  0  0
 11 12  1  0  0  0  0
 14 15  1  0  0  0  0
 14 35  1  0  0  0  0
 15 17  1  0  0  0  0
 16 18  1  1  0  0  0
 16 25  1  0  0  0  0
 19 20  1  6  0  0  0
 19 27  1  0  0  0  0
 21 22  1  0  0  0  0
 21 23  1  0  0  0  0
 23 17  1  0  0  0  0
 25 26  1  6  0  0  0
 25 28  1  0  0  0  0
 27  2  1  1  0  0  0
 27 30  1  0  0  0  0
 28 29  1  0  0  0  0
 28 32  1  6  0  0  0
 30 31  1  6  0  0  0
 30 34  1  0  0  0  0
 32 33  2  0  0  0  0
 34 35  1  1  0  0  0
M  END
>  <CHROM.1>
176.45836527,62.24179312,150.40476490,-172.96040280,61.26700593,-58.37626291
-64.81772441,-64.90598302,-61.34980835,-170.54726952,176.07691703,63.70967860
63.43207335,4.11641098,-6.55303829,29.91407055,1.92750143,-1.27289764,-3.06711133

>  <Name>
2f4t_lig

>  <RI>
0

>  <Rbt.Current_Directory>
/home/itssahil/PROJECTS/Mol_Feturizer/New_Systems/rnas/2f4t

>  <Rbt.Executable>
rbdock ($Id: //depot/dev/client3/rdock/2013.1/src/exe/rbdock.cxx#4 $)

>  <Rbt.Library>
libRbt.so (2013.1, Build901 2013/11/27)

>  <Rbt.Parameter_File>
/export/apps/rDock/src/rDock_2013.1_src/data/scripts/dock_solv.prm

>  <Rbt.Receptor>
prm/pocket_docking_7.prm

>  <SCORE>
-8.88125

>  <SCORE.INTER>
-0.543616

>  <SCORE.INTER.CONST>
1

>  <SCORE.INTER.POLAR>
-1.71652

>  <SCORE.INTER.ROT>
13

>  <SCORE.INTER.SOLV>
8.4064

>  <SCORE.INTER.VDW>
-9.70949

>  <SCORE.INTER.norm>
-0.0155319

>  <SCORE.INTRA>
-8.33764

>  <SCORE.INTRA.DIHEDRAL>
-19.8026

>  <SCORE.INTRA.DIHEDRAL.0>
23.8882

>  <SCORE.INTRA.POLAR>
0

>  <SCORE.INTRA.POLAR.0>
0

>  <SCORE.INTRA.REPUL>
0.00145763

>  <SCORE.INTRA.REPUL.0>
0

>  <SCORE.INTRA.SOLV>
3.31304

>  <SCORE.INTRA.SOLV.lig_0>
-97.6888

>  <SCORE.INTRA.VDW>
-0.100157

>  <SCORE.INTRA.VDW.0>
-3.9206

>  <SCORE.INTRA.norm>
-0.238218

>  <SCORE.RESTR>
0

>  <SCORE.RESTR.CAVITY>
0

>  <SCORE.RESTR.norm>
0

>  <SCORE.SYSTEM>
0

>  <SCORE.SYSTEM.CONST>
0

>  <SCORE.SYSTEM.DIHEDRAL>
0

>  <SCORE.SYSTEM.SOLV>
0

>  <SCORE.SYSTEM.norm>
0

>  <SCORE.heavy>
35

>  <SCORE.norm>
-0.25375

>  <RMSD>
8.390

$$$$
2f4t_lig
 OpenBabel11021811433D
libRbt.so/2013.1/901 2013/11/27
 35 36  0  0  0  0  0  0  0  0999 V2000
    3.5337  -12.6241   29.8993 C   0  0  2  0  0  0  0  0  0  0  0  0
    2.4327  -11.8984   30.5383 O   0  0  0  0  0  0  0  0  0  0  0  0
    2.3454   -7.6760   29.6320 C   0  0  2  0  0  0  0  0  0  0  0  0
    2.2946   -6.2200   29.8319 N   0  0  0  0  0  0  0  0  0  0  0  0
    2.9246  -13.9701   29.4024 C   0  0  2  0  0  0  0  0  0  0  0  0
    1.8032  -13.7289   28.5250 N   0  0  0  0  0  0  0  0  0  0  0  0
    1.1713   -8.3509   30.4317 C   0  0  0  0  0  0  0  0  0  0  0  0
    2.5551   -5.4023   28.2884 C   0  0  0  0  0  0  0  0  0  0  0  0
    2.3948   -4.1146   29.0657 C   0  0  1  0  0  0  0  0  0  0  0  0
    3.7727   -3.4547   29.1549 C   0  0  0  0  0  0  0  0  0  0  0  0
    3.9219   -2.3679   30.2327 C   0  0  0  0  0  0  0  0  0  0  0  0
    3.9213   -3.0167   31.5472 N   0  0  0  0  0  0  0  0  0  0  0  0
    1.5785   -3.2078   28.3717 O   0  0  0  0  0  0  0  0  0  0  0  0
    6.0870   -7.3831   29.0501 C   0  0  0  0  0  0  0  0  0  0  0  0
    6.1214   -6.0722   28.2794 C   0  0  0  0  0  0  0  0  0  0  0  0
    2.4905  -14.8478   30.6245 C   0  0  1  0  0  0  0  0  0  0  0  0
    7.4311   -5.3868   28.3369 N   0  0  0  0  0  0  0  0  0  0  0  0
    1.9388  -16.0772   30.1949 O   0  0  0  0  0  0  0  0  0  0  0  0
    1.1742   -9.8778   30.2731 C   0  0  2  0  0  0  0  0  0  0  0  0
    0.1018  -10.4837   31.0559 N   0  0  0  0  0  0  0  0  0  0  0  0
    7.6440   -4.4012   30.6206 C   0  0  0  0  0  0  0  0  0  0  0  0
    8.9469   -5.1448   31.0582 N   0  0  0  0  0  0  0  0  0  0  0  0
    7.5727   -4.1098   29.0924 C   0  0  0  0  0  0  0  0  0  0  0  0
    2.7382   -5.7291   27.2890 O   0  0  0  0  0  0  0  0  0  0  0  0
    3.7242  -15.0841   31.5018 C   0  0  2  0  0  0  0  0  0  0  0  0
    3.4019  -15.8870   32.6258 O   0  0  0  0  0  0  0  0  0  0  0  0
    2.4955  -10.4511   30.7208 C   0  0  2  0  0  0  0  0  0  0  0  0
    4.3161  -13.7210   31.9629 C   0  0  2  0  0  0  0  0  0  0  0  0
    4.6530  -12.8914   30.8317 O   0  0  0  0  0  0  0  0  0  0  0  0
    3.6848   -9.7963   29.8951 C   0  0  2  0  0  0  0  0  0  0  0  0
    4.9434  -10.3778   30.3498 O   0  0  0  0  0  0  0  0  0  0  0  0
    5.5316  -13.8969   32.7927 C   0  0  0  0  0  0  0  0  0  0  0  0
    5.2859  -13.4632   34.0485 N   0  0  0  0  0  0  0  0  0  0  0  0
    3.6785   -8.2473   30.1398 C   0  0  1  0  0  0  0  0  0  0  0  0
    4.7283   -7.6465   29.4507 O   0  0  0  0  0  0  0  0  0  0  0  0
  1  2  1  1  0  0  0
  1  5  1  0  0  0  0
  1 29  1  0  0  0  0
  3  4  1  1  0  0  0
  3  7  1  0  0  0  0
  3 34  1  0  0  0  0
  5  6  1  6  0  0  0
  5 16  1  0  0  0  0
  7 19  1  0  0  0  0
  8  4  1  0  0  0  0
  8 24  2  0  0  0  0
  9  8  1  6  0  0  0
  9 10  1  0  0  0  0
  9 13  1  0  0  0  0
 10 11  1  0  0  0  0
 11 12  1  0  0  0  0
 14 15  1  0  0  0  0
 14 35  1  0  0  0  0
 15 17  1  0  0  0  0
 16 18  1  6  0  0  0
 16 25  1  0  0  0  0
 19 20  1  1  0  0  0
 19 27  1  0  0  0  0
 21 22  1  0  0  0  0
 21 23  1  0  0  0  0
 23 17  1  0  0  0  0
 25 26  1  1  0  0  0
 25 28  1  0  0  0  0
 27  2  1  6  0  0  0
 27 30  1  0  0  0  0
 28 29  1  0  0  0  0
 28 32  1  6  0  0  0
 30 31  1  1  0  0  0
 30 34  1  0  0  0  0
 32 33  2  0  0  0  0
 34 35  1  6  0  0  0
M  END
>  <CHROM.1>
-159.31959386,-136.26288822,108.56519289,-162.77433370,71.20495546,154.05022647
-165.95607488,-110.93856436,67.90324489,77.29190450,133.38764278,-114.51661462
-176.91747685,3.81362619,-9.06524979,30.13904749,1.72068162,0.25299219,2.92402365

>  <Name>
2f4t_lig

>  <RI>
0

>  <Rbt.Current_Directory>
/home/itssahil/PROJECTS/Mol_Feturizer/New_Systems/rnas/2f4t

>  <Rbt.Executable>
rbdock ($Id: //depot/dev/client3/rdock/2013.1/src/exe/rbdock.cxx#4 $)

>  <Rbt.Library>
libRbt.so (2013.1, Build901 2013/11/27)

>  <Rbt.Parameter_File>
/export/apps/rDock/src/rDock_2013.1_src/data/scripts/dock_solv.prm

>  <Rbt.Receptor>
prm/pocket_docking_4.prm

>  <SCORE>
3.55997

>  <SCORE.INTER>
4.81241

>  <SCORE.INTER.CONST>
1

>  <SCORE.INTER.POLAR>
-0.921581

>  <SCORE.INTER.ROT>
13

>  <SCORE.INTER.SOLV>
7.5128

>  <SCORE.INTER.VDW>
-8.49072

>  <SCORE.INTER.norm>
0.137498

>  <SCORE.INTRA>
-1.25244

>  <SCORE.INTRA.DIHEDRAL>
-5.34118

>  <SCORE.INTRA.DIHEDRAL.0>
23.8882

>  <SCORE.INTRA.POLAR>
0

>  <SCORE.INTRA.POLAR.0>
0

>  <SCORE.INTRA.REPUL>
0

>  <SCORE.INTRA.REPUL.0>
0

>  <SCORE.INTRA.SOLV>
2.98142

>  <SCORE.INTRA.SOLV.lig_0>
-97.6888

>  <SCORE.INTRA.VDW>
-0.0725626

>  <SCORE.INTRA.VDW.0>
-3.9206

>  <SCORE.INTRA.norm>
-0.0357841

>  <SCORE.RESTR>
0

>  <SCORE.RESTR.CAVITY>
0

>  <SCORE.RESTR.norm>
0

>  <SCORE.SYSTEM>
0

>  <SCORE.SYSTEM.CONST>
0

>  <SCORE.SYSTEM.DIHEDRAL>
0

>  <SCORE.SYSTEM.SOLV>
0

>  <SCORE.SYSTEM.norm>
0

>  <SCORE.heavy>
35

>  <SCORE.norm>
0.101713

>  <RMSD>
8.405

$$$$
2f4t_lig
 OpenBabel11021811433D
libRbt.so/2013.1/901 2013/11/27
 35 36  0  0  0  0  0  0  0  0999 V2000
    4.5975  -10.5558   31.1408 C   0  0  2  0  0  0  0  0  0  0  0  0
    3.4509  -10.6209   30.2308 O   0  0  0  0  0  0  0  0  0  0  0  0
    1.9450   -7.7522   27.3742 C   0  0  2  0  0  0  0  0  0  0  0  0
    1.2428   -6.5795   26.8316 N   0  0  0  0  0  0  0  0  0  0  0  0
    4.7142  -11.9723   31.7806 C   0  0  2  0  0  0  0  0  0  0  0  0
    4.8424  -12.9842   30.7583 N   0  0  0  0  0  0  0  0  0  0  0  0
    0.9599   -8.5705   28.2871 C   0  0  0  0  0  0  0  0  0  0  0  0
    1.8916   -6.1882   25.2364 C   0  0  0  0  0  0  0  0  0  0  0  0
    0.8841   -5.0599   25.2216 C   0  0  1  0  0  0  0  0  0  0  0  0
    1.5883   -3.8054   25.7433 C   0  0  0  0  0  0  0  0  0  0  0  0
    1.7554   -3.7220   27.2699 C   0  0  0  0  0  0  0  0  0  0  0  0
    2.1881   -2.3643   27.6144 N   0  0  0  0  0  0  0  0  0  0  0  0
    0.4861   -4.7598   23.9095 O   0  0  0  0  0  0  0  0  0  0  0  0
    4.9653   -6.3061   26.3681 C   0  0  0  0  0  0  0  0  0  0  0  0
    5.3505   -4.8358   26.4270 C   0  0  0  0  0  0  0  0  0  0  0  0
    3.4690  -12.2577   32.6865 C   0  0  1  0  0  0  0  0  0  0  0  0
    6.0192   -4.4500   27.6889 N   0  0  0  0  0  0  0  0  0  0  0  0
    3.5576  -13.5379   33.2811 O   0  0  0  0  0  0  0  0  0  0  0  0
    1.6368   -9.8066   28.8955 C   0  0  2  0  0  0  0  0  0  0  0  0
    0.7157  -10.5261   29.7697 N   0  0  0  0  0  0  0  0  0  0  0  0
    6.8523   -2.8289   29.3947 C   0  0  0  0  0  0  0  0  0  0  0  0
    8.0819   -3.6850   29.8384 N   0  0  0  0  0  0  0  0  0  0  0  0
    6.4477   -3.0390   27.9055 C   0  0  0  0  0  0  0  0  0  0  0  0
    2.6546   -6.6025   24.6156 O   0  0  0  0  0  0  0  0  0  0  0  0
    3.4013  -11.1653   33.7588 C   0  0  2  0  0  0  0  0  0  0  0  0
    2.2976  -11.3719   34.6254 O   0  0  0  0  0  0  0  0  0  0  0  0
    2.8549   -9.4033   29.6882 C   0  0  2  0  0  0  0  0  0  0  0  0
    3.3052   -9.7660   33.0851 C   0  0  2  0  0  0  0  0  0  0  0  0
    4.4223   -9.5368   32.2013 O   0  0  0  0  0  0  0  0  0  0  0  0
    3.8696   -8.6027   28.7639 C   0  0  2  0  0  0  0  0  0  0  0  0
    5.0353   -8.2351   29.5608 O   0  0  0  0  0  0  0  0  0  0  0  0
    3.2665   -8.6716   34.0839 C   0  0  0  0  0  0  0  0  0  0  0  0
    4.5055   -8.4771   34.5867 N   0  0  0  0  0  0  0  0  0  0  0  0
    3.1530   -7.3186   28.2190 C   0  0  1  0  0  0  0  0  0  0  0  0
    4.0265   -6.5791   27.4265 O   0  0  0  0  0  0  0  0  0  0  0  0
  1  2  1  6  0  0  0
  1  5  1  0  0  0  0
  1 29  1  0  0  0  0
  3  4  1  1  0  0  0
  3  7  1  0  0  0  0
  3 34  1  0  0  0  0
  5  6  1  6  0  0  0
  5 16  1  0  0  0  0
  7 19  1  0  0  0  0
  8  4  1  0  0  0  0
  8 24  2  0  0  0  0
  9  8  1  6  0  0  0
  9 10  1  0  0  0  0
  9 13  1  0  0  0  0
 10 11  1  0  0  0  0
 11 12  1  0  0  0  0
 14 15  1  0  0  0  0
 14 35  1  0  0  0  0
 15 17  1  0  0  0  0
 16 18  1  1  0  0  0
 16 25  1  0  0  0  0
 19 20  1  1  0  0  0
 19 27  1  0  0  0  0
 21 22  1  0  0  0  0
 21 23  1  0  0  0  0
 23 17  1  0  0  0  0
 25 26  1  1  0  0  0
 25 28  1  0  0  0  0
 27  2  1  6  0  0  0
 27 30  1  0  0  0  0
 28 29  1  0  0  0  0
 28 32  1  1  0  0  0
 30 31  1  1  0  0  0
 30 34  1  0  0  0  0
 32 33  2  0  0  0  0
 34 35  1  6  0  0  0
M  END
>  <CHROM.1>
165.88476010,-148.60101292,93.86088007,-78.44634787,-168.59882616,61.79929294
178.91084263,-179.44293726,63.17256761,168.52735220,-175.15363237,75.91065516
-65.79040537,3.44937931,-7.77367145,29.26050105,-1.51285725,-0.71040417,-0.72168140

>  <Name>
2f4t_lig

>  <RI>
0

>  <Rbt.Current_Directory>
/home/itssahil/PROJECTS/Mol_Feturizer/New_Systems/rnas/2f4t

>  <Rbt.Executable>
rbdock ($Id: //depot/dev/client3/rdock/2013.1/src/exe/rbdock.cxx#4 $)

>  <Rbt.Library>
libRbt.so (2013.1, Build901 2013/11/27)

>  <Rbt.Parameter_File>
/export/apps/rDock/src/rDock_2013.1_src/data/scripts/dock_solv.prm

>  <Rbt.Receptor>
prm/pocket_docking_5.prm

>  <SCORE>
-17.5256

>  <SCORE.INTER>
-8.84039

>  <SCORE.INTER.CONST>
1

>  <SCORE.INTER.POLAR>
-1.8449

>  <SCORE.INTER.ROT>
13

>  <SCORE.INTER.SOLV>
12.4942

>  <SCORE.INTER.VDW>
-16.1754

>  <SCORE.INTER.norm>
-0.252583

>  <SCORE.INTRA>
-8.68523

>  <SCORE.INTRA.DIHEDRAL>
-16.737

>  <SCORE.INTRA.DIHEDRAL.0>
23.8882

>  <SCORE.INTRA.POLAR>
0

>  <SCORE.INTRA.POLAR.0>
0

>  <SCORE.INTRA.REPUL>
0

>  <SCORE.INTRA.REPUL.0>
0

>  <SCORE.INTRA.SOLV>
1.99684

>  <SCORE.INTRA.SOLV.lig_0>
-97.6888

>  <SCORE.INTRA.VDW>
-1.31516

>  <SCORE.INTRA.VDW.0>
-3.9206

>  <SCORE.INTRA.norm>
-0.24815

>  <SCORE.RESTR>
0

>  <SCORE.RESTR.CAVITY>
0

>  <SCORE.RESTR.norm>
0

>  <SCORE.SYSTEM>
0

>  <SCORE.SYSTEM.CONST>
0

>  <SCORE.SYSTEM.DIHEDRAL>
0

>  <SCORE.SYSTEM.SOLV>
0

>  <SCORE.SYSTEM.norm>
0

>  <SCORE.heavy>
35

>  <SCORE.norm>
-0.500732

>  <RMSD>
8.416

$$$$
2f4t_lig
 OpenBabel11021811433D
libRbt.so/2013.1/901 2013/11/27
 35 36  0  0  0  0  0  0  0  0999 V2000
    3.6541  -11.5859   32.7101 C   0  0  2  0  0  0  0  0  0  0  0  0
    2.3968  -11.2547   32.0342 O   0  0  0  0  0  0  0  0  0  0  0  0
    3.8231   -9.0068   28.6328 C   0  0  2  0  0  0  0  0  0  0  0  0
    3.8137   -8.2718   27.3591 N   0  0  0  0  0  0  0  0  0  0  0  0
    3.2834  -12.6205   33.8155 C   0  0  2  0  0  0  0  0  0  0  0  0
    2.6162  -13.7645   33.2397 N   0  0  0  0  0  0  0  0  0  0  0  0
    3.1075  -10.3936   28.4369 C   0  0  0  0  0  0  0  0  0  0  0  0
    2.1479   -7.9084   26.8989 C   0  0  0  0  0  0  0  0  0  0  0  0
    2.7442   -7.2314   25.6847 C   0  0  1  0  0  0  0  0  0  0  0  0
    1.7596   -7.4096   24.5268 C   0  0  0  0  0  0  0  0  0  0  0  0
    0.4913   -6.5422   24.5919 C   0  0  0  0  0  0  0  0  0  0  0  0
   -0.2800   -6.7575   23.3640 N   0  0  0  0  0  0  0  0  0  0  0  0
    2.8545   -5.8466   25.8859 O   0  0  0  0  0  0  0  0  0  0  0  0
    3.9268   -5.6704   30.4448 C   0  0  0  0  0  0  0  0  0  0  0  0
    5.1969   -5.1041   29.8288 C   0  0  0  0  0  0  0  0  0  0  0  0
    2.3817  -11.9454   34.9035 C   0  0  1  0  0  0  0  0  0  0  0  0
    5.5292   -3.7435   30.3050 N   0  0  0  0  0  0  0  0  0  0  0  0
    2.0376  -12.8671   35.9195 O   0  0  0  0  0  0  0  0  0  0  0  0
    3.0738  -11.2089   29.7372 C   0  0  2  0  0  0  0  0  0  0  0  0
    2.3699  -12.4722   29.5404 N   0  0  0  0  0  0  0  0  0  0  0  0
    7.8777   -3.7111   31.1506 C   0  0  0  0  0  0  0  0  0  0  0  0
    9.3222   -3.1297   31.0199 N   0  0  0  0  0  0  0  0  0  0  0  0
    6.8895   -3.1817   30.0696 C   0  0  0  0  0  0  0  0  0  0  0  0
    1.1915   -8.1062   27.3294 O   0  0  0  0  0  0  0  0  0  0  0  0
    3.1517  -10.7566   35.4879 C   0  0  2  0  0  0  0  0  0  0  0  0
    2.3929  -10.1047   36.4934 O   0  0  0  0  0  0  0  0  0  0  0  0
    2.3884  -10.4281   30.8306 C   0  0  2  0  0  0  0  0  0  0  0  0
    3.5214   -9.7557   34.3553 C   0  0  2  0  0  0  0  0  0  0  0  0
    4.2968  -10.4012   33.3240 O   0  0  0  0  0  0  0  0  0  0  0  0
    3.1252   -9.0384   31.0557 C   0  0  2  0  0  0  0  0  0  0  0  0
    2.4402   -8.3150   32.1218 O   0  0  0  0  0  0  0  0  0  0  0  0
    4.2946   -8.5998   34.8679 C   0  0  0  0  0  0  0  0  0  0  0  0
    3.4701   -7.5411   35.0257 N   0  0  0  0  0  0  0  0  0  0  0  0
    3.0774   -8.2177   29.7202 C   0  0  1  0  0  0  0  0  0  0  0  0
    3.6914   -6.9804   29.8929 O   0  0  0  0  0  0  0  0  0  0  0  0
  1  2  1  1  0  0  0
  1  5  1  0  0  0  0
  1 29  1  0  0  0  0
  3  4  1  6  0  0  0
  3  7  1  0  0  0  0
  3 34  1  0  0  0  0
  5  6  1  6  0  0  0
  5 16  1  0  0  0  0
  7 19  1  0  0  0  0
  8  4  1  0  0  0  0
  8 24  2  0  0  0  0
  9  8  1  1  0  0  0
  9 10  1  0  0  0  0
  9 13  1  0  0  0  0
 10 11  1  0  0  0  0
 11 12  1  0  0  0  0
 14 15  1  0  0  0  0
 14 35  1  0  0  0  0
 15 17  1  0  0  0  0
 16 18  1  1  0  0  0
 16 25  1  0  0  0  0
 19 20  1  6  0  0  0
 19 27  1  0  0  0  0
 21 22  1  0  0  0  0
 21 23  1  0  0  0  0
 23 17  1  0  0  0  0
 25 26  1  1  0  0  0
 25 28  1  0  0  0  0
 27  2  1  1  0  0  0
 27 30  1  0  0  0  0
 28 29  1  0  0  0  0
 28 32  1  1  0  0  0
 30 31  1  1  0  0  0
 30 34  1  0  0  0  0
 32 33  2  0  0  0  0
 34 35  1  1  0  0  0
M  END
>  <CHROM.1>
-172.59971401,63.95803622,147.41684686,73.97738293,175.52482845,178.97655561
174.94228349,164.97851286,-177.68066612,-81.68328464,66.41354877,-99.84028987
-179.05566436,3.35924164,-8.55604369,30.60702960,1.60313137,0.92344474,2.12882752

>  <Name>
2f4t_lig

>  <RI>
0

>  <Rbt.Current_Directory>
/home/itssahil/PROJECTS/Mol_Feturizer/New_Systems/rnas/2f4t

>  <Rbt.Executable>
rbdock ($Id: //depot/dev/client3/rdock/2013.1/src/exe/rbdock.cxx#4 $)

>  <Rbt.Library>
libRbt.so (2013.1, Build901 2013/11/27)

>  <Rbt.Parameter_File>
/export/apps/rDock/src/rDock_2013.1_src/data/scripts/dock_solv.prm

>  <Rbt.Receptor>
prm/pocket_docking_5.prm

>  <SCORE>
-10.2735

>  <SCORE.INTER>
-1.56769

>  <SCORE.INTER.CONST>
1

>  <SCORE.INTER.POLAR>
-0.8

>  <SCORE.INTER.ROT>
13

>  <SCORE.INTER.SOLV>
8.28366

>  <SCORE.INTER.VDW>
-13.4063

>  <SCORE.INTER.norm>
-0.0447911

>  <SCORE.INTRA>
-8.70578

>  <SCORE.INTRA.DIHEDRAL>
-19.2429

>  <SCORE.INTRA.DIHEDRAL.0>
23.8882

>  <SCORE.INTRA.POLAR>
0

>  <SCORE.INTRA.POLAR.0>
0

>  <SCORE.INTRA.REPUL>
0

>  <SCORE.INTRA.REPUL.0>
0

>  <SCORE.INTRA.SOLV>
0.952195

>  <SCORE.INTRA.SOLV.lig_0>
-97.6888

>  <SCORE.INTRA.VDW>
0.439588

>  <SCORE.INTRA.VDW.0>
-3.9206

>  <SCORE.INTRA.norm>
-0.248737

>  <SCORE.RESTR>
0

>  <SCORE.RESTR.CAVITY>
0

>  <SCORE.RESTR.norm>
0

>  <SCORE.SYSTEM>
0

>  <SCORE.SYSTEM.CONST>
0

>  <SCORE.SYSTEM.DIHEDRAL>
0

>  <SCORE.SYSTEM.SOLV>
0

>  <SCORE.SYSTEM.norm>
0

>  <SCORE.heavy>
35

>  <SCORE.norm>
-0.293528

>  <RMSD>
8.449

$$$$
2f4t_lig
 OpenBabel11021811433D
libRbt.so/2013.1/901 2013/11/27
 35 36  0  0  0  0  0  0  0  0999 V2000
    2.3201  -12.2886   29.4432 C   0  0  2  0  0  0  0  0  0  0  0  0
    2.8698  -11.4550   30.5157 O   0  0  0  0  0  0  0  0  0  0  0  0
    5.6992   -8.1939   30.3860 C   0  0  2  0  0  0  0  0  0  0  0  0
    6.9821   -7.4788   30.3128 N   0  0  0  0  0  0  0  0  0  0  0  0
    1.0083  -12.9069   30.0146 C   0  0  2  0  0  0  0  0  0  0  0  0
    0.1084  -11.8695   30.4614 N   0  0  0  0  0  0  0  0  0  0  0  0
    5.7731   -9.2774   31.5236 C   0  0  0  0  0  0  0  0  0  0  0  0
    7.1760   -6.4649   31.7457 C   0  0  0  0  0  0  0  0  0  0  0  0
    8.5070   -6.0630   31.1496 C   0  0  1  0  0  0  0  0  0  0  0  0
    8.6101   -4.5386   31.2362 C   0  0  0  0  0  0  0  0  0  0  0  0
    7.6772   -3.7540   30.2985 C   0  0  0  0  0  0  0  0  0  0  0  0
    6.3116   -3.8421   30.8243 N   0  0  0  0  0  0  0  0  0  0  0  0
    9.5714   -6.5644   31.9150 O   0  0  0  0  0  0  0  0  0  0  0  0
    4.9087   -6.7750   27.3252 C   0  0  0  0  0  0  0  0  0  0  0  0
    3.4079   -6.8690   27.0964 C   0  0  0  0  0  0  0  0  0  0  0  0
    1.3430  -13.8897   31.1869 C   0  0  1  0  0  0  0  0  0  0  0  0
    2.8523   -5.7248   26.3410 N   0  0  0  0  0  0  0  0  0  0  0  0
    0.1651  -14.4660   31.7170 O   0  0  0  0  0  0  0  0  0  0  0  0
    4.4639  -10.0695   31.6455 C   0  0  2  0  0  0  0  0  0  0  0  0
    4.5709  -11.0947   32.6788 N   0  0  0  0  0  0  0  0  0  0  0  0
    1.0363   -6.6195   24.8804 C   0  0  0  0  0  0  0  0  0  0  0  0
    1.8421   -6.3373   23.5717 N   0  0  0  0  0  0  0  0  0  0  0  0
    1.3913   -5.6588   26.0537 C   0  0  0  0  0  0  0  0  0  0  0  0
    6.5819   -6.2682   32.6103 O   0  0  0  0  0  0  0  0  0  0  0  0
    2.2806  -14.9737   30.6450 C   0  0  2  0  0  0  0  0  0  0  0  0
    2.6148  -15.9089   31.6577 O   0  0  0  0  0  0  0  0  0  0  0  0
    4.1225  -10.7276   30.3319 C   0  0  2  0  0  0  0  0  0  0  0  0
    3.5685  -14.3201   30.0663 C   0  0  2  0  0  0  0  0  0  0  0  0
    3.2478  -13.3671   29.0316 O   0  0  0  0  0  0  0  0  0  0  0  0
    4.0153   -9.6348   29.1833 C   0  0  2  0  0  0  0  0  0  0  0  0
    3.6787  -10.3056   27.9319 O   0  0  0  0  0  0  0  0  0  0  0  0
    4.4964  -15.3288   29.5021 C   0  0  0  0  0  0  0  0  0  0  0  0
    4.0090  -15.7804   28.3256 N   0  0  0  0  0  0  0  0  0  0  0  0
    5.3937   -8.8982   29.0550 C   0  0  1  0  0  0  0  0  0  0  0  0
    5.3410   -7.9517   28.0356 O   0  0  0  0  0  0  0  0  0  0  0  0
  1  2  1  1  0  0  0
  1  5  1  0  0  0  0
  1 29  1  0  0  0  0
  3  4  1  6  0  0  0
  3  7  1  0  0  0  0
  3 34  1  0  0  0  0
  5  6  1  1  0  0  0
  5 16  1  0  0  0  0
  7 19  1  0  0  0  0
  8  4  1  0  0  0  0
  8 24  2  0  0  0  0
  9  8  1  1  0  0  0
  9 10  1  0  0  0  0
  9 13  1  0  0  0  0
 10 11  1  0  0  0  0
 11 12  1  0  0  0  0
 14 15  1  0  0  0  0
 14 35  1  0  0  0  0
 15 17  1  0  0  0  0
 16 18  1  6  0  0  0
 16 25  1  0  0  0  0
 19 20  1  1  0  0  0
 19 27  1  0  0  0  0
 21 22  1  0  0  0  0
 21 23  1  0  0  0  0
 23 17  1  0  0  0  0
 25 26  1  1  0  0  0
 25 28  1  0  0  0  0
 27  2  1  1  0  0  0
 27 30  1  0  0  0  0
 28 29  1  0  0  0  0
 28 32  1  6  0  0  0
 30 31  1  6  0  0  0
 30 34  1  0  0  0  0
 32 33  2  0  0  0  0
 34 35  1  6  0  0  0
M  END
>  <CHROM.1>
179.23035834,-69.81771052,132.82455410,-70.39093177,73.77455320,-178.54773743
-57.29925213,-179.05115942,-56.63644210,-77.38237786,-175.34378390,74.09519074
-56.62296155,4.22326776,-9.59632620,29.67963589,2.20232456,0.74855891,2.60578219

>  <Name>
2f4t_lig

>  <RI>
0

>  <Rbt.Current_Directory>
/home/itssahil/PROJECTS/Mol_Feturizer/New_Systems/rnas/2f4t

>  <Rbt.Executable>
rbdock ($Id: //depot/dev/client3/rdock/2013.1/src/exe/rbdock.cxx#4 $)

>  <Rbt.Library>
libRbt.so (2013.1, Build901 2013/11/27)

>  <Rbt.Parameter_File>
/export/apps/rDock/src/rDock_2013.1_src/data/scripts/dock_solv.prm

>  <Rbt.Receptor>
prm/pocket_docking_5.prm

>  <SCORE>
-14.5665

>  <SCORE.INTER>
-7.27535

>  <SCORE.INTER.CONST>
1

>  <SCORE.INTER.POLAR>
-1.48354

>  <SCORE.INTER.ROT>
13

>  <SCORE.INTER.SOLV>
15.1561

>  <SCORE.INTER.VDW>
-17.2238

>  <SCORE.INTER.norm>
-0.207867

>  <SCORE.INTRA>
-7.29114

>  <SCORE.INTRA.DIHEDRAL>
-18.213

>  <SCORE.INTRA.DIHEDRAL.0>
23.8882

>  <SCORE.INTRA.POLAR>
0

>  <SCORE.INTRA.POLAR.0>
0

>  <SCORE.INTRA.REPUL>
0

>  <SCORE.INTRA.REPUL.0>
0

>  <SCORE.INTRA.SOLV>
3.55064

>  <SCORE.INTRA.SOLV.lig_0>
-97.6888

>  <SCORE.INTRA.VDW>
0.0400157

>  <SCORE.INTRA.VDW.0>
-3.9206

>  <SCORE.INTRA.norm>
-0.208318

>  <SCORE.RESTR>
0

>  <SCORE.RESTR.CAVITY>
0

>  <SCORE.RESTR.norm>
0

>  <SCORE.SYSTEM>
0

>  <SCORE.SYSTEM.CONST>
0

>  <SCORE.SYSTEM.DIHEDRAL>
0

>  <SCORE.SYSTEM.SOLV>
0

>  <SCORE.SYSTEM.norm>
0

>  <SCORE.heavy>
35

>  <SCORE.norm>
-0.416186

>  <RMSD>
8.451

$$$$
2f4t_lig
 OpenBabel11021811433D
libRbt.so/2013.1/901 2013/11/27
 35 36  0  0  0  0  0  0  0  0999 V2000
    8.9664   -6.5426   27.8924 C   0  0  2  0  0  0  0  0  0  0  0  0
    8.3622   -5.5803   28.8176 O   0  0  0  0  0  0  0  0  0  0  0  0
    4.1532   -6.3462   28.2221 C   0  0  2  0  0  0  0  0  0  0  0  0
    2.7053   -6.3840   28.4769 N   0  0  0  0  0  0  0  0  0  0  0  0
   10.5054   -6.3129   27.9842 C   0  0  2  0  0  0  0  0  0  0  0  0
   10.9613   -6.4546   29.3471 N   0  0  0  0  0  0  0  0  0  0  0  0
    4.9136   -6.9529   29.4579 C   0  0  0  0  0  0  0  0  0  0  0  0
    2.3122   -5.2995   29.8141 C   0  0  0  0  0  0  0  0  0  0  0  0
    0.8775   -5.7274   29.5983 C   0  0  1  0  0  0  0  0  0  0  0  0
    0.1216   -5.4843   30.9065 C   0  0  0  0  0  0  0  0  0  0  0  0
   -1.3325   -5.9841   30.9380 C   0  0  0  0  0  0  0  0  0  0  0  0
   -2.1277   -5.1520   30.0301 N   0  0  0  0  0  0  0  0  0  0  0  0
    0.2518   -4.9186   28.6367 O   0  0  0  0  0  0  0  0  0  0  0  0
    3.4073   -4.2528   25.5998 C   0  0  0  0  0  0  0  0  0  0  0  0
    2.2701   -5.2544   25.4693 C   0  0  0  0  0  0  0  0  0  0  0  0
   10.8723   -4.8975   27.4237 C   0  0  1  0  0  0  0  0  0  0  0  0
    1.4938   -5.1078   24.2186 N   0  0  0  0  0  0  0  0  0  0  0  0
   12.2666   -4.6706   27.4937 O   0  0  0  0  0  0  0  0  0  0  0  0
    6.4357   -6.9330   29.2595 C   0  0  2  0  0  0  0  0  0  0  0  0
    7.1199   -7.4628   30.4348 N   0  0  0  0  0  0  0  0  0  0  0  0
   -0.7039   -4.9383   23.0469 C   0  0  0  0  0  0  0  0  0  0  0  0
   -2.1594   -4.3694   23.0452 N   0  0  0  0  0  0  0  0  0  0  0  0
    0.1624   -4.4383   24.2406 C   0  0  0  0  0  0  0  0  0  0  0  0
    2.8802   -4.6568   30.4493 O   0  0  0  0  0  0  0  0  0  0  0  0
   10.3822   -4.8187   25.9742 C   0  0  2  0  0  0  0  0  0  0  0  0
   10.6955   -3.5603   25.3997 O   0  0  0  0  0  0  0  0  0  0  0  0
    6.9149   -5.5261   29.0028 C   0  0  2  0  0  0  0  0  0  0  0  0
    8.8479   -5.0716   25.9186 C   0  0  2  0  0  0  0  0  0  0  0  0
    8.5106   -6.3498   26.4965 O   0  0  0  0  0  0  0  0  0  0  0  0
    6.1733   -4.9175   27.7360 C   0  0  2  0  0  0  0  0  0  0  0  0
    6.6653   -3.5617   27.5149 O   0  0  0  0  0  0  0  0  0  0  0  0
    8.3301   -5.0344   24.5303 C   0  0  0  0  0  0  0  0  0  0  0  0
    7.0206   -5.3675   24.5294 N   0  0  0  0  0  0  0  0  0  0  0  0
    4.6298   -4.9005   28.0125 C   0  0  1  0  0  0  0  0  0  0  0  0
    3.9526   -4.3456   26.9303 O   0  0  0  0  0  0  0  0  0  0  0  0
  1  2  1  1  0  0  0
  1  5  1  0  0  0  0
  1 29  1  0  0  0  0
  3  4  1  1  0  0  0
  3  7  1  0  0  0  0
  3 34  1  0  0  0  0
  5  6  1  1  0  0  0
  5 16  1  0  0  0  0
  7 19  1  0  0  0  0
  8  4  1  0  0  0  0
  8 24  2  0  0  0  0
  9  8  1  1  0  0  0
  9 10  1  0  0  0  0
  9 13  1  0  0  0  0
 10 11  1  0  0  0  0
 11 12  1  0  0  0  0
 14 15  1  0  0  0  0
 14 35  1  0  0  0  0
 15 17  1  0  0  0  0
 16 18  1  6  0  0  0
 16 25  1  0  0  0  0
 19 20  1  1  0  0  0
 19 27  1  0  0  0  0
 21 22  1  0  0  0  0
 21 23  1  0  0  0  0
 23 17  1  0  0  0  0
 25 26  1  1  0  0  0
 25 28  1  0  0  0  0
 27  2  1  6  0  0  0
 27 30  1  0  0  0  0
 28 29  1  0  0  0  0
 28 32  1  6  0  0  0
 30 31  1  1  0  0  0
 30 34  1  0  0  0  0
 32 33  2  0  0  0  0
 34 35  1  6  0  0  0
M  END
>  <CHROM.1>
-179.16380802,66.06734919,157.10203285,-174.31264836,-68.89972632,171.00927064
68.66087674,-102.41922382,175.77440528,-154.96793282,49.71659404,174.99870735
-47.70830856,5.06274168,-5.33288832,27.50433454,-0.00990501,-0.02559837,1.80000659

>  <Name>
2f4t_lig

>  <RI>
0

>  <Rbt.Current_Directory>
/home/itssahil/PROJECTS/Mol_Feturizer/New_Systems/rnas/2f4t

>  <Rbt.Executable>
rbdock ($Id: //depot/dev/client3/rdock/2013.1/src/exe/rbdock.cxx#4 $)

>  <Rbt.Library>
libRbt.so (2013.1, Build901 2013/11/27)

>  <Rbt.Parameter_File>
/export/apps/rDock/src/rDock_2013.1_src/data/scripts/dock_solv.prm

>  <Rbt.Receptor>
prm/pocket_docking_8.prm

>  <SCORE>
-18.844

>  <SCORE.INTER>
-11.1113

>  <SCORE.INTER.CONST>
1

>  <SCORE.INTER.POLAR>
-1.80442

>  <SCORE.INTER.ROT>
13

>  <SCORE.INTER.SOLV>
16.056

>  <SCORE.INTER.VDW>
-19.0115

>  <SCORE.INTER.norm>
-0.317467

>  <SCORE.INTRA>
-7.73265

>  <SCORE.INTRA.DIHEDRAL>
-16.9107

>  <SCORE.INTRA.DIHEDRAL.0>
23.8882

>  <SCORE.INTRA.POLAR>
0

>  <SCORE.INTRA.POLAR.0>
0

>  <SCORE.INTRA.REPUL>
0

>  <SCORE.INTRA.REPUL.0>
0

>  <SCORE.INTRA.SOLV>
2.66224

>  <SCORE.INTRA.SOLV.lig_0>
-97.6888

>  <SCORE.INTRA.VDW>
-0.608439

>  <SCORE.INTRA.VDW.0>
-3.9206

>  <SCORE.INTRA.norm>
-0.220933

>  <SCORE.RESTR>
0

>  <SCORE.RESTR.CAVITY>
0

>  <SCORE.RESTR.norm>
0

>  <SCORE.SYSTEM>
0

>  <SCORE.SYSTEM.CONST>
0

>  <SCORE.SYSTEM.DIHEDRAL>
0

>  <SCORE.SYSTEM.SOLV>
0

>  <SCORE.SYSTEM.norm>
0

>  <SCORE.heavy>
35

>  <SCORE.norm>
-0.5384

>  <RMSD>
8.456

$$$$
2f4t_lig
 OpenBabel11021811433D
libRbt.so/2013.1/901 2013/11/27
 35 36  0  0  0  0  0  0  0  0999 V2000
    7.3663   -5.4250   27.6373 C   0  0  2  0  0  0  0  0  0  0  0  0
    6.1536   -4.6282   27.4335 O   0  0  0  0  0  0  0  0  0  0  0  0
    2.0751   -5.6581   26.4526 C   0  0  2  0  0  0  0  0  0  0  0  0
    0.9121   -6.1080   25.6731 N   0  0  0  0  0  0  0  0  0  0  0  0
    8.4179   -4.4508   28.2495 C   0  0  2  0  0  0  0  0  0  0  0  0
    7.9103   -3.8481   29.4597 N   0  0  0  0  0  0  0  0  0  0  0  0
    2.8373   -4.5410   25.6497 C   0  0  0  0  0  0  0  0  0  0  0  0
    1.4225   -6.5157   24.0323 C   0  0  0  0  0  0  0  0  0  0  0  0
   -0.0277   -6.8669   23.7834 C   0  0  1  0  0  0  0  0  0  0  0  0
   -0.2602   -6.8236   22.2715 C   0  0  0  0  0  0  0  0  0  0  0  0
   -1.7313   -6.8366   21.8235 C   0  0  0  0  0  0  0  0  0  0  0  0
   -2.3592   -5.5861   22.2607 N   0  0  0  0  0  0  0  0  0  0  0  0
   -0.2988   -8.1868   24.1765 O   0  0  0  0  0  0  0  0  0  0  0  0
    2.2043   -8.9774   28.2596 C   0  0  0  0  0  0  0  0  0  0  0  0
    3.0927  -10.1003   27.7466 C   0  0  0  0  0  0  0  0  0  0  0  0
    8.8038   -3.3501   27.2046 C   0  0  1  0  0  0  0  0  0  0  0  0
    3.0113  -11.3356   28.5566 N   0  0  0  0  0  0  0  0  0  0  0  0
    9.7618   -2.4575   27.7393 O   0  0  0  0  0  0  0  0  0  0  0  0
    4.0728   -4.0341   26.4068 C   0  0  2  0  0  0  0  0  0  0  0  0
    4.7853   -3.0287   25.6247 N   0  0  0  0  0  0  0  0  0  0  0  0
    1.6852  -13.1936   29.5670 C   0  0  0  0  0  0  0  0  0  0  0  0
    2.9252  -14.0383   30.0036 N   0  0  0  0  0  0  0  0  0  0  0  0
    1.9324  -12.3301   28.2948 C   0  0  0  0  0  0  0  0  0  0  0  0
    2.3540   -6.4993   23.5116 O   0  0  0  0  0  0  0  0  0  0  0  0
    9.3524   -4.0507   25.9572 C   0  0  2  0  0  0  0  0  0  0  0  0
    9.7346   -3.1059   24.9707 O   0  0  0  0  0  0  0  0  0  0  0  0
    5.0094   -5.1765   26.7109 C   0  0  2  0  0  0  0  0  0  0  0  0
    8.2851   -5.0279   25.3852 C   0  0  2  0  0  0  0  0  0  0  0  0
    7.8861   -5.9990   26.3748 O   0  0  0  0  0  0  0  0  0  0  0  0
    4.2544   -6.2955   27.5493 C   0  0  2  0  0  0  0  0  0  0  0  0
    5.1906   -7.3790   27.8295 O   0  0  0  0  0  0  0  0  0  0  0  0
    8.7809   -5.7530   24.1914 C   0  0  0  0  0  0  0  0  0  0  0  0
    7.8535   -5.6923   23.2106 N   0  0  0  0  0  0  0  0  0  0  0  0
    3.0409   -6.8254   26.7091 C   0  0  1  0  0  0  0  0  0  0  0  0
    2.3741   -7.8291   27.4061 O   0  0  0  0  0  0  0  0  0  0  0  0
  1  2  1  6  0  0  0
  1  5  1  0  0  0  0
  1 29  1  0  0  0  0
  3  4  1  6  0  0  0
  3  7  1  0  0  0  0
  3 34  1  0  0  0  0
  5  6  1  1  0  0  0
  5 16  1  0  0  0  0
  7 19  1  0  0  0  0
  8  4  1  0  0  0  0
  8 24  2  0  0  0  0
  9  8  1  6  0  0  0
  9 10  1  0  0  0  0
  9 13  1  0  0  0  0
 10 11  1  0  0  0  0
 11 12  1  0  0  0  0
 14 15  1  0  0  0  0
 14 35  1  0  0  0  0
 15 17  1  0  0  0  0
 16 18  1  1  0  0  0
 16 25  1  0  0  0  0
 19 20  1  6  0  0  0
 19 27  1  0  0  0  0
 21 22  1  0  0  0  0
 21 23  1  0  0  0  0
 23 17  1  0  0  0  0
 25 26  1  6  0  0  0
 25 28  1  0  0  0  0
 27  2  1  1  0  0  0
 27 30  1  0  0  0  0
 28 29  1  0  0  0  0
 28 32  1  6  0  0  0
 30 31  1  6  0  0  0
 30 34  1  0  0  0  0
 32 33  2  0  0  0  0
 34 35  1  1  0  0  0
M  END
>  <CHROM.1>
171.97856310,50.91997267,159.15107796,-166.68391409,66.42806344,179.47921630
-52.98604944,84.86279908,-62.30318688,-156.84662109,-167.52540752,-131.97606745
-156.79330598,4.26239288,-6.51988233,26.23614036,-0.37575162,0.44659375,2.47446425

>  <Name>
2f4t_lig

>  <RI>
0

>  <Rbt.Current_Directory>
/home/itssahil/PROJECTS/Mol_Feturizer/New_Systems/rnas/2f4t

>  <Rbt.Executable>
rbdock ($Id: //depot/dev/client3/rdock/2013.1/src/exe/rbdock.cxx#4 $)

>  <Rbt.Library>
libRbt.so (2013.1, Build901 2013/11/27)

>  <Rbt.Parameter_File>
/export/apps/rDock/src/rDock_2013.1_src/data/scripts/dock_solv.prm

>  <Rbt.Receptor>
prm/pocket_docking_8.prm

>  <SCORE>
-26.1345

>  <SCORE.INTER>
-18.9065

>  <SCORE.INTER.CONST>
1

>  <SCORE.INTER.POLAR>
-2.6577

>  <SCORE.INTER.ROT>
13

>  <SCORE.INTER.SOLV>
14.5908

>  <SCORE.INTER.VDW>
-20.8756

>  <SCORE.INTER.norm>
-0.540185

>  <SCORE.INTRA>
-7.22807

>  <SCORE.INTRA.DIHEDRAL>
-16.3985

>  <SCORE.INTRA.DIHEDRAL.0>
23.8882

>  <SCORE.INTRA.POLAR>
0

>  <SCORE.INTRA.POLAR.0>
0

>  <SCORE.INTRA.REPUL>
0

>  <SCORE.INTRA.REPUL.0>
0

>  <SCORE.INTRA.SOLV>
1.31081

>  <SCORE.INTRA.SOLV.lig_0>
-97.6888

>  <SCORE.INTRA.VDW>
0.315774

>  <SCORE.INTRA.VDW.0>
-3.9206

>  <SCORE.INTRA.norm>
-0.206516

>  <SCORE.RESTR>
0

>  <SCORE.RESTR.CAVITY>
0

>  <SCORE.RESTR.norm>
0

>  <SCORE.SYSTEM>
0

>  <SCORE.SYSTEM.CONST>
0

>  <SCORE.SYSTEM.DIHEDRAL>
0

>  <SCORE.SYSTEM.SOLV>
0

>  <SCORE.SYSTEM.norm>
0

>  <SCORE.heavy>
35

>  <SCORE.norm>
-0.746701

>  <RMSD>
8.475

$$$$
2f4t_lig
 OpenBabel11021811433D
libRbt.so/2013.1/901 2013/11/27
 35 36  0  0  0  0  0  0  0  0999 V2000
    2.4830  -12.2675   31.9980 C   0  0  2  0  0  0  0  0  0  0  0  0
    3.2625  -11.0883   31.6118 O   0  0  0  0  0  0  0  0  0  0  0  0
    2.7820   -8.4292   28.2419 C   0  0  2  0  0  0  0  0  0  0  0  0
    2.1550   -7.4874   27.3025 N   0  0  0  0  0  0  0  0  0  0  0  0
    2.9066  -12.5971   33.4614 C   0  0  2  0  0  0  0  0  0  0  0  0
    2.6967  -11.4565   34.3218 N   0  0  0  0  0  0  0  0  0  0  0  0
    1.8546   -9.6882   28.4111 C   0  0  0  0  0  0  0  0  0  0  0  0
    3.3981   -6.7490   26.2884 C   0  0  0  0  0  0  0  0  0  0  0  0
    2.2622   -5.9997   25.6277 C   0  0  1  0  0  0  0  0  0  0  0  0
    2.1795   -4.6179   26.2801 C   0  0  0  0  0  0  0  0  0  0  0  0
    0.9889   -3.7467   25.8457 C   0  0  0  0  0  0  0  0  0  0  0  0
    1.0393   -2.4875   26.5946 N   0  0  0  0  0  0  0  0  0  0  0  0
    2.5360   -5.7684   24.2706 O   0  0  0  0  0  0  0  0  0  0  0  0
    4.9289   -5.8630   29.0927 C   0  0  0  0  0  0  0  0  0  0  0  0
    6.1887   -6.5770   29.5582 C   0  0  0  0  0  0  0  0  0  0  0  0
    4.4057  -13.0484   33.4988 C   0  0  1  0  0  0  0  0  0  0  0  0
    6.2949   -6.6899   31.0295 N   0  0  0  0  0  0  0  0  0  0  0  0
    4.8091  -13.3571   34.8188 O   0  0  0  0  0  0  0  0  0  0  0  0
    2.4488  -10.7093   29.3911 C   0  0  2  0  0  0  0  0  0  0  0  0
    1.5522  -11.8481   29.5623 N   0  0  0  0  0  0  0  0  0  0  0  0
    7.9087   -6.7129   32.9338 C   0  0  0  0  0  0  0  0  0  0  0  0
    6.7785   -6.5070   33.9931 N   0  0  0  0  0  0  0  0  0  0  0  0
    7.4304   -7.4371   31.6407 C   0  0  0  0  0  0  0  0  0  0  0  0
    4.4598   -6.8357   26.2219 O   0  0  0  0  0  0  0  0  0  0  0  0
    4.5573  -14.2695   32.5859 C   0  0  2  0  0  0  0  0  0  0  0  0
    5.8956  -14.7391   32.5836 O   0  0  0  0  0  0  0  0  0  0  0  0
    2.6940  -10.0689   30.7345 C   0  0  2  0  0  0  0  0  0  0  0  0
    4.1080  -13.9099   31.1402 C   0  0  2  0  0  0  0  0  0  0  0  0
    2.7465  -13.4327   31.1226 O   0  0  0  0  0  0  0  0  0  0  0  0
    3.6559   -8.8141   30.5757 C   0  0  2  0  0  0  0  0  0  0  0  0
    3.8749   -8.2252   31.8927 O   0  0  0  0  0  0  0  0  0  0  0  0
    4.2090  -15.0704   30.2237 C   0  0  0  0  0  0  0  0  0  0  0  0
    2.9725  -15.5531   29.9708 N   0  0  0  0  0  0  0  0  0  0  0  0
    2.9776   -7.7740   29.6180 C   0  0  1  0  0  0  0  0  0  0  0  0
    3.7846   -6.6481   29.4804 O   0  0  0  0  0  0  0  0  0  0  0  0
  1  2  1  6  0  0  0
  1  5  1  0  0  0  0
  1 29  1  0  0  0  0
  3  4  1  6  0  0  0
  3  7  1  0  0  0  0
  3 34  1  0  0  0  0
  5  6  1  1  0  0  0
  5 16  1  0  0  0  0
  7 19  1  0  0  0  0
  8  4  1  0  0  0  0
  8 24  2  0  0  0  0
  9  8  1  1  0  0  0
  9 10  1  0  0  0  0
  9 13  1  0  0  0  0
 10 11  1  0  0  0  0
 11 12  1  0  0  0  0
 14 15  1  0  0  0  0
 14 35  1  0  0  0  0
 15 17  1  0  0  0  0
 16 18  1  1  0  0  0
 16 25  1  0  0  0  0
 19 20  1  1  0  0  0
 19 27  1  0  0  0  0
 21 22  1  0  0  0  0
 21 23  1  0  0  0  0
 23 17  1  0  0  0  0
 25 26  1  6  0  0  0
 25 28  1  0  0  0  0
 27  2  1  1  0  0  0
 27 30  1  0  0  0  0
 28 29  1  0  0  0  0
 28 32  1  6  0  0  0
 30 31  1  1  0  0  0
 30 34  1  0  0  0  0
 32 33  2  0  0  0  0
 34 35  1  6  0  0  0
M  END
>  <CHROM.1>
-145.12355425,-142.00845387,97.00640479,-173.97877432,178.13609967,-64.06032133
-50.22304070,176.24157691,56.39756118,142.02526635,-64.80280852,105.31583390
-52.65828861,3.71067063,-9.31739935,30.06339059,1.37620743,0.88999702,2.68150437

>  <Name>
2f4t_lig

>  <RI>
0

>  <Rbt.Current_Directory>
/home/itssahil/PROJECTS/Mol_Feturizer/New_Systems/rnas/2f4t

>  <Rbt.Executable>
rbdock ($Id: //depot/dev/client3/rdock/2013.1/src/exe/rbdock.cxx#4 $)

>  <Rbt.Library>
libRbt.so (2013.1, Build901 2013/11/27)

>  <Rbt.Parameter_File>
/export/apps/rDock/src/rDock_2013.1_src/data/scripts/dock_solv.prm

>  <Rbt.Receptor>
prm/pocket_docking_3.prm

>  <SCORE>
-6.90506

>  <SCORE.INTER>
-3.30668

>  <SCORE.INTER.CONST>
1

>  <SCORE.INTER.POLAR>
-0.938083

>  <SCORE.INTER.ROT>
13

>  <SCORE.INTER.SOLV>
16.8109

>  <SCORE.INTER.VDW>
-16.9478

>  <SCORE.INTER.norm>
-0.0944765

>  <SCORE.INTRA>
-3.60373

>  <SCORE.INTRA.DIHEDRAL>
-13.6767

>  <SCORE.INTRA.DIHEDRAL.0>
23.8882

>  <SCORE.INTRA.POLAR>
0

>  <SCORE.INTRA.POLAR.0>
0

>  <SCORE.INTRA.REPUL>
0

>  <SCORE.INTRA.REPUL.0>
0

>  <SCORE.INTRA.SOLV>
5.06298

>  <SCORE.INTRA.SOLV.lig_0>
-97.6888

>  <SCORE.INTRA.VDW>
0.703134

>  <SCORE.INTRA.VDW.0>
-3.9206

>  <SCORE.INTRA.norm>
-0.102964

>  <SCORE.RESTR>
0.00534455

>  <SCORE.RESTR.CAVITY>
0.00534455

>  <SCORE.RESTR.norm>
0.000152701

>  <SCORE.SYSTEM>
0

>  <SCORE.SYSTEM.CONST>
0

>  <SCORE.SYSTEM.DIHEDRAL>
0

>  <SCORE.SYSTEM.SOLV>
0

>  <SCORE.SYSTEM.norm>
0

>  <SCORE.heavy>
35

>  <SCORE.norm>
-0.197287

>  <RMSD>
8.476

$$$$
2f4t_lig
 OpenBabel11021811433D
libRbt.so/2013.1/901 2013/11/27
 35 36  0  0  0  0  0  0  0  0999 V2000
    4.6757  -11.6680   32.0794 C   0  0  2  0  0  0  0  0  0  0  0  0
    3.7401  -11.6209   30.9526 O   0  0  0  0  0  0  0  0  0  0  0  0
    3.9051   -8.6372   27.8337 C   0  0  2  0  0  0  0  0  0  0  0  0
    3.5782   -7.4357   27.0513 N   0  0  0  0  0  0  0  0  0  0  0  0
    4.6799  -13.1484   32.5675 C   0  0  2  0  0  0  0  0  0  0  0  0
    5.0288  -14.0404   31.4867 N   0  0  0  0  0  0  0  0  0  0  0  0
    2.5924   -9.4665   28.0841 C   0  0  0  0  0  0  0  0  0  0  0  0
    2.3205   -6.5144   27.8809 C   0  0  0  0  0  0  0  0  0  0  0  0
    2.4293   -5.5361   26.7323 C   0  0  1  0  0  0  0  0  0  0  0  0
    1.0120   -5.0805   26.3781 C   0  0  0  0  0  0  0  0  0  0  0  0
    0.8683   -4.3281   25.0446 C   0  0  0  0  0  0  0  0  0  0  0  0
   -0.5504   -4.0233   24.8358 N   0  0  0  0  0  0  0  0  0  0  0  0
    3.1191   -4.3779   27.1233 O   0  0  0  0  0  0  0  0  0  0  0  0
    6.9926   -7.1954   28.5169 C   0  0  0  0  0  0  0  0  0  0  0  0
    7.9709   -8.1728   29.1500 C   0  0  0  0  0  0  0  0  0  0  0  0
    3.2803  -13.5227   33.1620 C   0  0  1  0  0  0  0  0  0  0  0  0
    8.4788   -7.7311   30.4674 N   0  0  0  0  0  0  0  0  0  0  0  0
    3.2643  -14.8622   33.6157 O   0  0  0  0  0  0  0  0  0  0  0  0
    2.8639  -10.7330   28.9079 C   0  0  2  0  0  0  0  0  0  0  0  0
    1.6260  -11.4634   29.1614 N   0  0  0  0  0  0  0  0  0  0  0  0
    9.5476   -5.8771   31.7527 C   0  0  0  0  0  0  0  0  0  0  0  0
   10.6386   -4.7586   31.7786 N   0  0  0  0  0  0  0  0  0  0  0  0
    9.6818   -6.8549   30.5480 C   0  0  0  0  0  0  0  0  0  0  0  0
    1.7704   -6.6444   28.7863 O   0  0  0  0  0  0  0  0  0  0  0  0
    2.9792  -12.5568   34.3127 C   0  0  2  0  0  0  0  0  0  0  0  0
    1.7250  -12.8497   34.9068 O   0  0  0  0  0  0  0  0  0  0  0  0
    3.5044  -10.3764   30.2261 C   0  0  2  0  0  0  0  0  0  0  0  0
    3.0023  -11.0901   33.7939 C   0  0  2  0  0  0  0  0  0  0  0  0
    4.2729  -10.7729   33.1884 O   0  0  0  0  0  0  0  0  0  0  0  0
    4.8483   -9.5650   29.9803 C   0  0  2  0  0  0  0  0  0  0  0  0
    5.4417   -9.2433   31.2740 O   0  0  0  0  0  0  0  0  0  0  0  0
    2.7446  -10.1141   34.8793 C   0  0  0  0  0  0  0  0  0  0  0  0
    1.4986   -9.6093   34.7441 N   0  0  0  0  0  0  0  0  0  0  0  0
    4.5101   -8.2518   29.1926 C   0  0  1  0  0  0  0  0  0  0  0  0
    5.6653   -7.5032   28.9856 O   0  0  0  0  0  0  0  0  0  0  0  0
  1  2  1  6  0  0  0
  1  5  1  0  0  0  0
  1 29  1  0  0  0  0
  3  4  1  6  0  0  0
  3  7  1  0  0  0  0
  3 34  1  0  0  0  0
  5  6  1  6  0  0  0
  5 16  1  0  0  0  0
  7 19  1  0  0  0  0
  8  4  1  0  0  0  0
  8 24  2  0  0  0  0
  9  8  1  1  0  0  0
  9 10  1  0  0  0  0
  9 13  1  0  0  0  0
 10 11  1  0  0  0  0
 11 12  1  0  0  0  0
 14 15  1  0  0  0  0
 14 35  1  0  0  0  0
 15 17  1  0  0  0  0
 16 18  1  1  0  0  0
 16 25  1  0  0  0  0
 19 20  1  1  0  0  0
 19 27  1  0  0  0  0
 21 22  1  0  0  0  0
 21 23  1  0  0  0  0
 23 17  1  0  0  0  0
 25 26  1  6  0  0  0
 25 28  1  0  0  0  0
 27  2  1  6  0  0  0
 27 30  1  0  0  0  0
 28 29  1  0  0  0  0
 28 32  1  1  0  0  0
 30 31  1  1  0  0  0
 30 34  1  0  0  0  0
 32 33  2  0  0  0  0
 34 35  1  6  0  0  0
M  END
>  <CHROM.1>
-178.83537124,55.45098697,139.90177812,-167.03175711,177.42756817,-87.52769042
-61.20924993,-87.38167249,-170.15193278,146.16242193,162.55489562,-106.42522519
-59.72083936,4.10969883,-9.01648302,30.28329812,-1.52821492,-0.32563363,-0.72316098

>  <Name>
2f4t_lig

>  <RI>
0

>  <Rbt.Current_Directory>
/home/itssahil/PROJECTS/Mol_Feturizer/New_Systems/rnas/2f4t

>  <Rbt.Executable>
rbdock ($Id: //depot/dev/client3/rdock/2013.1/src/exe/rbdock.cxx#4 $)

>  <Rbt.Library>
libRbt.so (2013.1, Build901 2013/11/27)

>  <Rbt.Parameter_File>
/export/apps/rDock/src/rDock_2013.1_src/data/scripts/dock_solv.prm

>  <Rbt.Receptor>
prm/pocket_docking_5.prm

>  <SCORE>
-16.1089

>  <SCORE.INTER>
-9.19863

>  <SCORE.INTER.CONST>
1

>  <SCORE.INTER.POLAR>
-1.66342

>  <SCORE.INTER.ROT>
13

>  <SCORE.INTER.SOLV>
20.7033

>  <SCORE.INTER.VDW>
-19.7554

>  <SCORE.INTER.norm>
-0.262818

>  <SCORE.INTRA>
-6.91031

>  <SCORE.INTRA.DIHEDRAL>
-14.9329

>  <SCORE.INTRA.DIHEDRAL.0>
23.8882

>  <SCORE.INTRA.POLAR>
0

>  <SCORE.INTRA.POLAR.0>
0

>  <SCORE.INTRA.REPUL>
0

>  <SCORE.INTRA.REPUL.0>
0

>  <SCORE.INTRA.SOLV>
-0.458642

>  <SCORE.INTRA.SOLV.lig_0>
-97.6888

>  <SCORE.INTRA.VDW>
0.785453

>  <SCORE.INTRA.VDW.0>
-3.9206

>  <SCORE.INTRA.norm>
-0.197437

>  <SCORE.RESTR>
0

>  <SCORE.RESTR.CAVITY>
0

>  <SCORE.RESTR.norm>
0

>  <SCORE.SYSTEM>
0

>  <SCORE.SYSTEM.CONST>
0

>  <SCORE.SYSTEM.DIHEDRAL>
0

>  <SCORE.SYSTEM.SOLV>
0

>  <SCORE.SYSTEM.norm>
0

>  <SCORE.heavy>
35

>  <SCORE.norm>
-0.460255

>  <RMSD>
8.488

$$$$
2f4t_lig
 OpenBabel11021811433D
libRbt.so/2013.1/901 2013/11/27
 35 36  0  0  0  0  0  0  0  0999 V2000
    4.7547  -11.6297   31.9235 C   0  0  2  0  0  0  0  0  0  0  0  0
    3.8885  -11.5474   30.7445 O   0  0  0  0  0  0  0  0  0  0  0  0
    3.5338   -8.3350   27.8789 C   0  0  2  0  0  0  0  0  0  0  0  0
    3.0804   -7.0829   27.2548 N   0  0  0  0  0  0  0  0  0  0  0  0
    4.7005  -13.1164   32.3887 C   0  0  2  0  0  0  0  0  0  0  0  0
    5.0950  -14.0003   31.3170 N   0  0  0  0  0  0  0  0  0  0  0  0
    2.2818   -9.2003   28.2754 C   0  0  0  0  0  0  0  0  0  0  0  0
    4.4168   -6.3496   26.3630 C   0  0  0  0  0  0  0  0  0  0  0  0
    3.4342   -5.2585   25.9994 C   0  0  1  0  0  0  0  0  0  0  0  0
    4.1229   -3.9150   26.2499 C   0  0  0  0  0  0  0  0  0  0  0  0
    5.4395   -3.6895   25.4878 C   0  0  0  0  0  0  0  0  0  0  0  0
    6.0161   -2.4153   25.9272 N   0  0  0  0  0  0  0  0  0  0  0  0
    3.1364   -5.2880   24.6281 O   0  0  0  0  0  0  0  0  0  0  0  0
    6.6561   -6.4922   29.0102 C   0  0  0  0  0  0  0  0  0  0  0  0
    6.3270   -5.3014   29.8973 C   0  0  0  0  0  0  0  0  0  0  0  0
    3.2611  -13.4698   32.8941 C   0  0  1  0  0  0  0  0  0  0  0  0
    7.4516   -4.3535   30.0557 N   0  0  0  0  0  0  0  0  0  0  0  0
    3.1916  -14.8148   33.3257 O   0  0  0  0  0  0  0  0  0  0  0  0
    2.6874  -10.5211   28.9442 C   0  0  2  0  0  0  0  0  0  0  0  0
    1.5095  -11.2870   29.3391 N   0  0  0  0  0  0  0  0  0  0  0  0
    8.5180   -2.1831   30.6753 C   0  0  0  0  0  0  0  0  0  0  0  0
    9.8251   -2.8254   31.2418 N   0  0  0  0  0  0  0  0  0  0  0  0
    7.2603   -3.0897   30.8223 C   0  0  0  0  0  0  0  0  0  0  0  0
    5.4379   -6.6106   26.1949 O   0  0  0  0  0  0  0  0  0  0  0  0
    2.9117  -12.5140   34.0395 C   0  0  2  0  0  0  0  0  0  0  0  0
    1.6190  -12.7890   34.5543 O   0  0  0  0  0  0  0  0  0  0  0  0
    3.5341  -10.2554   30.1638 C   0  0  2  0  0  0  0  0  0  0  0  0
    2.9947  -11.0409   33.5451 C   0  0  2  0  0  0  0  0  0  0  0  0
    4.3049  -10.7419   33.0204 O   0  0  0  0  0  0  0  0  0  0  0  0
    4.8178   -9.4078   29.7654 C   0  0  2  0  0  0  0  0  0  0  0  0
    5.6140   -9.1757   30.9660 O   0  0  0  0  0  0  0  0  0  0  0  0
    2.6927  -10.0751   34.6281 C   0  0  0  0  0  0  0  0  0  0  0  0
    1.4275   -9.6223   34.4874 N   0  0  0  0  0  0  0  0  0  0  0  0
    4.3522   -8.0442   29.1466 C   0  0  1  0  0  0  0  0  0  0  0  0
    5.4561   -7.2649   28.8123 O   0  0  0  0  0  0  0  0  0  0  0  0
  1  2  1  6  0  0  0
  1  5  1  0  0  0  0
  1 29  1  0  0  0  0
  3  4  1  1  0  0  0
  3  7  1  0  0  0  0
  3 34  1  0  0  0  0
  5  6  1  6  0  0  0
  5 16  1  0  0  0  0
  7 19  1  0  0  0  0
  8  4  1  0  0  0  0
  8 24  2  0  0  0  0
  9  8  1  6  0  0  0
  9 10  1  0  0  0  0
  9 13  1  0  0  0  0
 10 11  1  0  0  0  0
 11 12  1  0  0  0  0
 14 15  1  0  0  0  0
 14 35  1  0  0  0  0
 15 17  1  0  0  0  0
 16 18  1  1  0  0  0
 16 25  1  0  0  0  0
 19 20  1  1  0  0  0
 19 27  1  0  0  0  0
 21 22  1  0  0  0  0
 21 23  1  0  0  0  0
 23 17  1  0  0  0  0
 25 26  1  6  0  0  0
 25 28  1  0  0  0  0
 27  2  1  6  0  0  0
 27 30  1  0  0  0  0
 28 29  1  0  0  0  0
 28 32  1  1  0  0  0
 30 31  1  1  0  0  0
 30 34  1  0  0  0  0
 32 33  2  0  0  0  0
 34 35  1  6  0  0  0
M  END
>  <CHROM.1>
170.37985343,-162.35594091,132.59434336,57.50538031,-175.27765087,-173.91760444
-61.27627887,175.99671788,-61.80211690,-172.13047224,177.76969841,-101.59828658
177.18555959,4.45811679,-8.39774929,29.99981651,-2.01873985,-0.89068978,-0.93069359

>  <Name>
2f4t_lig

>  <RI>
0

>  <Rbt.Current_Directory>
/home/itssahil/PROJECTS/Mol_Feturizer/New_Systems/rnas/2f4t

>  <Rbt.Executable>
rbdock ($Id: //depot/dev/client3/rdock/2013.1/src/exe/rbdock.cxx#4 $)

>  <Rbt.Library>
libRbt.so (2013.1, Build901 2013/11/27)

>  <Rbt.Parameter_File>
/export/apps/rDock/src/rDock_2013.1_src/data/scripts/dock_solv.prm

>  <Rbt.Receptor>
prm/pocket_docking_5.prm

>  <SCORE>
-17.632

>  <SCORE.INTER>
-8.27027

>  <SCORE.INTER.CONST>
1

>  <SCORE.INTER.POLAR>
-2.71536

>  <SCORE.INTER.ROT>
13

>  <SCORE.INTER.SOLV>
12.4885

>  <SCORE.INTER.VDW>
-12.8918

>  <SCORE.INTER.norm>
-0.236293

>  <SCORE.INTRA>
-9.36174

>  <SCORE.INTRA.DIHEDRAL>
-19.546

>  <SCORE.INTRA.DIHEDRAL.0>
23.8882

>  <SCORE.INTRA.POLAR>
0

>  <SCORE.INTRA.POLAR.0>
0

>  <SCORE.INTRA.REPUL>
0

>  <SCORE.INTRA.REPUL.0>
0

>  <SCORE.INTRA.SOLV>
0.651121

>  <SCORE.INTRA.SOLV.lig_0>
-97.6888

>  <SCORE.INTRA.VDW>
0.0856865

>  <SCORE.INTRA.VDW.0>
-3.9206

>  <SCORE.INTRA.norm>
-0.267478

>  <SCORE.RESTR>
0

>  <SCORE.RESTR.CAVITY>
0

>  <SCORE.RESTR.norm>
0

>  <SCORE.SYSTEM>
0

>  <SCORE.SYSTEM.CONST>
0

>  <SCORE.SYSTEM.DIHEDRAL>
0

>  <SCORE.SYSTEM.SOLV>
0

>  <SCORE.SYSTEM.norm>
0

>  <SCORE.heavy>
35

>  <SCORE.norm>
-0.503772

>  <RMSD>
8.491

$$$$
2f4t_lig
 OpenBabel11021811433D
libRbt.so/2013.1/901 2013/11/27
 35 36  0  0  0  0  0  0  0  0999 V2000
    6.3462   -8.1591   31.9033 C   0  0  2  0  0  0  0  0  0  0  0  0
    5.4283   -7.2749   31.1801 O   0  0  0  0  0  0  0  0  0  0  0  0
    3.1196   -7.8535   27.5756 C   0  0  2  0  0  0  0  0  0  0  0  0
    2.7958   -7.9805   26.1467 N   0  0  0  0  0  0  0  0  0  0  0  0
    6.5495   -7.5074   33.3045 C   0  0  2  0  0  0  0  0  0  0  0  0
    5.2809   -7.3207   33.9687 N   0  0  0  0  0  0  0  0  0  0  0  0
    3.9260   -6.5235   27.8088 C   0  0  0  0  0  0  0  0  0  0  0  0
    1.5370   -6.8174   25.7206 C   0  0  0  0  0  0  0  0  0  0  0  0
    1.6497   -7.3718   24.3176 C   0  0  1  0  0  0  0  0  0  0  0  0
    0.2858   -7.9545   23.9407 C   0  0  0  0  0  0  0  0  0  0  0  0
    0.2147   -8.6505   22.5711 C   0  0  0  0  0  0  0  0  0  0  0  0
   -1.1390   -9.1844   22.3931 N   0  0  0  0  0  0  0  0  0  0  0  0
    1.8990   -6.3468   23.3916 O   0  0  0  0  0  0  0  0  0  0  0  0
    2.1906  -11.1629   27.8875 C   0  0  0  0  0  0  0  0  0  0  0  0
    1.7487  -11.3059   29.3358 C   0  0  0  0  0  0  0  0  0  0  0  0
    7.3022   -6.1419   33.1586 C   0  0  1  0  0  0  0  0  0  0  0  0
    1.3299  -10.0292   29.9549 N   0  0  0  0  0  0  0  0  0  0  0  0
    7.5013   -5.5356   34.4207 O   0  0  0  0  0  0  0  0  0  0  0  0
    4.3056   -6.3356   29.2843 C   0  0  2  0  0  0  0  0  0  0  0  0
    5.0872   -5.1168   29.4687 N   0  0  0  0  0  0  0  0  0  0  0  0
   -0.0107   -7.9285   30.1013 C   0  0  0  0  0  0  0  0  0  0  0  0
    0.0173   -7.8648   31.6624 N   0  0  0  0  0  0  0  0  0  0  0  0
    0.0582   -9.3766   29.5325 C   0  0  0  0  0  0  0  0  0  0  0  0
    0.9847   -6.0801   26.2595 O   0  0  0  0  0  0  0  0  0  0  0  0
    8.6436   -6.4102   32.4683 C   0  0  2  0  0  0  0  0  0  0  0  0
    9.3851   -5.2108   32.3155 O   0  0  0  0  0  0  0  0  0  0  0  0
    5.1078   -7.5145   29.7759 C   0  0  2  0  0  0  0  0  0  0  0  0
    8.4032   -7.0774   31.0834 C   0  0  2  0  0  0  0  0  0  0  0  0
    7.6522   -8.3018   31.2196 O   0  0  0  0  0  0  0  0  0  0  0  0
    4.2862   -8.8593   29.5721 C   0  0  2  0  0  0  0  0  0  0  0  0
    5.0887   -9.9746   30.0631 O   0  0  0  0  0  0  0  0  0  0  0  0
    9.6756   -7.3840   30.3876 C   0  0  0  0  0  0  0  0  0  0  0  0
    9.7622   -6.6433   29.2608 N   0  0  0  0  0  0  0  0  0  0  0  0
    3.9784   -9.0382   28.0449 C   0  0  1  0  0  0  0  0  0  0  0  0
    3.2823  -10.2243   27.8294 O   0  0  0  0  0  0  0  0  0  0  0  0
  1  2  1  6  0  0  0
  1  5  1  0  0  0  0
  1 29  1  0  0  0  0
  3  4  1  6  0  0  0
  3  7  1  0  0  0  0
  3 34  1  0  0  0  0
  5  6  1  6  0  0  0
  5 16  1  0  0  0  0
  7 19  1  0  0  0  0
  8  4  1  0  0  0  0
  8 24  2  0  0  0  0
  9  8  1  1  0  0  0
  9 10  1  0  0  0  0
  9 13  1  0  0  0  0
 10 11  1  0  0  0  0
 11 12  1  0  0  0  0
 14 15  1  0  0  0  0
 14 35  1  0  0  0  0
 15 17  1  0  0  0  0
 16 18  1  1  0  0  0
 16 25  1  0  0  0  0
 19 20  1  6  0  0  0
 19 27  1  0  0  0  0
 21 22  1  0  0  0  0
 21 23  1  0  0  0  0
 23 17  1  0  0  0  0
 25 26  1  6  0  0  0
 25 28  1  0  0  0  0
 27  2  1  1  0  0  0
 27 30  1  0  0  0  0
 28 29  1  0  0  0  0
 28 32  1  1  0  0  0
 30 31  1  6  0  0  0
 30 34  1  0  0  0  0
 32 33  2  0  0  0  0
 34 35  1  1  0  0  0
M  END
>  <CHROM.1>
174.34305877,-72.59791111,119.28540383,-176.39065133,178.13421036,58.12816781
-51.83811570,70.62419800,-60.95627231,-168.37374058,-172.19108440,-115.22956218
-52.36752716,4.10811907,-7.78294855,29.07160049,0.69874490,0.43354806,1.81524444

>  <Name>
2f4t_lig

>  <RI>
0

>  <Rbt.Current_Directory>
/home/itssahil/PROJECTS/Mol_Feturizer/New_Systems/rnas/2f4t

>  <Rbt.Executable>
rbdock ($Id: //depot/dev/client3/rdock/2013.1/src/exe/rbdock.cxx#4 $)

>  <Rbt.Library>
libRbt.so (2013.1, Build901 2013/11/27)

>  <Rbt.Parameter_File>
/export/apps/rDock/src/rDock_2013.1_src/data/scripts/dock_solv.prm

>  <Rbt.Receptor>
prm/pocket_docking_6.prm

>  <SCORE>
-20.0687

>  <SCORE.INTER>
-9.76234

>  <SCORE.INTER.CONST>
1

>  <SCORE.INTER.POLAR>
0

>  <SCORE.INTER.ROT>
13

>  <SCORE.INTER.SOLV>
12.1301

>  <SCORE.INTER.VDW>
-22.8183

>  <SCORE.INTER.norm>
-0.278924

>  <SCORE.INTRA>
-10.3063

>  <SCORE.INTRA.DIHEDRAL>
-19.1729

>  <SCORE.INTRA.DIHEDRAL.0>
23.8882

>  <SCORE.INTRA.POLAR>
0

>  <SCORE.INTRA.POLAR.0>
0

>  <SCORE.INTRA.REPUL>
0

>  <SCORE.INTRA.REPUL.0>
0

>  <SCORE.INTRA.SOLV>
1.30638

>  <SCORE.INTRA.SOLV.lig_0>
-97.6888

>  <SCORE.INTRA.VDW>
-1.37303

>  <SCORE.INTRA.VDW.0>
-3.9206

>  <SCORE.INTRA.norm>
-0.294466

>  <SCORE.RESTR>
0

>  <SCORE.RESTR.CAVITY>
0

>  <SCORE.RESTR.norm>
0

>  <SCORE.SYSTEM>
0

>  <SCORE.SYSTEM.CONST>
0

>  <SCORE.SYSTEM.DIHEDRAL>
0

>  <SCORE.SYSTEM.SOLV>
0

>  <SCORE.SYSTEM.norm>
0

>  <SCORE.heavy>
35

>  <SCORE.norm>
-0.57339

>  <RMSD>
8.500

$$$$
2f4t_lig
 OpenBabel11021811433D
libRbt.so/2013.1/901 2013/11/27
 35 36  0  0  0  0  0  0  0  0999 V2000
    2.9974  -11.2616   34.1581 C   0  0  2  0  0  0  0  0  0  0  0  0
    4.2169  -11.3087   33.3470 O   0  0  0  0  0  0  0  0  0  0  0  0
    6.3610   -8.4460   30.9252 C   0  0  2  0  0  0  0  0  0  0  0  0
    6.6576   -7.5041   29.8354 N   0  0  0  0  0  0  0  0  0  0  0  0
    2.9867  -12.5812   34.9876 C   0  0  2  0  0  0  0  0  0  0  0  0
    4.1965  -12.7032   35.7667 N   0  0  0  0  0  0  0  0  0  0  0  0
    5.8722   -9.8100   30.3136 C   0  0  0  0  0  0  0  0  0  0  0  0
    8.3934   -7.1823   29.7887 C   0  0  0  0  0  0  0  0  0  0  0  0
    8.0861   -6.2819   28.6127 C   0  0  1  0  0  0  0  0  0  0  0  0
    9.2869   -5.3538   28.4159 C   0  0  0  0  0  0  0  0  0  0  0  0
    9.0812   -4.2014   27.4184 C   0  0  0  0  0  0  0  0  0  0  0  0
    8.0380   -3.3155   27.9436 N   0  0  0  0  0  0  0  0  0  0  0  0
    7.9762   -7.0250   27.4271 O   0  0  0  0  0  0  0  0  0  0  0  0
    5.6024   -5.4689   33.1585 C   0  0  0  0  0  0  0  0  0  0  0  0
    6.9744   -4.8124   33.1582 C   0  0  0  0  0  0  0  0  0  0  0  0
    2.8163  -13.8133   34.0362 C   0  0  1  0  0  0  0  0  0  0  0  0
    7.1525   -3.8145   34.2358 N   0  0  0  0  0  0  0  0  0  0  0  0
    2.7993  -15.0220   34.7705 O   0  0  0  0  0  0  0  0  0  0  0  0
    5.5345  -10.8374   31.4031 C   0  0  2  0  0  0  0  0  0  0  0  0
    5.0453  -12.0793   30.8127 N   0  0  0  0  0  0  0  0  0  0  0  0
    7.5859   -1.3926   33.8138 C   0  0  0  0  0  0  0  0  0  0  0  0
    8.6373   -1.2052   34.9546 N   0  0  0  0  0  0  0  0  0  0  0  0
    6.5098   -2.4743   34.1257 C   0  0  0  0  0  0  0  0  0  0  0  0
    9.2317   -7.5093   30.3627 O   0  0  0  0  0  0  0  0  0  0  0  0
    1.5097  -13.6342   33.2563 C   0  0  2  0  0  0  0  0  0  0  0  0
    1.2870  -14.7275   32.3804 O   0  0  0  0  0  0  0  0  0  0  0  0
    4.4849  -10.2888   32.3371 C   0  0  2  0  0  0  0  0  0  0  0  0
    1.5479  -12.2999   32.4567 C   0  0  2  0  0  0  0  0  0  0  0  0
    1.7707  -11.1754   33.3326 O   0  0  0  0  0  0  0  0  0  0  0  0
    4.9850   -8.9259   32.9831 C   0  0  2  0  0  0  0  0  0  0  0  0
    3.9493   -8.4290   33.8829 O   0  0  0  0  0  0  0  0  0  0  0  0
    0.2908  -12.0671   31.7068 C   0  0  0  0  0  0  0  0  0  0  0  0
    0.5249  -12.2019   30.3830 N   0  0  0  0  0  0  0  0  0  0  0  0
    5.2550   -7.8910   31.8363 C   0  0  1  0  0  0  0  0  0  0  0  0
    5.6685   -6.6747   32.3725 O   0  0  0  0  0  0  0  0  0  0  0  0
  1  2  1  6  0  0  0
  1  5  1  0  0  0  0
  1 29  1  0  0  0  0
  3  4  1  6  0  0  0
  3  7  1  0  0  0  0
  3 34  1  0  0  0  0
  5  6  1  6  0  0  0
  5 16  1  0  0  0  0
  7 19  1  0  0  0  0
  8  4  1  0  0  0  0
  8 24  2  0  0  0  0
  9  8  1  1  0  0  0
  9 10  1  0  0  0  0
  9 13  1  0  0  0  0
 10 11  1  0  0  0  0
 11 12  1  0  0  0  0
 14 15  1  0  0  0  0
 14 35  1  0  0  0  0
 15 17  1  0  0  0  0
 16 18  1  1  0  0  0
 16 25  1  0  0  0  0
 19 20  1  6  0  0  0
 19 27  1  0  0  0  0
 21 22  1  0  0  0  0
 21 23  1  0  0  0  0
 23 17  1  0  0  0  0
 25 26  1  6  0  0  0
 25 28  1  0  0  0  0
 27  2  1  1  0  0  0
 27 30  1  0  0  0  0
 28 29  1  0  0  0  0
 28 32  1  1  0  0  0
 30 31  1  1  0  0  0
 30 34  1  0  0  0  0
 32 33  2  0  0  0  0
 34 35  1  1  0  0  0
M  END
>  <CHROM.1>
173.63121561,-112.66995757,162.38216528,-170.17666775,64.03215157,-162.53061362
169.98346861,-75.33072626,-64.28289139,-106.77686213,-162.09930761,-109.89622407
-179.21677255,5.23716312,-8.68449169,32.02687813,2.79721285,-0.97141030,-2.23032162

>  <Name>
2f4t_lig

>  <RI>
0

>  <Rbt.Current_Directory>
/home/itssahil/PROJECTS/Mol_Feturizer/New_Systems/rnas/2f4t

>  <Rbt.Executable>
rbdock ($Id: //depot/dev/client3/rdock/2013.1/src/exe/rbdock.cxx#4 $)

>  <Rbt.Library>
libRbt.so (2013.1, Build901 2013/11/27)

>  <Rbt.Parameter_File>
/export/apps/rDock/src/rDock_2013.1_src/data/scripts/dock_solv.prm

>  <Rbt.Receptor>
prm/pocket_docking_5.prm

>  <SCORE>
-10.3664

>  <SCORE.INTER>
-2.81842

>  <SCORE.INTER.CONST>
1

>  <SCORE.INTER.POLAR>
-1.95812

>  <SCORE.INTER.ROT>
13

>  <SCORE.INTER.SOLV>
14.323

>  <SCORE.INTER.VDW>
-12.3929

>  <SCORE.INTER.norm>
-0.0805263

>  <SCORE.INTRA>
-7.54801

>  <SCORE.INTRA.DIHEDRAL>
-15.8267

>  <SCORE.INTRA.DIHEDRAL.0>
23.8882

>  <SCORE.INTRA.POLAR>
0

>  <SCORE.INTRA.POLAR.0>
0

>  <SCORE.INTRA.REPUL>
0

>  <SCORE.INTRA.REPUL.0>
0

>  <SCORE.INTRA.SOLV>
1.19756

>  <SCORE.INTRA.SOLV.lig_0>
-97.6888

>  <SCORE.INTRA.VDW>
-0.233447

>  <SCORE.INTRA.VDW.0>
-3.9206

>  <SCORE.INTRA.norm>
-0.215657

>  <SCORE.RESTR>
0

>  <SCORE.RESTR.CAVITY>
0

>  <SCORE.RESTR.norm>
0

>  <SCORE.SYSTEM>
0

>  <SCORE.SYSTEM.CONST>
0

>  <SCORE.SYSTEM.DIHEDRAL>
0

>  <SCORE.SYSTEM.SOLV>
0

>  <SCORE.SYSTEM.norm>
0

>  <SCORE.heavy>
35

>  <SCORE.norm>
-0.296184

>  <RMSD>
8.503

$$$$
2f4t_lig
 OpenBabel11021811433D
libRbt.so/2013.1/901 2013/11/27
 35 36  0  0  0  0  0  0  0  0999 V2000
    3.1176  -12.9661   31.4304 C   0  0  2  0  0  0  0  0  0  0  0  0
    3.3916  -12.4964   30.0696 O   0  0  0  0  0  0  0  0  0  0  0  0
    3.5543   -8.6610   28.0897 C   0  0  2  0  0  0  0  0  0  0  0  0
    3.1282   -7.3487   27.5809 N   0  0  0  0  0  0  0  0  0  0  0  0
    3.6182  -14.4414   31.4804 C   0  0  2  0  0  0  0  0  0  0  0  0
    5.0118  -14.5194   31.1101 N   0  0  0  0  0  0  0  0  0  0  0  0
    2.5158   -9.7537   27.6412 C   0  0  0  0  0  0  0  0  0  0  0  0
    4.4886   -6.5543   26.7827 C   0  0  0  0  0  0  0  0  0  0  0  0
    3.5270   -5.4189   26.5101 C   0  0  1  0  0  0  0  0  0  0  0  0
    4.3015   -4.1090   26.6726 C   0  0  0  0  0  0  0  0  0  0  0  0
    3.4427   -2.8422   26.8237 C   0  0  0  0  0  0  0  0  0  0  0  0
    2.6889   -2.9409   28.0770 N   0  0  0  0  0  0  0  0  0  0  0  0
    3.0872   -5.4427   25.1774 O   0  0  0  0  0  0  0  0  0  0  0  0
    5.0302   -6.3599   30.3415 C   0  0  0  0  0  0  0  0  0  0  0  0
    6.5190   -6.4609   30.6358 C   0  0  0  0  0  0  0  0  0  0  0  0
    2.7457  -15.3377   30.5382 C   0  0  1  0  0  0  0  0  0  0  0  0
    7.3730   -6.2309   29.4499 N   0  0  0  0  0  0  0  0  0  0  0  0
    3.1811  -16.6830   30.5727 O   0  0  0  0  0  0  0  0  0  0  0  0
    2.8983  -11.1502   28.1510 C   0  0  2  0  0  0  0  0  0  0  0  0
    1.8995  -12.1389   27.7570 N   0  0  0  0  0  0  0  0  0  0  0  0
    9.4673   -6.4527   28.1096 C   0  0  0  0  0  0  0  0  0  0  0  0
    8.7156   -6.2028   26.7625 N   0  0  0  0  0  0  0  0  0  0  0  0
    8.5732   -7.0836   29.2177 C   0  0  0  0  0  0  0  0  0  0  0  0
    5.5086   -6.8136   26.6056 O   0  0  0  0  0  0  0  0  0  0  0  0
    1.2872  -15.2279   30.9947 C   0  0  2  0  0  0  0  0  0  0  0  0
    0.4405  -16.0296   30.1871 O   0  0  0  0  0  0  0  0  0  0  0  0
    3.0216  -11.1464   29.6542 C   0  0  2  0  0  0  0  0  0  0  0  0
    0.8281  -13.7419   30.9505 C   0  0  2  0  0  0  0  0  0  0  0  0
    1.6769  -12.9111   31.7695 O   0  0  0  0  0  0  0  0  0  0  0  0
    4.0926  -10.0660   30.1132 C   0  0  2  0  0  0  0  0  0  0  0  0
    4.1893  -10.0949   31.5689 O   0  0  0  0  0  0  0  0  0  0  0  0
   -0.5710  -13.5802   31.4122 C   0  0  0  0  0  0  0  0  0  0  0  0
   -0.6699  -13.9828   32.6983 N   0  0  0  0  0  0  0  0  0  0  0  0
    3.6257   -8.6509   29.6246 C   0  0  1  0  0  0  0  0  0  0  0  0
    4.5306   -7.6764   30.0362 O   0  0  0  0  0  0  0  0  0  0  0  0
  1  2  1  6  0  0  0
  1  5  1  0  0  0  0
  1 29  1  0  0  0  0
  3  4  1  1  0  0  0
  3  7  1  0  0  0  0
  3 34  1  0  0  0  0
  5  6  1  6  0  0  0
  5 16  1  0  0  0  0
  7 19  1  0  0  0  0
  8  4  1  0  0  0  0
  8 24  2  0  0  0  0
  9  8  1  6  0  0  0
  9 10  1  0  0  0  0
  9 13  1  0  0  0  0
 10 11  1  0  0  0  0
 11 12  1  0  0  0  0
 14 15  1  0  0  0  0
 14 35  1  0  0  0  0
 15 17  1  0  0  0  0
 16 18  1  1  0  0  0
 16 25  1  0  0  0  0
 19 20  1  1  0  0  0
 19 27  1  0  0  0  0
 21 22  1  0  0  0  0
 21 23  1  0  0  0  0
 23 17  1  0  0  0  0
 25 26  1  6  0  0  0
 25 28  1  0  0  0  0
 27  2  1  6  0  0  0
 27 30  1  0  0  0  0
 28 29  1  0  0  0  0
 28 32  1  1  0  0  0
 30 31  1  1  0  0  0
 30 34  1  0  0  0  0
 32 33  2  0  0  0  0
 34 35  1  6  0  0  0
M  END
>  <CHROM.1>
178.71898784,-130.84956367,141.87738082,-163.72326605,64.82856200,92.94035929
-172.04288982,-138.68584090,-55.95949967,-167.34776497,-157.22380968,61.70481281
78.12659918,3.72915665,-9.76366441,29.27596174,-1.92894883,-0.19796795,-0.42972567

>  <Name>
2f4t_lig

>  <RI>
0

>  <Rbt.Current_Directory>
/home/itssahil/PROJECTS/Mol_Feturizer/New_Systems/rnas/2f4t

>  <Rbt.Executable>
rbdock ($Id: //depot/dev/client3/rdock/2013.1/src/exe/rbdock.cxx#4 $)

>  <Rbt.Library>
libRbt.so (2013.1, Build901 2013/11/27)

>  <Rbt.Parameter_File>
/export/apps/rDock/src/rDock_2013.1_src/data/scripts/dock_solv.prm

>  <Rbt.Receptor>
prm/pocket_docking_6.prm

>  <SCORE>
-13.0172

>  <SCORE.INTER>
-8.47683

>  <SCORE.INTER.CONST>
1

>  <SCORE.INTER.POLAR>
-2.77115

>  <SCORE.INTER.ROT>
13

>  <SCORE.INTER.SOLV>
16.4024

>  <SCORE.INTER.VDW>
-14.1482

>  <SCORE.INTER.norm>
-0.242195

>  <SCORE.INTRA>
-4.54034

>  <SCORE.INTRA.DIHEDRAL>
-9.58426

>  <SCORE.INTRA.DIHEDRAL.0>
23.8882

>  <SCORE.INTRA.POLAR>
0

>  <SCORE.INTRA.POLAR.0>
0

>  <SCORE.INTRA.REPUL>
0

>  <SCORE.INTRA.REPUL.0>
0

>  <SCORE.INTRA.SOLV>
3.76188

>  <SCORE.INTRA.SOLV.lig_0>
-97.6888

>  <SCORE.INTRA.VDW>
-1.62915

>  <SCORE.INTRA.VDW.0>
-3.9206

>  <SCORE.INTRA.norm>
-0.129724

>  <SCORE.RESTR>
0

>  <SCORE.RESTR.CAVITY>
0

>  <SCORE.RESTR.norm>
0

>  <SCORE.SYSTEM>
0

>  <SCORE.SYSTEM.CONST>
0

>  <SCORE.SYSTEM.DIHEDRAL>
0

>  <SCORE.SYSTEM.SOLV>
0

>  <SCORE.SYSTEM.norm>
0

>  <SCORE.heavy>
35

>  <SCORE.norm>
-0.371919

>  <RMSD>
8.505

$$$$
2f4t_lig
 OpenBabel11021811433D
libRbt.so/2013.1/901 2013/11/27
 35 36  0  0  0  0  0  0  0  0999 V2000
    5.0479  -10.7628   31.8011 C   0  0  2  0  0  0  0  0  0  0  0  0
    4.6442  -10.1566   30.5296 O   0  0  0  0  0  0  0  0  0  0  0  0
    6.4645   -6.8700   28.3985 C   0  0  2  0  0  0  0  0  0  0  0  0
    6.7778   -5.4932   27.9873 N   0  0  0  0  0  0  0  0  0  0  0  0
    4.3165  -12.1376   31.8685 C   0  0  2  0  0  0  0  0  0  0  0  0
    4.6388  -12.9433   30.7142 N   0  0  0  0  0  0  0  0  0  0  0  0
    4.9053   -7.0753   28.3791 C   0  0  0  0  0  0  0  0  0  0  0  0
    6.4307   -5.2970   26.2669 C   0  0  0  0  0  0  0  0  0  0  0  0
    6.8884   -3.8665   26.4474 C   0  0  1  0  0  0  0  0  0  0  0  0
    6.9114   -3.2113   25.0646 C   0  0  0  0  0  0  0  0  0  0  0  0
    7.7169   -1.9054   24.9600 C   0  0  0  0  0  0  0  0  0  0  0  0
    7.1480   -0.9342   25.8993 N   0  0  0  0  0  0  0  0  0  0  0  0
    5.9604   -3.1345   27.2044 O   0  0  0  0  0  0  0  0  0  0  0  0
    9.6915   -6.9360   30.3989 C   0  0  0  0  0  0  0  0  0  0  0  0
    9.6945   -6.0899   31.6628 C   0  0  0  0  0  0  0  0  0  0  0  0
    2.7694  -11.9193   31.9746 C   0  0  1  0  0  0  0  0  0  0  0  0
    9.3679   -4.6672   31.4226 N   0  0  0  0  0  0  0  0  0  0  0  0
    2.0866  -13.1560   32.0418 O   0  0  0  0  0  0  0  0  0  0  0  0
    4.5095   -8.4944   28.8103 C   0  0  2  0  0  0  0  0  0  0  0  0
    3.0582   -8.6478   28.8235 N   0  0  0  0  0  0  0  0  0  0  0  0
    9.9734   -2.2632   31.1303 C   0  0  0  0  0  0  0  0  0  0  0  0
   11.0182   -1.2133   30.6323 N   0  0  0  0  0  0  0  0  0  0  0  0
   10.4110   -3.7399   30.8997 C   0  0  0  0  0  0  0  0  0  0  0  0
    6.0634   -5.9403   25.4985 O   0  0  0  0  0  0  0  0  0  0  0  0
    2.4930  -11.0786   33.2255 C   0  0  2  0  0  0  0  0  0  0  0  0
    1.1022  -10.8533   33.3889 O   0  0  0  0  0  0  0  0  0  0  0  0
    5.0495   -8.7966   30.1859 C   0  0  2  0  0  0  0  0  0  0  0  0
    3.2530   -9.7241   33.1327 C   0  0  2  0  0  0  0  0  0  0  0  0
    4.6710   -9.9338   32.9692 O   0  0  0  0  0  0  0  0  0  0  0  0
    6.6287   -8.6215   30.2051 C   0  0  2  0  0  0  0  0  0  0  0  0
    7.1152   -8.9271   31.5463 O   0  0  0  0  0  0  0  0  0  0  0  0
    3.0398   -8.8855   34.3362 C   0  0  0  0  0  0  0  0  0  0  0  0
    2.3379   -7.7818   33.9971 N   0  0  0  0  0  0  0  0  0  0  0  0
    6.9788   -7.1420   29.8207 C   0  0  1  0  0  0  0  0  0  0  0  0
    8.3569   -6.9484   29.8559 O   0  0  0  0  0  0  0  0  0  0  0  0
  1  2  1  6  0  0  0
  1  5  1  0  0  0  0
  1 29  1  0  0  0  0
  3  4  1  1  0  0  0
  3  7  1  0  0  0  0
  3 34  1  0  0  0  0
  5  6  1  6  0  0  0
  5 16  1  0  0  0  0
  7 19  1  0  0  0  0
  8  4  1  0  0  0  0
  8 24  2  0  0  0  0
  9  8  1  6  0  0  0
  9 10  1  0  0  0  0
  9 13  1  0  0  0  0
 10 11  1  0  0  0  0
 11 12  1  0  0  0  0
 14 15  1  0  0  0  0
 14 35  1  0  0  0  0
 15 17  1  0  0  0  0
 16 18  1  1  0  0  0
 16 25  1  0  0  0  0
 19 20  1  1  0  0  0
 19 27  1  0  0  0  0
 21 22  1  0  0  0  0
 21 23  1  0  0  0  0
 23 17  1  0  0  0  0
 25 26  1  6  0  0  0
 25 28  1  0  0  0  0
 27  2  1  6  0  0  0
 27 30  1  0  0  0  0
 28 29  1  0  0  0  0
 28 32  1  1  0  0  0
 30 31  1  1  0  0  0
 30 34  1  0  0  0  0
 32 33  2  0  0  0  0
 34 35  1  6  0  0  0
M  END
>  <CHROM.1>
174.44695287,-70.10740650,174.19882147,-163.19381124,-59.22141317,-63.67147196
-56.31092990,-79.52901590,179.10276162,-163.22650011,178.38633101,-113.43414428
-174.78562027,5.92526133,-7.31023478,30.04871010,-2.26485556,-0.70607411
-1.02338898

>  <Name>
2f4t_lig

>  <RI>
0

>  <Rbt.Current_Directory>
/home/itssahil/PROJECTS/Mol_Feturizer/New_Systems/rnas/2f4t

>  <Rbt.Executable>
rbdock ($Id: //depot/dev/client3/rdock/2013.1/src/exe/rbdock.cxx#4 $)

>  <Rbt.Library>
libRbt.so (2013.1, Build901 2013/11/27)

>  <Rbt.Parameter_File>
/export/apps/rDock/src/rDock_2013.1_src/data/scripts/dock_solv.prm

>  <Rbt.Receptor>
prm/pocket_docking_6.prm

>  <SCORE>
-14.2765

>  <SCORE.INTER>
-5.14523

>  <SCORE.INTER.CONST>
1

>  <SCORE.INTER.POLAR>
-1.80263

>  <SCORE.INTER.ROT>
13

>  <SCORE.INTER.SOLV>
9.95973

>  <SCORE.INTER.VDW>
-13.008

>  <SCORE.INTER.norm>
-0.147007

>  <SCORE.INTRA>
-9.15923

>  <SCORE.INTRA.DIHEDRAL>
-20.3058

>  <SCORE.INTRA.DIHEDRAL.0>
23.8882

>  <SCORE.INTRA.POLAR>
0

>  <SCORE.INTRA.POLAR.0>
0

>  <SCORE.INTRA.REPUL>
0

>  <SCORE.INTRA.REPUL.0>
0

>  <SCORE.INTRA.SOLV>
0.810148

>  <SCORE.INTRA.SOLV.lig_0>
-97.6888

>  <SCORE.INTRA.VDW>
0.588587

>  <SCORE.INTRA.VDW.0>
-3.9206

>  <SCORE.INTRA.norm>
-0.261692

>  <SCORE.RESTR>
0.0279226

>  <SCORE.RESTR.CAVITY>
0.0279226

>  <SCORE.RESTR.norm>
0.000797789

>  <SCORE.SYSTEM>
0

>  <SCORE.SYSTEM.CONST>
0

>  <SCORE.SYSTEM.DIHEDRAL>
0

>  <SCORE.SYSTEM.SOLV>
0

>  <SCORE.SYSTEM.norm>
0

>  <SCORE.heavy>
35

>  <SCORE.norm>
-0.407901

>  <RMSD>
8.512

$$$$
2f4t_lig
 OpenBabel11021811433D
libRbt.so/2013.1/901 2013/11/27
 35 36  0  0  0  0  0  0  0  0999 V2000
    3.8597  -12.5308   29.7179 C   0  0  2  0  0  0  0  0  0  0  0  0
    3.3512  -11.3188   30.3658 O   0  0  0  0  0  0  0  0  0  0  0  0
    4.9222   -7.5229   31.7002 C   0  0  2  0  0  0  0  0  0  0  0  0
    5.8031   -6.3496   31.8004 N   0  0  0  0  0  0  0  0  0  0  0  0
    2.6038  -13.3844   29.3663 C   0  0  2  0  0  0  0  0  0  0  0  0
    1.6878  -12.6287   28.5445 N   0  0  0  0  0  0  0  0  0  0  0  0
    5.7879   -8.8320   31.8030 C   0  0  0  0  0  0  0  0  0  0  0  0
    6.4515   -6.2357   33.4391 C   0  0  0  0  0  0  0  0  0  0  0  0
    7.1826   -5.0054   32.9493 C   0  0  1  0  0  0  0  0  0  0  0  0
    7.1254   -3.9596   34.0650 C   0  0  0  0  0  0  0  0  0  0  0  0
    7.6713   -2.5684   33.7021 C   0  0  0  0  0  0  0  0  0  0  0  0
    7.6115   -1.7217   34.8973 N   0  0  0  0  0  0  0  0  0  0  0  0
    8.5447   -5.2783   32.7476 O   0  0  0  0  0  0  0  0  0  0  0  0
    2.5400   -5.3981   29.6426 C   0  0  0  0  0  0  0  0  0  0  0  0
    3.2300   -4.8076   28.4225 C   0  0  0  0  0  0  0  0  0  0  0  0
    1.8981  -13.8684   30.6778 C   0  0  1  0  0  0  0  0  0  0  0  0
    3.6621   -5.8238   27.4381 N   0  0  0  0  0  0  0  0  0  0  0  0
    0.7572  -14.6497   30.3805 O   0  0  0  0  0  0  0  0  0  0  0  0
    4.9264  -10.0979   31.6944 C   0  0  2  0  0  0  0  0  0  0  0  0
    5.7558  -11.2975   31.7515 N   0  0  0  0  0  0  0  0  0  0  0  0
    5.7223   -4.8731   26.3974 C   0  0  0  0  0  0  0  0  0  0  0  0
    6.6853   -5.9432   27.0052 N   0  0  0  0  0  0  0  0  0  0  0  0
    4.2780   -5.3997   26.1488 C   0  0  0  0  0  0  0  0  0  0  0  0
    6.3385   -6.8108   34.3312 O   0  0  0  0  0  0  0  0  0  0  0  0
    2.9124  -14.6779   31.4922 C   0  0  2  0  0  0  0  0  0  0  0  0
    2.3314  -15.1593   32.6933 O   0  0  0  0  0  0  0  0  0  0  0  0
    4.1498  -10.0969   30.4014 C   0  0  2  0  0  0  0  0  0  0  0  0
    4.1591  -13.8020   31.8079 C   0  0  2  0  0  0  0  0  0  0  0  0
    4.7658  -13.3056   30.5966 O   0  0  0  0  0  0  0  0  0  0  0  0
    3.2486   -8.7917   30.3047 C   0  0  2  0  0  0  0  0  0  0  0  0
    2.5092   -8.8280   29.0473 O   0  0  0  0  0  0  0  0  0  0  0  0
    5.1845  -14.5521   32.5714 C   0  0  0  0  0  0  0  0  0  0  0  0
    6.0138  -13.6810   33.1871 N   0  0  0  0  0  0  0  0  0  0  0  0
    4.1780   -7.5297   30.3559 C   0  0  1  0  0  0  0  0  0  0  0  0
    3.4193   -6.3678   30.2448 O   0  0  0  0  0  0  0  0  0  0  0  0
  1  2  1  1  0  0  0
  1  5  1  0  0  0  0
  1 29  1  0  0  0  0
  3  4  1  6  0  0  0
  3  7  1  0  0  0  0
  3 34  1  0  0  0  0
  5  6  1  1  0  0  0
  5 16  1  0  0  0  0
  7 19  1  0  0  0  0
  8  4  1  0  0  0  0
  8 24  2  0  0  0  0
  9  8  1  1  0  0  0
  9 10  1  0  0  0  0
  9 13  1  0  0  0  0
 10 11  1  0  0  0  0
 11 12  1  0  0  0  0
 14 15  1  0  0  0  0
 14 35  1  0  0  0  0
 15 17  1  0  0  0  0
 16 18  1  6  0  0  0
 16 25  1  0  0  0  0
 19 20  1  6  0  0  0
 19 27  1  0  0  0  0
 21 22  1  0  0  0  0
 21 23  1  0  0  0  0
 23 17  1  0  0  0  0
 25 26  1  1  0  0  0
 25 28  1  0  0  0  0
 27  2  1  1  0  0  0
 27 30  1  0  0  0  0
 28 29  1  0  0  0  0
 28 32  1  6  0  0  0
 30 31  1  6  0  0  0
 30 34  1  0  0  0  0
 32 33  2  0  0  0  0
 34 35  1  1  0  0  0
M  END
>  <CHROM.1>
-157.77053805,-68.95499254,139.96210613,-173.05867837,-176.81661952,55.63346606
-63.87164663,176.21305894,61.24718969,72.95031440,-93.14345482,-160.16093825
176.89765817,4.59292050,-8.94746843,30.90338115,2.22863782,1.00499325,2.63329897

>  <Name>
2f4t_lig

>  <RI>
0

>  <Rbt.Current_Directory>
/home/itssahil/PROJECTS/Mol_Feturizer/New_Systems/rnas/2f4t

>  <Rbt.Executable>
rbdock ($Id: //depot/dev/client3/rdock/2013.1/src/exe/rbdock.cxx#4 $)

>  <Rbt.Library>
libRbt.so (2013.1, Build901 2013/11/27)

>  <Rbt.Parameter_File>
/export/apps/rDock/src/rDock_2013.1_src/data/scripts/dock_solv.prm

>  <Rbt.Receptor>
prm/pocket_docking_4.prm

>  <SCORE>
-10.3942

>  <SCORE.INTER>
-6.42514

>  <SCORE.INTER.CONST>
1

>  <SCORE.INTER.POLAR>
-2.31332

>  <SCORE.INTER.ROT>
13

>  <SCORE.INTER.SOLV>
15.1796

>  <SCORE.INTER.VDW>
-13.8989

>  <SCORE.INTER.norm>
-0.183576

>  <SCORE.INTRA>
-4.00035

>  <SCORE.INTRA.DIHEDRAL>
-13.2122

>  <SCORE.INTRA.DIHEDRAL.0>
23.8882

>  <SCORE.INTRA.POLAR>
0

>  <SCORE.INTRA.POLAR.0>
0

>  <SCORE.INTRA.REPUL>
0

>  <SCORE.INTRA.REPUL.0>
0

>  <SCORE.INTRA.SOLV>
5.28661

>  <SCORE.INTRA.SOLV.lig_0>
-97.6888

>  <SCORE.INTRA.VDW>
-0.0375651

>  <SCORE.INTRA.VDW.0>
-3.9206

>  <SCORE.INTRA.norm>
-0.114296

>  <SCORE.RESTR>
0.0313213

>  <SCORE.RESTR.CAVITY>
0.0313213

>  <SCORE.RESTR.norm>
0.000894894

>  <SCORE.SYSTEM>
0

>  <SCORE.SYSTEM.CONST>
0

>  <SCORE.SYSTEM.DIHEDRAL>
0

>  <SCORE.SYSTEM.SOLV>
0

>  <SCORE.SYSTEM.norm>
0

>  <SCORE.heavy>
35

>  <SCORE.norm>
-0.296976

>  <RMSD>
8.520

$$$$
2f4t_lig
 OpenBabel11021811433D
libRbt.so/2013.1/901 2013/11/27
 35 36  0  0  0  0  0  0  0  0999 V2000
    4.0372  -11.0997   31.4463 C   0  0  2  0  0  0  0  0  0  0  0  0
    3.1005  -11.0262   30.3218 O   0  0  0  0  0  0  0  0  0  0  0  0
    1.8931   -7.9461   27.5446 C   0  0  2  0  0  0  0  0  0  0  0  0
    1.3237   -6.6893   27.0359 N   0  0  0  0  0  0  0  0  0  0  0  0
    4.2844  -12.6184   31.6957 C   0  0  2  0  0  0  0  0  0  0  0  0
    4.7680  -13.2598   30.4956 N   0  0  0  0  0  0  0  0  0  0  0  0
    0.8342   -8.6623   28.4608 C   0  0  0  0  0  0  0  0  0  0  0  0
    1.9972   -6.3381   25.4416 C   0  0  0  0  0  0  0  0  0  0  0  0
    1.1245   -5.1028   25.4634 C   0  0  1  0  0  0  0  0  0  0  0  0
    1.9010   -4.0018   26.1893 C   0  0  0  0  0  0  0  0  0  0  0  0
    1.0826   -2.7625   26.5885 C   0  0  0  0  0  0  0  0  0  0  0  0
    1.9456   -1.8692   27.3671 N   0  0  0  0  0  0  0  0  0  0  0  0
    0.9018   -4.6229   24.1633 O   0  0  0  0  0  0  0  0  0  0  0  0
    4.7200   -5.9444   26.8563 C   0  0  0  0  0  0  0  0  0  0  0  0
    5.3187   -4.9693   27.8583 C   0  0  0  0  0  0  0  0  0  0  0  0
    2.9674  -13.3028   32.1950 C   0  0  1  0  0  0  0  0  0  0  0  0
    6.3056   -5.5893   28.7694 N   0  0  0  0  0  0  0  0  0  0  0  0
    3.1716  -14.6821   32.4321 O   0  0  0  0  0  0  0  0  0  0  0  0
    1.3722   -9.9805   29.0347 C   0  0  2  0  0  0  0  0  0  0  0  0
    0.3879  -10.6052   29.9128 N   0  0  0  0  0  0  0  0  0  0  0  0
    7.2145   -6.3554   30.9645 C   0  0  0  0  0  0  0  0  0  0  0  0
    7.0550   -6.4019   32.5183 N   0  0  0  0  0  0  0  0  0  0  0  0
    6.0481   -5.6236   30.2370 C   0  0  0  0  0  0  0  0  0  0  0  0
    2.7020   -6.8222   24.8028 O   0  0  0  0  0  0  0  0  0  0  0  0
    2.5193  -12.5928   33.4767 C   0  0  2  0  0  0  0  0  0  0  0  0
    1.3325  -13.1745   33.9913 O   0  0  0  0  0  0  0  0  0  0  0  0
    2.6418   -9.7371   29.8119 C   0  0  2  0  0  0  0  0  0  0  0  0
    2.3011  -11.0781   33.1953 C   0  0  2  0  0  0  0  0  0  0  0  0
    3.5001  -10.4684   32.6736 O   0  0  0  0  0  0  0  0  0  0  0  0
    3.7277   -9.0418   28.8834 C   0  0  2  0  0  0  0  0  0  0  0  0
    4.9411   -8.8279   29.6652 O   0  0  0  0  0  0  0  0  0  0  0  0
    1.8939  -10.3409   34.4150 C   0  0  0  0  0  0  0  0  0  0  0  0
    2.4972  -10.8873   35.4936 N   0  0  0  0  0  0  0  0  0  0  0  0
    3.1570   -7.6726   28.3747 C   0  0  1  0  0  0  0  0  0  0  0  0
    4.0977   -7.0241   27.5795 O   0  0  0  0  0  0  0  0  0  0  0  0
  1  2  1  6  0  0  0
  1  5  1  0  0  0  0
  1 29  1  0  0  0  0
  3  4  1  1  0  0  0
  3  7  1  0  0  0  0
  3 34  1  0  0  0  0
  5  6  1  6  0  0  0
  5 16  1  0  0  0  0
  7 19  1  0  0  0  0
  8  4  1  0  0  0  0
  8 24  2  0  0  0  0
  9  8  1  6  0  0  0
  9 10  1  0  0  0  0
  9 13  1  0  0  0  0
 10 11  1  0  0  0  0
 11 12  1  0  0  0  0
 14 15  1  0  0  0  0
 14 35  1  0  0  0  0
 15 17  1  0  0  0  0
 16 18  1  1  0  0  0
 16 25  1  0  0  0  0
 19 20  1  1  0  0  0
 19 27  1  0  0  0  0
 21 22  1  0  0  0  0
 21 23  1  0  0  0  0
 23 17  1  0  0  0  0
 25 26  1  6  0  0  0
 25 28  1  0  0  0  0
 27  2  1  6  0  0  0
 27 30  1  0  0  0  0
 28 29  1  0  0  0  0
 28 32  1  1  0  0  0
 30 31  1  1  0  0  0
 30 34  1  0  0  0  0
 32 33  2  0  0  0  0
 34 35  1  6  0  0  0
M  END
>  <CHROM.1>
179.96238025,-149.03892909,85.75801552,-167.25839413,175.21470415,57.79766360
72.18281215,-117.45121608,178.17134045,178.64809287,-160.31471731,33.98987820
75.40179046,3.12713062,-8.49499556,29.57263955,-1.52482671,-0.62372577,-0.68686282

>  <Name>
2f4t_lig

>  <RI>
0

>  <Rbt.Current_Directory>
/home/itssahil/PROJECTS/Mol_Feturizer/New_Systems/rnas/2f4t

>  <Rbt.Executable>
rbdock ($Id: //depot/dev/client3/rdock/2013.1/src/exe/rbdock.cxx#4 $)

>  <Rbt.Library>
libRbt.so (2013.1, Build901 2013/11/27)

>  <Rbt.Parameter_File>
/export/apps/rDock/src/rDock_2013.1_src/data/scripts/dock_solv.prm

>  <Rbt.Receptor>
prm/pocket_docking_4.prm

>  <SCORE>
-13.5483

>  <SCORE.INTER>
-5.90551

>  <SCORE.INTER.CONST>
1

>  <SCORE.INTER.POLAR>
-1.72011

>  <SCORE.INTER.ROT>
13

>  <SCORE.INTER.SOLV>
14.5205

>  <SCORE.INTER.VDW>
-15.3101

>  <SCORE.INTER.norm>
-0.168729

>  <SCORE.INTRA>
-7.65341

>  <SCORE.INTRA.DIHEDRAL>
-15.0007

>  <SCORE.INTRA.DIHEDRAL.0>
23.8882

>  <SCORE.INTRA.POLAR>
0

>  <SCORE.INTRA.POLAR.0>
0

>  <SCORE.INTRA.REPUL>
0

>  <SCORE.INTRA.REPUL.0>
0

>  <SCORE.INTRA.SOLV>
1.05143

>  <SCORE.INTRA.SOLV.lig_0>
-97.6888

>  <SCORE.INTRA.VDW>
-0.678795

>  <SCORE.INTRA.VDW.0>
-3.9206

>  <SCORE.INTRA.norm>
-0.218669

>  <SCORE.RESTR>
0.0106575

>  <SCORE.RESTR.CAVITY>
0.0106575

>  <SCORE.RESTR.norm>
0.000304501

>  <SCORE.SYSTEM>
0

>  <SCORE.SYSTEM.CONST>
0

>  <SCORE.SYSTEM.DIHEDRAL>
0

>  <SCORE.SYSTEM.SOLV>
0

>  <SCORE.SYSTEM.norm>
0

>  <SCORE.heavy>
35

>  <SCORE.norm>
-0.387093

>  <RMSD>
8.524

$$$$
2f4t_lig
 OpenBabel11021811433D
libRbt.so/2013.1/901 2013/11/27
 35 36  0  0  0  0  0  0  0  0999 V2000
    3.6658  -12.7673   29.4828 C   0  0  2  0  0  0  0  0  0  0  0  0
    3.3153  -11.5390   30.2010 O   0  0  0  0  0  0  0  0  0  0  0  0
    5.4063   -8.2158   32.0012 C   0  0  2  0  0  0  0  0  0  0  0  0
    6.4616   -7.2264   32.2661 N   0  0  0  0  0  0  0  0  0  0  0  0
    2.3144  -13.3867   29.0142 C   0  0  2  0  0  0  0  0  0  0  0  0
    1.5699  -12.4411   28.2160 N   0  0  0  0  0  0  0  0  0  0  0  0
    6.0339   -9.6578   32.0057 C   0  0  0  0  0  0  0  0  0  0  0  0
    5.7728   -5.8419   33.1192 C   0  0  0  0  0  0  0  0  0  0  0  0
    7.1744   -5.2730   33.1062 C   0  0  1  0  0  0  0  0  0  0  0  0
    7.2498   -4.2576   31.9637 C   0  0  0  0  0  0  0  0  0  0  0  0
    8.6521   -3.7078   31.6532 C   0  0  0  0  0  0  0  0  0  0  0  0
    9.4925   -4.8172   31.1926 N   0  0  0  0  0  0  0  0  0  0  0  0
    7.4332   -4.5497   34.2810 O   0  0  0  0  0  0  0  0  0  0  0  0
    3.4983   -5.5460   30.0892 C   0  0  0  0  0  0  0  0  0  0  0  0
    2.0652   -5.9628   29.7964 C   0  0  0  0  0  0  0  0  0  0  0  0
    1.4741  -13.8449   30.2537 C   0  0  1  0  0  0  0  0  0  0  0  0
    1.3042   -4.9589   29.0208 N   0  0  0  0  0  0  0  0  0  0  0  0
    0.2445  -14.4149   29.8496 O   0  0  0  0  0  0  0  0  0  0  0  0
    4.9828  -10.7404   31.7236 C   0  0  2  0  0  0  0  0  0  0  0  0
    5.5959  -12.0646   31.6927 N   0  0  0  0  0  0  0  0  0  0  0  0
    0.2787   -4.0006   26.9565 C   0  0  0  0  0  0  0  0  0  0  0  0
    0.1460   -4.0595   25.4006 N   0  0  0  0  0  0  0  0  0  0  0  0
    1.3468   -4.9775   27.5311 C   0  0  0  0  0  0  0  0  0  0  0  0
    4.7956   -5.5835   33.4617 O   0  0  0  0  0  0  0  0  0  0  0  0
    2.3078  -14.8585   31.0445 C   0  0  2  0  0  0  0  0  0  0  0  0
    1.5969  -15.3257   32.1794 O   0  0  0  0  0  0  0  0  0  0  0  0
    4.3019  -10.4817   30.4029 C   0  0  2  0  0  0  0  0  0  0  0  0
    3.6554  -14.2131   31.4786 C   0  0  2  0  0  0  0  0  0  0  0  0
    4.3944  -13.7342   30.3358 O   0  0  0  0  0  0  0  0  0  0  0  0
    3.6382   -9.0379   30.4023 C   0  0  2  0  0  0  0  0  0  0  0  0
    2.9855   -8.8256   29.1147 O   0  0  0  0  0  0  0  0  0  0  0  0
    4.5117  -15.1662   32.2237 C   0  0  0  0  0  0  0  0  0  0  0  0
    5.8048  -14.9696   31.8845 N   0  0  0  0  0  0  0  0  0  0  0  0
    4.7592   -7.9652   30.6302 C   0  0  1  0  0  0  0  0  0  0  0  0
    4.2129   -6.6851   30.6069 O   0  0  0  0  0  0  0  0  0  0  0  0
  1  2  1  1  0  0  0
  1  5  1  0  0  0  0
  1 29  1  0  0  0  0
  3  4  1  6  0  0  0
  3  7  1  0  0  0  0
  3 34  1  0  0  0  0
  5  6  1  1  0  0  0
  5 16  1  0  0  0  0
  7 19  1  0  0  0  0
  8  4  1  0  0  0  0
  8 24  2  0  0  0  0
  9  8  1  1  0  0  0
  9 10  1  0  0  0  0
  9 13  1  0  0  0  0
 10 11  1  0  0  0  0
 11 12  1  0  0  0  0
 14 15  1  0  0  0  0
 14 35  1  0  0  0  0
 15 17  1  0  0  0  0
 16 18  1  6  0  0  0
 16 25  1  0  0  0  0
 19 20  1  6  0  0  0
 19 27  1  0  0  0  0
 21 22  1  0  0  0  0
 21 23  1  0  0  0  0
 23 17  1  0  0  0  0
 25 26  1  1  0  0  0
 25 28  1  0  0  0  0
 27  2  1  1  0  0  0
 27 30  1  0  0  0  0
 28 29  1  0  0  0  0
 28 32  1  6  0  0  0
 30 31  1  6  0  0  0
 30 34  1  0  0  0  0
 32 33  2  0  0  0  0
 34 35  1  1  0  0  0
M  END
>  <CHROM.1>
-159.82503330,-149.01569208,99.78068411,-171.69536236,63.92806948,-168.85455955
60.23447532,87.74598213,-174.05207197,169.90637181,-91.57188553,142.58715389
-177.04899302,4.04971683,-9.16418489,30.70351638,1.89164185,0.65444158,2.97003438

>  <Name>
2f4t_lig

>  <RI>
0

>  <Rbt.Current_Directory>
/home/itssahil/PROJECTS/Mol_Feturizer/New_Systems/rnas/2f4t

>  <Rbt.Executable>
rbdock ($Id: //depot/dev/client3/rdock/2013.1/src/exe/rbdock.cxx#4 $)

>  <Rbt.Library>
libRbt.so (2013.1, Build901 2013/11/27)

>  <Rbt.Parameter_File>
/export/apps/rDock/src/rDock_2013.1_src/data/scripts/dock_solv.prm

>  <Rbt.Receptor>
prm/pocket_docking_5.prm

>  <SCORE>
-6.00072

>  <SCORE.INTER>
-2.37589

>  <SCORE.INTER.CONST>
1

>  <SCORE.INTER.POLAR>
-1.40132

>  <SCORE.INTER.ROT>
13

>  <SCORE.INTER.SOLV>
17.6767

>  <SCORE.INTER.VDW>
-15.0717

>  <SCORE.INTER.norm>
-0.0678827

>  <SCORE.INTRA>
-3.62483

>  <SCORE.INTRA.DIHEDRAL>
-12.8886

>  <SCORE.INTRA.DIHEDRAL.0>
23.8882

>  <SCORE.INTRA.POLAR>
0

>  <SCORE.INTRA.POLAR.0>
0

>  <SCORE.INTRA.REPUL>
0

>  <SCORE.INTRA.REPUL.0>
0

>  <SCORE.INTRA.SOLV>
4.72268

>  <SCORE.INTRA.SOLV.lig_0>
-97.6888

>  <SCORE.INTRA.VDW>
0.458142

>  <SCORE.INTRA.VDW.0>
-3.9206

>  <SCORE.INTRA.norm>
-0.103567

>  <SCORE.RESTR>
0

>  <SCORE.RESTR.CAVITY>
0

>  <SCORE.RESTR.norm>
0

>  <SCORE.SYSTEM>
0

>  <SCORE.SYSTEM.CONST>
0

>  <SCORE.SYSTEM.DIHEDRAL>
0

>  <SCORE.SYSTEM.SOLV>
0

>  <SCORE.SYSTEM.norm>
0

>  <SCORE.heavy>
35

>  <SCORE.norm>
-0.171449

>  <RMSD>
8.535

$$$$
2f4t_lig
 OpenBabel11021811433D
libRbt.so/2013.1/901 2013/11/27
 35 36  0  0  0  0  0  0  0  0999 V2000
    2.5031  -13.2087   32.0248 C   0  0  2  0  0  0  0  0  0  0  0  0
    3.4617  -12.2284   31.5076 O   0  0  0  0  0  0  0  0  0  0  0  0
    3.5481   -9.6826   28.0193 C   0  0  2  0  0  0  0  0  0  0  0  0
    3.0900   -8.7618   26.9681 N   0  0  0  0  0  0  0  0  0  0  0  0
    1.4683  -12.3936   32.8579 C   0  0  2  0  0  0  0  0  0  0  0  0
    0.8626  -11.3617   32.0495 N   0  0  0  0  0  0  0  0  0  0  0  0
    2.5729  -10.9144   28.0914 C   0  0  0  0  0  0  0  0  0  0  0  0
    1.4124   -8.3030   27.2746 C   0  0  0  0  0  0  0  0  0  0  0  0
    1.5271   -7.4594   26.0242 C   0  0  1  0  0  0  0  0  0  0  0  0
    0.4299   -7.9134   25.0589 C   0  0  0  0  0  0  0  0  0  0  0  0
    0.5643   -7.4075   23.6128 C   0  0  0  0  0  0  0  0  0  0  0  0
    0.4252   -5.9481   23.6183 N   0  0  0  0  0  0  0  0  0  0  0  0
    1.2597   -6.1100   26.3031 O   0  0  0  0  0  0  0  0  0  0  0  0
    5.6362   -7.1461   29.1736 C   0  0  0  0  0  0  0  0  0  0  0  0
    6.6286   -7.6267   30.2212 C   0  0  0  0  0  0  0  0  0  0  0  0
    2.1613  -11.7725   34.1174 C   0  0  1  0  0  0  0  0  0  0  0  0
    6.1850   -7.3836   31.6114 N   0  0  0  0  0  0  0  0  0  0  0  0
    1.2373  -11.0317   34.8906 O   0  0  0  0  0  0  0  0  0  0  0  0
    2.9907  -11.9121   29.1806 C   0  0  2  0  0  0  0  0  0  0  0  0
    2.0487  -13.0245   29.2554 N   0  0  0  0  0  0  0  0  0  0  0  0
    8.0137   -6.6826   33.1593 C   0  0  0  0  0  0  0  0  0  0  0  0
    7.2958   -5.3748   33.6241 N   0  0  0  0  0  0  0  0  0  0  0  0
    7.0348   -7.8240   32.7539 C   0  0  0  0  0  0  0  0  0  0  0  0
    0.6940   -8.5473   28.0252 O   0  0  0  0  0  0  0  0  0  0  0  0
    2.7636  -12.9158   34.9406 C   0  0  2  0  0  0  0  0  0  0  0  0
    3.3991  -12.4212   36.1082 O   0  0  0  0  0  0  0  0  0  0  0  0
    3.0544  -11.2292   30.5239 C   0  0  2  0  0  0  0  0  0  0  0  0
    3.7756  -13.7182   34.0729 C   0  0  2  0  0  0  0  0  0  0  0  0
    3.1454  -14.2322   32.8812 O   0  0  0  0  0  0  0  0  0  0  0  0
    4.0622  -10.0020   30.4672 C   0  0  2  0  0  0  0  0  0  0  0  0
    4.1025   -9.3709   31.7822 O   0  0  0  0  0  0  0  0  0  0  0  0
    4.3649  -14.8558   34.8184 C   0  0  0  0  0  0  0  0  0  0  0  0
    5.3860  -14.4117   35.5837 N   0  0  0  0  0  0  0  0  0  0  0  0
    3.5585   -8.9826   29.3872 C   0  0  1  0  0  0  0  0  0  0  0  0
    4.4065   -7.8800   29.3328 O   0  0  0  0  0  0  0  0  0  0  0  0
  1  2  1  1  0  0  0
  1  5  1  0  0  0  0
  1 29  1  0  0  0  0
  3  4  1  6  0  0  0
  3  7  1  0  0  0  0
  3 34  1  0  0  0  0
  5  6  1  6  0  0  0
  5 16  1  0  0  0  0
  7 19  1  0  0  0  0
  8  4  1  0  0  0  0
  8 24  2  0  0  0  0
  9  8  1  1  0  0  0
  9 10  1  0  0  0  0
  9 13  1  0  0  0  0
 10 11  1  0  0  0  0
 11 12  1  0  0  0  0
 14 15  1  0  0  0  0
 14 35  1  0  0  0  0
 15 17  1  0  0  0  0
 16 18  1  1  0  0  0
 16 25  1  0  0  0  0
 19 20  1  1  0  0  0
 19 27  1  0  0  0  0
 21 22  1  0  0  0  0
 21 23  1  0  0  0  0
 23 17  1  0  0  0  0
 25 26  1  1  0  0  0
 25 28  1  0  0  0  0
 27  2  1  1  0  0  0
 27 30  1  0  0  0  0
 28 29  1  0  0  0  0
 28 32  1  1  0  0  0
 30 31  1  1  0  0  0
 30 34  1  0  0  0  0
 32 33  2  0  0  0  0
 34 35  1  6  0  0  0
M  END
>  <CHROM.1>
-66.96815969,55.49512714,122.84988555,-166.79491912,-64.65137677,-62.29310747
-60.10911722,178.70745884,60.90558548,90.39493741,-77.92325837,-82.22304742
-61.73725932,3.28440668,-9.97837117,30.57113075,1.29668082,0.74942342,2.31975071

>  <Name>
2f4t_lig

>  <RI>
0

>  <Rbt.Current_Directory>
/home/itssahil/PROJECTS/Mol_Feturizer/New_Systems/rnas/2f4t

>  <Rbt.Executable>
rbdock ($Id: //depot/dev/client3/rdock/2013.1/src/exe/rbdock.cxx#4 $)

>  <Rbt.Library>
libRbt.so (2013.1, Build901 2013/11/27)

>  <Rbt.Parameter_File>
/export/apps/rDock/src/rDock_2013.1_src/data/scripts/dock_solv.prm

>  <Rbt.Receptor>
prm/pocket_docking_4.prm

>  <SCORE>
-8.47077

>  <SCORE.INTER>
-4.64505

>  <SCORE.INTER.CONST>
1

>  <SCORE.INTER.POLAR>
-0.346789

>  <SCORE.INTER.ROT>
13

>  <SCORE.INTER.SOLV>
11.7508

>  <SCORE.INTER.VDW>
-18.1243

>  <SCORE.INTER.norm>
-0.132716

>  <SCORE.INTRA>
-3.82572

>  <SCORE.INTRA.DIHEDRAL>
-16.9067

>  <SCORE.INTRA.DIHEDRAL.0>
23.8882

>  <SCORE.INTRA.POLAR>
0

>  <SCORE.INTRA.POLAR.0>
0

>  <SCORE.INTRA.REPUL>
0

>  <SCORE.INTRA.REPUL.0>
0

>  <SCORE.INTRA.SOLV>
8.44757

>  <SCORE.INTRA.SOLV.lig_0>
-97.6888

>  <SCORE.INTRA.VDW>
0.403833

>  <SCORE.INTRA.VDW.0>
-3.9206

>  <SCORE.INTRA.norm>
-0.109306

>  <SCORE.RESTR>
0

>  <SCORE.RESTR.CAVITY>
0

>  <SCORE.RESTR.norm>
0

>  <SCORE.SYSTEM>
0

>  <SCORE.SYSTEM.CONST>
0

>  <SCORE.SYSTEM.DIHEDRAL>
0

>  <SCORE.SYSTEM.SOLV>
0

>  <SCORE.SYSTEM.norm>
0

>  <SCORE.heavy>
35

>  <SCORE.norm>
-0.242022

>  <RMSD>
8.548

$$$$
2f4t_lig
 OpenBabel11021811433D
libRbt.so/2013.1/901 2013/11/27
 35 36  0  0  0  0  0  0  0  0999 V2000
    5.0996   -4.7387   31.0850 C   0  0  2  0  0  0  0  0  0  0  0  0
    5.9881   -4.7125   29.9200 O   0  0  0  0  0  0  0  0  0  0  0  0
    3.3225   -5.9856   26.7686 C   0  0  2  0  0  0  0  0  0  0  0  0
    2.8354   -6.3268   25.4236 N   0  0  0  0  0  0  0  0  0  0  0  0
    5.7467   -3.7859   32.1353 C   0  0  2  0  0  0  0  0  0  0  0  0
    5.9342   -2.4665   31.5791 N   0  0  0  0  0  0  0  0  0  0  0  0
    3.9839   -4.5591   26.7346 C   0  0  0  0  0  0  0  0  0  0  0  0
    1.3190   -5.4772   25.1113 C   0  0  0  0  0  0  0  0  0  0  0  0
    1.3456   -6.1498   23.7566 C   0  0  1  0  0  0  0  0  0  0  0  0
    0.6182   -7.4894   23.8921 C   0  0  0  0  0  0  0  0  0  0  0  0
    0.5867   -8.3609   22.6254 C   0  0  0  0  0  0  0  0  0  0  0  0
   -0.3203   -7.7373   21.6571 N   0  0  0  0  0  0  0  0  0  0  0  0
    0.6150   -5.4093   22.8143 O   0  0  0  0  0  0  0  0  0  0  0  0
    2.9255   -9.3392   27.6710 C   0  0  0  0  0  0  0  0  0  0  0  0
    1.4906   -8.8393   27.6020 C   0  0  0  0  0  0  0  0  0  0  0  0
    7.1109   -4.3760   32.6285 C   0  0  1  0  0  0  0  0  0  0  0  0
    1.1827   -7.7871   28.5952 N   0  0  0  0  0  0  0  0  0  0  0  0
    7.7129   -3.5278   33.5868 O   0  0  0  0  0  0  0  0  0  0  0  0
    4.5245   -4.1459   28.1106 C   0  0  2  0  0  0  0  0  0  0  0  0
    5.1687   -2.8379   28.0446 N   0  0  0  0  0  0  0  0  0  0  0  0
   -0.4463   -8.8099   30.1864 C   0  0  0  0  0  0  0  0  0  0  0  0
   -0.7685   -9.2448   31.6523 N   0  0  0  0  0  0  0  0  0  0  0  0
    0.9555   -8.1514   30.0225 C   0  0  0  0  0  0  0  0  0  0  0  0
    0.7086   -4.8037   25.6707 O   0  0  0  0  0  0  0  0  0  0  0  0
    6.8416   -5.7619   33.2239 C   0  0  2  0  0  0  0  0  0  0  0  0
    8.0397   -6.3503   33.7035 O   0  0  0  0  0  0  0  0  0  0  0  0
    5.5211   -5.1613   28.6113 C   0  0  2  0  0  0  0  0  0  0  0  0
    6.1791   -6.6786   32.1553 C   0  0  2  0  0  0  0  0  0  0  0  0
    4.9561   -6.0970   31.6578 O   0  0  0  0  0  0  0  0  0  0  0  0
    4.8504   -6.6003   28.6781 C   0  0  2  0  0  0  0  0  0  0  0  0
    5.8395   -7.5530   29.1711 O   0  0  0  0  0  0  0  0  0  0  0  0
    5.8717   -8.0248   32.6939 C   0  0  0  0  0  0  0  0  0  0  0  0
    6.8779   -8.8728   32.3869 N   0  0  0  0  0  0  0  0  0  0  0  0
    4.3727   -7.0035   27.2399 C   0  0  1  0  0  0  0  0  0  0  0  0
    3.8046   -8.2743   27.2596 O   0  0  0  0  0  0  0  0  0  0  0  0
  1  2  1  6  0  0  0
  1  5  1  0  0  0  0
  1 29  1  0  0  0  0
  3  4  1  6  0  0  0
  3  7  1  0  0  0  0
  3 34  1  0  0  0  0
  5  6  1  6  0  0  0
  5 16  1  0  0  0  0
  7 19  1  0  0  0  0
  8  4  1  0  0  0  0
  8 24  2  0  0  0  0
  9  8  1  1  0  0  0
  9 10  1  0  0  0  0
  9 13  1  0  0  0  0
 10 11  1  0  0  0  0
 11 12  1  0  0  0  0
 14 15  1  0  0  0  0
 14 35  1  0  0  0  0
 15 17  1  0  0  0  0
 16 18  1  1  0  0  0
 16 25  1  0  0  0  0
 19 20  1  6  0  0  0
 19 27  1  0  0  0  0
 21 22  1  0  0  0  0
 21 23  1  0  0  0  0
 23 17  1  0  0  0  0
 25 26  1  6  0  0  0
 25 28  1  0  0  0  0
 27  2  1  1  0  0  0
 27 30  1  0  0  0  0
 28 29  1  0  0  0  0
 28 32  1  1  0  0  0
 30 31  1  6  0  0  0
 30 34  1  0  0  0  0
 32 33  2  0  0  0  0
 34 35  1  1  0  0  0
M  END
>  <CHROM.1>
-161.80812816,-77.69763445,89.55337018,-177.55367846,-71.35207128,-67.32854008
53.12534698,-76.88101419,179.24598660,-74.77283118,70.02366717,-95.52438916
-65.50771907,3.74558393,-6.33008570,28.69286891,-0.61553828,-0.78830093,-0.98823020

>  <Name>
2f4t_lig

>  <RI>
0

>  <Rbt.Current_Directory>
/home/itssahil/PROJECTS/Mol_Feturizer/New_Systems/rnas/2f4t

>  <Rbt.Executable>
rbdock ($Id: //depot/dev/client3/rdock/2013.1/src/exe/rbdock.cxx#4 $)

>  <Rbt.Library>
libRbt.so (2013.1, Build901 2013/11/27)

>  <Rbt.Parameter_File>
/export/apps/rDock/src/rDock_2013.1_src/data/scripts/dock_solv.prm

>  <Rbt.Receptor>
prm/pocket_docking_5.prm

>  <SCORE>
-14.4581

>  <SCORE.INTER>
-6.78953

>  <SCORE.INTER.CONST>
1

>  <SCORE.INTER.POLAR>
-0.782511

>  <SCORE.INTER.ROT>
13

>  <SCORE.INTER.SOLV>
7.70736

>  <SCORE.INTER.VDW>
-16.7538

>  <SCORE.INTER.norm>
-0.193986

>  <SCORE.INTRA>
-7.6686

>  <SCORE.INTRA.DIHEDRAL>
-17.449

>  <SCORE.INTRA.DIHEDRAL.0>
23.8882

>  <SCORE.INTRA.POLAR>
0

>  <SCORE.INTRA.POLAR.0>
0

>  <SCORE.INTRA.REPUL>
0

>  <SCORE.INTRA.REPUL.0>
0

>  <SCORE.INTRA.SOLV>
4.17032

>  <SCORE.INTRA.SOLV.lig_0>
-97.6888

>  <SCORE.INTRA.VDW>
-1.02928

>  <SCORE.INTRA.VDW.0>
-3.9206

>  <SCORE.INTRA.norm>
-0.219103

>  <SCORE.RESTR>
0

>  <SCORE.RESTR.CAVITY>
0

>  <SCORE.RESTR.norm>
0

>  <SCORE.SYSTEM>
0

>  <SCORE.SYSTEM.CONST>
0

>  <SCORE.SYSTEM.DIHEDRAL>
0

>  <SCORE.SYSTEM.SOLV>
0

>  <SCORE.SYSTEM.norm>
0

>  <SCORE.heavy>
35

>  <SCORE.norm>
-0.413089

>  <RMSD>
8.553

$$$$
2f4t_lig
 OpenBabel11021811433D
libRbt.so/2013.1/901 2013/11/27
 35 36  0  0  0  0  0  0  0  0999 V2000
    1.8155  -13.2543   29.4497 C   0  0  2  0  0  0  0  0  0  0  0  0
    2.4891  -12.4111   30.4408 O   0  0  0  0  0  0  0  0  0  0  0  0
    5.0517   -8.9496   30.1115 C   0  0  2  0  0  0  0  0  0  0  0  0
    6.2410   -8.1318   29.8296 N   0  0  0  0  0  0  0  0  0  0  0  0
    0.5666  -13.8449   30.1715 C   0  0  2  0  0  0  0  0  0  0  0  0
   -0.2665  -12.7879   30.6952 N   0  0  0  0  0  0  0  0  0  0  0  0
    5.4640  -10.1723   31.0108 C   0  0  0  0  0  0  0  0  0  0  0  0
    7.0230   -7.6831   31.3481 C   0  0  0  0  0  0  0  0  0  0  0  0
    8.0391   -6.9644   30.4883 C   0  0  1  0  0  0  0  0  0  0  0  0
    8.9224   -6.1293   31.4180 C   0  0  0  0  0  0  0  0  0  0  0  0
    9.9444   -5.2152   30.7217 C   0  0  0  0  0  0  0  0  0  0  0  0
   10.6716   -4.4659   31.7507 N   0  0  0  0  0  0  0  0  0  0  0  0
    8.8992   -7.8777   29.8586 O   0  0  0  0  0  0  0  0  0  0  0  0
    3.3457   -7.2527   27.5552 C   0  0  0  0  0  0  0  0  0  0  0  0
    3.8956   -6.8083   26.2085 C   0  0  0  0  0  0  0  0  0  0  0  0
    1.0155  -14.8130   31.3176 C   0  0  1  0  0  0  0  0  0  0  0  0
    2.9461   -5.9894   25.4233 N   0  0  0  0  0  0  0  0  0  0  0  0
   -0.1043  -15.3641   31.9831 O   0  0  0  0  0  0  0  0  0  0  0  0
    4.2653  -11.0751   31.3338 C   0  0  2  0  0  0  0  0  0  0  0  0
    4.6799  -12.2230   32.1342 N   0  0  0  0  0  0  0  0  0  0  0  0
    1.0625   -4.3539   25.5154 C   0  0  0  0  0  0  0  0  0  0  0  0
    0.5287   -2.9796   26.0333 N   0  0  0  0  0  0  0  0  0  0  0  0
    2.5405   -4.6415   25.9132 C   0  0  0  0  0  0  0  0  0  0  0  0
    6.8192   -7.8685   32.3792 O   0  0  0  0  0  0  0  0  0  0  0  0
    1.8752  -15.9186   30.6962 C   0  0  2  0  0  0  0  0  0  0  0  0
    2.3067  -16.8417   31.6829 O   0  0  0  0  0  0  0  0  0  0  0  0
    3.6197  -11.5680   30.0628 C   0  0  2  0  0  0  0  0  0  0  0  0
    3.1000  -15.2925   29.9690 C   0  0  2  0  0  0  0  0  0  0  0  0
    2.6797  -14.3523   28.9586 O   0  0  0  0  0  0  0  0  0  0  0  0
    3.1721  -10.3373   29.1629 C   0  0  2  0  0  0  0  0  0  0  0  0
    2.5480  -10.8509   27.9481 O   0  0  0  0  0  0  0  0  0  0  0  0
    3.9485  -16.3232   29.3250 C   0  0  0  0  0  0  0  0  0  0  0  0
    4.7726  -15.7335   28.4313 N   0  0  0  0  0  0  0  0  0  0  0  0
    4.4382   -9.4828   28.8075 C   0  0  1  0  0  0  0  0  0  0  0  0
    4.0828   -8.4102   27.9945 O   0  0  0  0  0  0  0  0  0  0  0  0
  1  2  1  1  0  0  0
  1  5  1  0  0  0  0
  1 29  1  0  0  0  0
  3  4  1  6  0  0  0
  3  7  1  0  0  0  0
  3 34  1  0  0  0  0
  5  6  1  1  0  0  0
  5 16  1  0  0  0  0
  7 19  1  0  0  0  0
  8  4  1  0  0  0  0
  8 24  2  0  0  0  0
  9  8  1  1  0  0  0
  9 10  1  0  0  0  0
  9 13  1  0  0  0  0
 10 11  1  0  0  0  0
 11 12  1  0  0  0  0
 14 15  1  0  0  0  0
 14 35  1  0  0  0  0
 15 17  1  0  0  0  0
 16 18  1  6  0  0  0
 16 25  1  0  0  0  0
 19 20  1  1  0  0  0
 19 27  1  0  0  0  0
 21 22  1  0  0  0  0
 21 23  1  0  0  0  0
 23 17  1  0  0  0  0
 25 26  1  1  0  0  0
 25 28  1  0  0  0  0
 27  2  1  1  0  0  0
 27 30  1  0  0  0  0
 28 29  1  0  0  0  0
 28 32  1  6  0  0  0
 30 31  1  6  0  0  0
 30 34  1  0  0  0  0
 32 33  2  0  0  0  0
 34 35  1  6  0  0  0
M  END
>  <CHROM.1>
-172.67292661,-54.18121833,170.46431935,-174.56445308,178.36010804,158.30150628
-177.05989200,65.79926491,177.87083573,-146.18355593,-167.81370685,163.93091232
-69.73440946,4.06129027,-10.19019913,29.60282564,2.05283986,0.51353290,2.72205780

>  <Name>
2f4t_lig

>  <RI>
0

>  <Rbt.Current_Directory>
/home/itssahil/PROJECTS/Mol_Feturizer/New_Systems/rnas/2f4t

>  <Rbt.Executable>
rbdock ($Id: //depot/dev/client3/rdock/2013.1/src/exe/rbdock.cxx#4 $)

>  <Rbt.Library>
libRbt.so (2013.1, Build901 2013/11/27)

>  <Rbt.Parameter_File>
/export/apps/rDock/src/rDock_2013.1_src/data/scripts/dock_solv.prm

>  <Rbt.Receptor>
prm/pocket_docking_6.prm

>  <SCORE>
-15.9437

>  <SCORE.INTER>
-8.07349

>  <SCORE.INTER.CONST>
1

>  <SCORE.INTER.POLAR>
-0.856585

>  <SCORE.INTER.ROT>
13

>  <SCORE.INTER.SOLV>
22.5769

>  <SCORE.INTER.VDW>
-22.3193

>  <SCORE.INTER.norm>
-0.230671

>  <SCORE.INTRA>
-7.87024

>  <SCORE.INTRA.DIHEDRAL>
-17.3639

>  <SCORE.INTRA.DIHEDRAL.0>
23.8882

>  <SCORE.INTRA.POLAR>
0

>  <SCORE.INTRA.POLAR.0>
0

>  <SCORE.INTRA.REPUL>
0

>  <SCORE.INTRA.REPUL.0>
0

>  <SCORE.INTRA.SOLV>
-1.59079

>  <SCORE.INTRA.SOLV.lig_0>
-97.6888

>  <SCORE.INTRA.VDW>
1.6071

>  <SCORE.INTRA.VDW.0>
-3.9206

>  <SCORE.INTRA.norm>
-0.224864

>  <SCORE.RESTR>
0

>  <SCORE.RESTR.CAVITY>
0

>  <SCORE.RESTR.norm>
0

>  <SCORE.SYSTEM>
0

>  <SCORE.SYSTEM.CONST>
0

>  <SCORE.SYSTEM.DIHEDRAL>
0

>  <SCORE.SYSTEM.SOLV>
0

>  <SCORE.SYSTEM.norm>
0

>  <SCORE.heavy>
35

>  <SCORE.norm>
-0.455535

>  <RMSD>
8.568

$$$$
2f4t_lig
 OpenBabel11021811433D
libRbt.so/2013.1/901 2013/11/27
 35 36  0  0  0  0  0  0  0  0999 V2000
    4.7400  -11.4294   31.8986 C   0  0  2  0  0  0  0  0  0  0  0  0
    3.7773  -11.3153   30.7997 O   0  0  0  0  0  0  0  0  0  0  0  0
    2.9645   -7.8700   28.3246 C   0  0  2  0  0  0  0  0  0  0  0  0
    2.3600   -6.6117   27.8621 N   0  0  0  0  0  0  0  0  0  0  0  0
    4.7053  -12.9235   32.3415 C   0  0  2  0  0  0  0  0  0  0  0  0
    4.9943  -13.7928   31.2252 N   0  0  0  0  0  0  0  0  0  0  0  0
    1.8246   -8.8958   28.6737 C   0  0  0  0  0  0  0  0  0  0  0  0
    2.6256   -6.4320   26.1254 C   0  0  0  0  0  0  0  0  0  0  0  0
    1.8620   -5.1323   26.2518 C   0  0  1  0  0  0  0  0  0  0  0  0
    2.7692   -4.0121   25.7379 C   0  0  0  0  0  0  0  0  0  0  0  0
    3.9904   -3.6892   26.6151 C   0  0  0  0  0  0  0  0  0  0  0  0
    3.5129   -3.1595   27.8960 N   0  0  0  0  0  0  0  0  0  0  0  0
    0.7352   -5.1290   25.4148 O   0  0  0  0  0  0  0  0  0  0  0  0
    5.9344   -5.8328   29.5284 C   0  0  0  0  0  0  0  0  0  0  0  0
    7.1178   -6.6620   30.0032 C   0  0  0  0  0  0  0  0  0  0  0  0
    3.3096  -13.2681   32.9625 C   0  0  1  0  0  0  0  0  0  0  0  0
    7.8206   -7.3692   28.9103 N   0  0  0  0  0  0  0  0  0  0  0  0
    3.2586  -14.6197   33.3758 O   0  0  0  0  0  0  0  0  0  0  0  0
    2.3906  -10.2318   29.1749 C   0  0  2  0  0  0  0  0  0  0  0  0
    1.3146  -11.1515   29.5305 N   0  0  0  0  0  0  0  0  0  0  0  0
    9.0553   -5.6862   27.5412 C   0  0  0  0  0  0  0  0  0  0  0  0
    8.1211   -5.9224   26.3110 N   0  0  0  0  0  0  0  0  0  0  0  0
    9.1761   -6.9214   28.4819 C   0  0  0  0  0  0  0  0  0  0  0  0
    3.1148   -7.0160   25.3779 O   0  0  0  0  0  0  0  0  0  0  0  0
    3.0727  -12.3288   34.1496 C   0  0  2  0  0  0  0  0  0  0  0  0
    1.8251  -12.5970   34.7687 O   0  0  0  0  0  0  0  0  0  0  0  0
    3.2697  -10.0120   30.3807 C   0  0  2  0  0  0  0  0  0  0  0  0
    3.1335  -10.8483   33.6748 C   0  0  2  0  0  0  0  0  0  0  0  0
    4.3980  -10.5560   33.0447 O   0  0  0  0  0  0  0  0  0  0  0  0
    4.4426   -9.0002   30.0264 C   0  0  2  0  0  0  0  0  0  0  0  0
    5.2737   -8.8168   31.2116 O   0  0  0  0  0  0  0  0  0  0  0  0
    2.9387   -9.8983   34.7958 C   0  0  0  0  0  0  0  0  0  0  0  0
    1.7265   -9.3120   34.6833 N   0  0  0  0  0  0  0  0  0  0  0  0
    3.8154   -7.6334   29.5820 C   0  0  1  0  0  0  0  0  0  0  0  0
    4.8197   -6.7144   29.2911 O   0  0  0  0  0  0  0  0  0  0  0  0
  1  2  1  6  0  0  0
  1  5  1  0  0  0  0
  1 29  1  0  0  0  0
  3  4  1  1  0  0  0
  3  7  1  0  0  0  0
  3 34  1  0  0  0  0
  5  6  1  6  0  0  0
  5 16  1  0  0  0  0
  7 19  1  0  0  0  0
  8  4  1  0  0  0  0
  8 24  2  0  0  0  0
  9  8  1  6  0  0  0
  9 10  1  0  0  0  0
  9 13  1  0  0  0  0
 10 11  1  0  0  0  0
 11 12  1  0  0  0  0
 14 15  1  0  0  0  0
 14 35  1  0  0  0  0
 15 17  1  0  0  0  0
 16 18  1  1  0  0  0
 16 25  1  0  0  0  0
 19 20  1  1  0  0  0
 19 27  1  0  0  0  0
 21 22  1  0  0  0  0
 21 23  1  0  0  0  0
 23 17  1  0  0  0  0
 25 26  1  6  0  0  0
 25 28  1  0  0  0  0
 27  2  1  6  0  0  0
 27 30  1  0  0  0  0
 28 29  1  0  0  0  0
 28 32  1  1  0  0  0
 30 31  1  1  0  0  0
 30 34  1  0  0  0  0
 32 33  2  0  0  0  0
 34 35  1  6  0  0  0
M  END
>  <CHROM.1>
162.91479750,-108.56988033,122.79850398,-69.33236186,-65.21064748,78.41676489
63.03468993,108.66714334,-54.47468837,-80.03878145,175.82290173,-108.58501216
174.93698936,4.00681143,-8.65634043,29.88669336,-1.68842639,-0.13304451,-0.75801573

>  <Name>
2f4t_lig

>  <RI>
0

>  <Rbt.Current_Directory>
/home/itssahil/PROJECTS/Mol_Feturizer/New_Systems/rnas/2f4t

>  <Rbt.Executable>
rbdock ($Id: //depot/dev/client3/rdock/2013.1/src/exe/rbdock.cxx#4 $)

>  <Rbt.Library>
libRbt.so (2013.1, Build901 2013/11/27)

>  <Rbt.Parameter_File>
/export/apps/rDock/src/rDock_2013.1_src/data/scripts/dock_solv.prm

>  <Rbt.Receptor>
prm/pocket_docking_6.prm

>  <SCORE>
-15.9755

>  <SCORE.INTER>
-10.0178

>  <SCORE.INTER.CONST>
1

>  <SCORE.INTER.POLAR>
-3.06948

>  <SCORE.INTER.ROT>
13

>  <SCORE.INTER.SOLV>
13.3456

>  <SCORE.INTER.VDW>
-13.1622

>  <SCORE.INTER.norm>
-0.286224

>  <SCORE.INTRA>
-5.95766

>  <SCORE.INTRA.DIHEDRAL>
-14.777

>  <SCORE.INTRA.DIHEDRAL.0>
23.8882

>  <SCORE.INTRA.POLAR>
0

>  <SCORE.INTRA.POLAR.0>
0

>  <SCORE.INTRA.REPUL>
0

>  <SCORE.INTRA.REPUL.0>
0

>  <SCORE.INTRA.SOLV>
4.28728

>  <SCORE.INTRA.SOLV.lig_0>
-97.6888

>  <SCORE.INTRA.VDW>
-0.712772

>  <SCORE.INTRA.VDW.0>
-3.9206

>  <SCORE.INTRA.norm>
-0.170219

>  <SCORE.RESTR>
0

>  <SCORE.RESTR.CAVITY>
0

>  <SCORE.RESTR.norm>
0

>  <SCORE.SYSTEM>
0

>  <SCORE.SYSTEM.CONST>
0

>  <SCORE.SYSTEM.DIHEDRAL>
0

>  <SCORE.SYSTEM.SOLV>
0

>  <SCORE.SYSTEM.norm>
0

>  <SCORE.heavy>
35

>  <SCORE.norm>
-0.456443

>  <RMSD>
8.571

$$$$
2f4t_lig
 OpenBabel11021811433D
libRbt.so/2013.1/901 2013/11/27
 35 36  0  0  0  0  0  0  0  0999 V2000
    3.2884   -6.8185   31.5886 C   0  0  2  0  0  0  0  0  0  0  0  0
    3.4637   -7.5125   30.3100 O   0  0  0  0  0  0  0  0  0  0  0  0
    1.6221   -7.2035   26.4151 C   0  0  2  0  0  0  0  0  0  0  0  0
    0.5958   -7.2554   25.3631 N   0  0  0  0  0  0  0  0  0  0  0  0
    4.3367   -7.4425   32.5588 C   0  0  2  0  0  0  0  0  0  0  0  0
    5.6688   -7.3253   32.0136 N   0  0  0  0  0  0  0  0  0  0  0  0
    1.6427   -8.5730   27.1880 C   0  0  0  0  0  0  0  0  0  0  0  0
    1.2782   -6.6715   23.8425 C   0  0  0  0  0  0  0  0  0  0  0  0
   -0.0845   -6.9501   23.2480 C   0  0  1  0  0  0  0  0  0  0  0  0
   -0.1929   -6.1507   21.9475 C   0  0  0  0  0  0  0  0  0  0  0  0
   -1.5877   -6.1179   21.3005 C   0  0  0  0  0  0  0  0  0  0  0  0
   -2.5045   -5.4267   22.2119 N   0  0  0  0  0  0  0  0  0  0  0  0
   -0.2055   -8.2995   22.8810 O   0  0  0  0  0  0  0  0  0  0  0  0
    1.1040   -3.4437   26.5506 C   0  0  0  0  0  0  0  0  0  0  0  0
    2.2284   -2.7128   27.2684 C   0  0  0  0  0  0  0  0  0  0  0  0
    3.9849   -8.9427   32.8383 C   0  0  1  0  0  0  0  0  0  0  0  0
    3.5679   -2.9902   26.7052 N   0  0  0  0  0  0  0  0  0  0  0  0
    4.9224   -9.5270   33.7214 O   0  0  0  0  0  0  0  0  0  0  0  0
    2.6893   -8.5808   28.3109 C   0  0  2  0  0  0  0  0  0  0  0  0
    2.6614   -9.8455   29.0388 N   0  0  0  0  0  0  0  0  0  0  0  0
    5.9402   -3.7663   26.7456 C   0  0  0  0  0  0  0  0  0  0  0  0
    7.1451   -4.2946   27.5887 N   0  0  0  0  0  0  0  0  0  0  0  0
    4.6603   -3.4887   27.5882 C   0  0  0  0  0  0  0  0  0  0  0  0
    2.2335   -6.3013   23.5433 O   0  0  0  0  0  0  0  0  0  0  0  0
    2.5735   -8.9969   33.4324 C   0  0  2  0  0  0  0  0  0  0  0  0
    2.1953  -10.3329   33.7222 O   0  0  0  0  0  0  0  0  0  0  0  0
    2.4339   -7.4507   29.2767 C   0  0  2  0  0  0  0  0  0  0  0  0
    1.5582   -8.3492   32.4472 C   0  0  2  0  0  0  0  0  0  0  0  0
    1.9255   -6.9875   32.1430 O   0  0  0  0  0  0  0  0  0  0  0  0
    2.4427   -6.0603   28.5075 C   0  0  2  0  0  0  0  0  0  0  0  0
    2.1989   -4.9927   29.4718 O   0  0  0  0  0  0  0  0  0  0  0  0
    0.1795   -8.3515   32.9914 C   0  0  0  0  0  0  0  0  0  0  0  0
    0.0715   -7.4031   33.9478 N   0  0  0  0  0  0  0  0  0  0  0  0
    1.3168   -6.0783   27.4160 C   0  0  1  0  0  0  0  0  0  0  0  0
    1.2799   -4.8609   26.7418 O   0  0  0  0  0  0  0  0  0  0  0  0
  1  2  1  6  0  0  0
  1  5  1  0  0  0  0
  1 29  1  0  0  0  0
  3  4  1  6  0  0  0
  3  7  1  0  0  0  0
  3 34  1  0  0  0  0
  5  6  1  6  0  0  0
  5 16  1  0  0  0  0
  7 19  1  0  0  0  0
  8  4  1  0  0  0  0
  8 24  2  0  0  0  0
  9  8  1  6  0  0  0
  9 10  1  0  0  0  0
  9 13  1  0  0  0  0
 10 11  1  0  0  0  0
 11 12  1  0  0  0  0
 14 15  1  0  0  0  0
 14 35  1  0  0  0  0
 15 17  1  0  0  0  0
 16 18  1  1  0  0  0
 16 25  1  0  0  0  0
 19 20  1  1  0  0  0
 19 27  1  0  0  0  0
 21 22  1  0  0  0  0
 21 23  1  0  0  0  0
 23 17  1  0  0  0  0
 25 26  1  6  0  0  0
 25 28  1  0  0  0  0
 27  2  1  1  0  0  0
 27 30  1  0  0  0  0
 28 29  1  0  0  0  0
 28 32  1  1  0  0  0
 30 31  1  1  0  0  0
 30 34  1  0  0  0  0
 32 33  2  0  0  0  0
 34 35  1  6  0  0  0
M  END
>  <CHROM.1>
163.48071076,-132.03289292,160.82912768,-170.60093572,64.04551795,64.62263546
69.39255548,-125.47714119,179.99321068,177.25980813,-162.14684232,74.86445567
176.46415942,2.19507329,-6.72755595,28.31351745,-1.20672246,-0.69610559,-1.07218434

>  <Name>
2f4t_lig

>  <RI>
0

>  <Rbt.Current_Directory>
/home/itssahil/PROJECTS/Mol_Feturizer/New_Systems/rnas/2f4t

>  <Rbt.Executable>
rbdock ($Id: //depot/dev/client3/rdock/2013.1/src/exe/rbdock.cxx#4 $)

>  <Rbt.Library>
libRbt.so (2013.1, Build901 2013/11/27)

>  <Rbt.Parameter_File>
/export/apps/rDock/src/rDock_2013.1_src/data/scripts/dock_solv.prm

>  <Rbt.Receptor>
prm/pocket_docking_5.prm

>  <SCORE>
-14.8272

>  <SCORE.INTER>
-7.20792

>  <SCORE.INTER.CONST>
1

>  <SCORE.INTER.POLAR>
-1.68457

>  <SCORE.INTER.ROT>
13

>  <SCORE.INTER.SOLV>
7.6235

>  <SCORE.INTER.VDW>
-13.9979

>  <SCORE.INTER.norm>
-0.205941

>  <SCORE.INTRA>
-7.61927

>  <SCORE.INTRA.DIHEDRAL>
-15.0187

>  <SCORE.INTRA.DIHEDRAL.0>
23.8882

>  <SCORE.INTRA.POLAR>
0

>  <SCORE.INTRA.POLAR.0>
0

>  <SCORE.INTRA.REPUL>
0

>  <SCORE.INTRA.REPUL.0>
0

>  <SCORE.INTRA.SOLV>
1.96691

>  <SCORE.INTRA.SOLV.lig_0>
-97.6888

>  <SCORE.INTRA.VDW>
-1.09336

>  <SCORE.INTRA.VDW.0>
-3.9206

>  <SCORE.INTRA.norm>
-0.217693

>  <SCORE.RESTR>
0

>  <SCORE.RESTR.CAVITY>
0

>  <SCORE.RESTR.norm>
0

>  <SCORE.SYSTEM>
0

>  <SCORE.SYSTEM.CONST>
0

>  <SCORE.SYSTEM.DIHEDRAL>
0

>  <SCORE.SYSTEM.SOLV>
0

>  <SCORE.SYSTEM.norm>
0

>  <SCORE.heavy>
35

>  <SCORE.norm>
-0.423634

>  <RMSD>
8.572

$$$$
2f4t_lig
 OpenBabel11021811433D
libRbt.so/2013.1/901 2013/11/27
 35 36  0  0  0  0  0  0  0  0999 V2000
    1.1180  -12.3470   30.8717 C   0  0  2  0  0  0  0  0  0  0  0  0
    1.9971  -11.4834   31.6645 O   0  0  0  0  0  0  0  0  0  0  0  0
    3.7741   -7.7315   30.4719 C   0  0  2  0  0  0  0  0  0  0  0  0
    4.7432   -6.7761   29.9144 N   0  0  0  0  0  0  0  0  0  0  0  0
    0.3495  -13.2310   31.9001 C   0  0  2  0  0  0  0  0  0  0  0  0
   -0.3546  -12.4072   32.8546 N   0  0  0  0  0  0  0  0  0  0  0  0
    4.5074   -8.6808   31.4890 C   0  0  0  0  0  0  0  0  0  0  0  0
    5.9139   -7.6389   28.9124 C   0  0  0  0  0  0  0  0  0  0  0  0
    6.5371   -6.2835   28.6618 C   0  0  1  0  0  0  0  0  0  0  0  0
    7.3813   -5.9298   29.8882 C   0  0  0  0  0  0  0  0  0  0  0  0
    8.3732   -7.0114   30.3481 C   0  0  0  0  0  0  0  0  0  0  0  0
    9.4974   -7.0382   29.4076 N   0  0  0  0  0  0  0  0  0  0  0  0
    7.4315   -6.3346   27.5812 O   0  0  0  0  0  0  0  0  0  0  0  0
    1.8682   -7.3722   27.2128 C   0  0  0  0  0  0  0  0  0  0  0  0
    2.9368   -7.0904   26.1676 C   0  0  0  0  0  0  0  0  0  0  0  0
    1.3446  -14.1946   32.6307 C   0  0  1  0  0  0  0  0  0  0  0  0
    2.4232   -6.3870   24.9718 N   0  0  0  0  0  0  0  0  0  0  0  0
    0.6658  -15.0099   33.5661 O   0  0  0  0  0  0  0  0  0  0  0  0
    3.5499   -9.7128   32.1011 C   0  0  2  0  0  0  0  0  0  0  0  0
    4.2610  -10.6068   33.0095 N   0  0  0  0  0  0  0  0  0  0  0  0
    0.4961   -4.8228   25.2390 C   0  0  0  0  0  0  0  0  0  0  0  0
    0.0051   -3.3518   25.4309 N   0  0  0  0  0  0  0  0  0  0  0  0
    2.0378   -4.9499   25.0593 C   0  0  0  0  0  0  0  0  0  0  0  0
    6.0608   -8.6614   28.6440 O   0  0  0  0  0  0  0  0  0  0  0  0
    2.0415  -15.0519   31.5692 C   0  0  2  0  0  0  0  0  0  0  0  0
    2.9521  -15.9602   32.1673 O   0  0  0  0  0  0  0  0  0  0  0  0
    2.8947  -10.5312   31.0167 C   0  0  2  0  0  0  0  0  0  0  0  0
    2.7809  -14.1373   30.5504 C   0  0  2  0  0  0  0  0  0  0  0  0
    1.8689  -13.2079   29.9291 O   0  0  0  0  0  0  0  0  0  0  0  0
    2.1253   -9.5806   30.0022 C   0  0  2  0  0  0  0  0  0  0  0  0
    1.5006  -10.4054   28.9733 O   0  0  0  0  0  0  0  0  0  0  0  0
    3.4482  -14.9215   29.4843 C   0  0  0  0  0  0  0  0  0  0  0  0
    4.7498  -14.5661   29.4119 N   0  0  0  0  0  0  0  0  0  0  0  0
    3.1549   -8.5891   29.3573 C   0  0  1  0  0  0  0  0  0  0  0  0
    2.5153   -7.7594   28.4405 O   0  0  0  0  0  0  0  0  0  0  0  0
  1  2  1  1  0  0  0
  1  5  1  0  0  0  0
  1 29  1  0  0  0  0
  3  4  1  6  0  0  0
  3  7  1  0  0  0  0
  3 34  1  0  0  0  0
  5  6  1  1  0  0  0
  5 16  1  0  0  0  0
  7 19  1  0  0  0  0
  8  4  1  0  0  0  0
  8 24  2  0  0  0  0
  9  8  1  1  0  0  0
  9 10  1  0  0  0  0
  9 13  1  0  0  0  0
 10 11  1  0  0  0  0
 11 12  1  0  0  0  0
 14 15  1  0  0  0  0
 14 35  1  0  0  0  0
 15 17  1  0  0  0  0
 16 18  1  1  0  0  0
 16 25  1  0  0  0  0
 19 20  1  1  0  0  0
 19 27  1  0  0  0  0
 21 22  1  0  0  0  0
 21 23  1  0  0  0  0
 23 17  1  0  0  0  0
 25 26  1  1  0  0  0
 25 28  1  0  0  0  0
 27  2  1  1  0  0  0
 27 30  1  0  0  0  0
 28 29  1  0  0  0  0
 28 32  1  6  0  0  0
 30 31  1  6  0  0  0
 30 34  1  0  0  0  0
 32 33  2  0  0  0  0
 34 35  1  6  0  0  0
M  END
>  <CHROM.1>
178.77360911,67.01517706,79.04747463,50.69266595,74.25975292,-166.53850296
-80.81834890,72.13295388,176.36426713,-98.35520366,174.46717120,-126.72372559
166.52704553,3.33814801,-9.72042323,29.67475557,1.82983209,0.30173012,2.55566427

>  <Name>
2f4t_lig

>  <RI>
0

>  <Rbt.Current_Directory>
/home/itssahil/PROJECTS/Mol_Feturizer/New_Systems/rnas/2f4t

>  <Rbt.Executable>
rbdock ($Id: //depot/dev/client3/rdock/2013.1/src/exe/rbdock.cxx#4 $)

>  <Rbt.Library>
libRbt.so (2013.1, Build901 2013/11/27)

>  <Rbt.Parameter_File>
/export/apps/rDock/src/rDock_2013.1_src/data/scripts/dock_solv.prm

>  <Rbt.Receptor>
prm/pocket_docking_4.prm

>  <SCORE>
-18.0104

>  <SCORE.INTER>
-12.0774

>  <SCORE.INTER.CONST>
1

>  <SCORE.INTER.POLAR>
-3.37674

>  <SCORE.INTER.ROT>
13

>  <SCORE.INTER.SOLV>
17.4878

>  <SCORE.INTER.VDW>
-14.8918

>  <SCORE.INTER.norm>
-0.34507

>  <SCORE.INTRA>
-5.93301

>  <SCORE.INTRA.DIHEDRAL>
-16.1468

>  <SCORE.INTRA.DIHEDRAL.0>
23.8882

>  <SCORE.INTRA.POLAR>
0

>  <SCORE.INTRA.POLAR.0>
0

>  <SCORE.INTRA.REPUL>
0

>  <SCORE.INTRA.REPUL.0>
0

>  <SCORE.INTRA.SOLV>
1.73862

>  <SCORE.INTRA.SOLV.lig_0>
-97.6888

>  <SCORE.INTRA.VDW>
1.27111

>  <SCORE.INTRA.VDW.0>
-3.9206

>  <SCORE.INTRA.norm>
-0.169514

>  <SCORE.RESTR>
0

>  <SCORE.RESTR.CAVITY>
0

>  <SCORE.RESTR.norm>
0

>  <SCORE.SYSTEM>
0

>  <SCORE.SYSTEM.CONST>
0

>  <SCORE.SYSTEM.DIHEDRAL>
0

>  <SCORE.SYSTEM.SOLV>
0

>  <SCORE.SYSTEM.norm>
0

>  <SCORE.heavy>
35

>  <SCORE.norm>
-0.514584

>  <RMSD>
8.574

$$$$
2f4t_lig
 OpenBabel11021811433D
libRbt.so/2013.1/901 2013/11/27
 35 36  0  0  0  0  0  0  0  0999 V2000
    3.0623  -12.4969   31.7751 C   0  0  2  0  0  0  0  0  0  0  0  0
    2.1557  -11.9473   30.7635 O   0  0  0  0  0  0  0  0  0  0  0  0
    2.9158   -8.8365   27.8649 C   0  0  2  0  0  0  0  0  0  0  0  0
    3.0291   -7.4940   27.2753 N   0  0  0  0  0  0  0  0  0  0  0  0
    2.3285  -13.7329   32.3779 C   0  0  2  0  0  0  0  0  0  0  0  0
    1.9792  -14.6743   31.3401 N   0  0  0  0  0  0  0  0  0  0  0  0
    1.4927   -8.9997   28.5143 C   0  0  0  0  0  0  0  0  0  0  0  0
    1.7844   -7.2843   26.0401 C   0  0  0  0  0  0  0  0  0  0  0  0
    2.3540   -5.8953   25.8546 C   0  0  1  0  0  0  0  0  0  0  0  0
    1.5678   -5.2206   24.7284 C   0  0  0  0  0  0  0  0  0  0  0  0
    0.1116   -4.8538   25.0601 C   0  0  0  0  0  0  0  0  0  0  0  0
   -0.5831   -4.5393   23.8081 N   0  0  0  0  0  0  0  0  0  0  0  0
    2.1405   -5.1087   26.9974 O   0  0  0  0  0  0  0  0  0  0  0  0
    6.6845   -8.8396   28.3374 C   0  0  0  0  0  0  0  0  0  0  0  0
    7.1833   -7.8611   29.3896 C   0  0  0  0  0  0  0  0  0  0  0  0
    1.0512  -13.2724   33.1581 C   0  0  1  0  0  0  0  0  0  0  0  0
    8.6507   -7.6741   29.3746 N   0  0  0  0  0  0  0  0  0  0  0  0
    0.3725  -14.3799   33.7177 O   0  0  0  0  0  0  0  0  0  0  0  0
    1.3130  -10.3810   29.1593 C   0  0  2  0  0  0  0  0  0  0  0  0
    0.0014  -10.4936   29.7897 N   0  0  0  0  0  0  0  0  0  0  0  0
   10.3130   -6.0003   30.1912 C   0  0  0  0  0  0  0  0  0  0  0  0
    9.5797   -4.7296   29.6532 N   0  0  0  0  0  0  0  0  0  0  0  0
    9.3499   -7.1589   30.5858 C   0  0  0  0  0  0  0  0  0  0  0  0
    1.0072   -7.9014   25.6473 O   0  0  0  0  0  0  0  0  0  0  0  0
    1.4901  -12.2953   34.2537 C   0  0  2  0  0  0  0  0  0  0  0  0
    0.3772  -11.8469   35.0101 O   0  0  0  0  0  0  0  0  0  0  0  0
    2.3808  -10.6204   30.1974 C   0  0  2  0  0  0  0  0  0  0  0  0
    2.2348  -11.0858   33.6184 C   0  0  2  0  0  0  0  0  0  0  0  0
    3.3728  -11.5230   32.8469 O   0  0  0  0  0  0  0  0  0  0  0  0
    3.8219  -10.4879   29.5413 C   0  0  2  0  0  0  0  0  0  0  0  0
    4.8268  -10.7310   30.5710 O   0  0  0  0  0  0  0  0  0  0  0  0
    2.7059  -10.1245   34.6435 C   0  0  0  0  0  0  0  0  0  0  0  0
    3.9442  -10.4757   35.0545 N   0  0  0  0  0  0  0  0  0  0  0  0
    3.9800   -9.0424   28.9540 C   0  0  1  0  0  0  0  0  0  0  0  0
    5.2455   -8.8850   28.3958 O   0  0  0  0  0  0  0  0  0  0  0  0
  1  2  1  6  0  0  0
  1  5  1  0  0  0  0
  1 29  1  0  0  0  0
  3  4  1  1  0  0  0
  3  7  1  0  0  0  0
  3 34  1  0  0  0  0
  5  6  1  6  0  0  0
  5 16  1  0  0  0  0
  7 19  1  0  0  0  0
  8  4  1  0  0  0  0
  8 24  2  0  0  0  0
  9  8  1  1  0  0  0
  9 10  1  0  0  0  0
  9 13  1  0  0  0  0
 10 11  1  0  0  0  0
 11 12  1  0  0  0  0
 14 15  1  0  0  0  0
 14 35  1  0  0  0  0
 15 17  1  0  0  0  0
 16 18  1  1  0  0  0
 16 25  1  0  0  0  0
 19 20  1  1  0  0  0
 19 27  1  0  0  0  0
 21 22  1  0  0  0  0
 21 23  1  0  0  0  0
 23 17  1  0  0  0  0
 25 26  1  6  0  0  0
 25 28  1  0  0  0  0
 27  2  1  6  0  0  0
 27 30  1  0  0  0  0
 28 29  1  0  0  0  0
 28 32  1  1  0  0  0
 30 31  1  1  0  0  0
 30 34  1  0  0  0  0
 32 33  2  0  0  0  0
 34 35  1  6  0  0  0
M  END
>  <CHROM.1>
166.54830887,-59.83374549,178.04166903,69.95551722,-166.00156284,-176.83698110
-54.94553158,-158.51948740,65.56617468,-131.49408182,177.85596627,89.20404277
-179.11753864,3.26247900,-9.34575063,29.85191810,-1.75939744,-0.31419532
-0.85798170

>  <Name>
2f4t_lig

>  <RI>
0

>  <Rbt.Current_Directory>
/home/itssahil/PROJECTS/Mol_Feturizer/New_Systems/rnas/2f4t

>  <Rbt.Executable>
rbdock ($Id: //depot/dev/client3/rdock/2013.1/src/exe/rbdock.cxx#4 $)

>  <Rbt.Library>
libRbt.so (2013.1, Build901 2013/11/27)

>  <Rbt.Parameter_File>
/export/apps/rDock/src/rDock_2013.1_src/data/scripts/dock_solv.prm

>  <Rbt.Receptor>
prm/pocket_docking_5.prm

>  <SCORE>
-13.4153

>  <SCORE.INTER>
-6.82072

>  <SCORE.INTER.CONST>
1

>  <SCORE.INTER.POLAR>
-0.796887

>  <SCORE.INTER.ROT>
13

>  <SCORE.INTER.SOLV>
14.1936

>  <SCORE.INTER.VDW>
-18.8887

>  <SCORE.INTER.norm>
-0.194878

>  <SCORE.INTRA>
-6.59453

>  <SCORE.INTRA.DIHEDRAL>
-18.0172

>  <SCORE.INTRA.DIHEDRAL.0>
23.8882

>  <SCORE.INTRA.POLAR>
0

>  <SCORE.INTRA.POLAR.0>
0

>  <SCORE.INTRA.REPUL>
0

>  <SCORE.INTRA.REPUL.0>
0

>  <SCORE.INTRA.SOLV>
0.676496

>  <SCORE.INTRA.SOLV.lig_0>
-97.6888

>  <SCORE.INTRA.VDW>
2.07582

>  <SCORE.INTRA.VDW.0>
-3.9206

>  <SCORE.INTRA.norm>
-0.188415

>  <SCORE.RESTR>
0

>  <SCORE.RESTR.CAVITY>
0

>  <SCORE.RESTR.norm>
0

>  <SCORE.SYSTEM>
0

>  <SCORE.SYSTEM.CONST>
0

>  <SCORE.SYSTEM.DIHEDRAL>
0

>  <SCORE.SYSTEM.SOLV>
0

>  <SCORE.SYSTEM.norm>
0

>  <SCORE.heavy>
35

>  <SCORE.norm>
-0.383293

>  <RMSD>
8.577

$$$$
2f4t_lig
 OpenBabel11021811433D
libRbt.so/2013.1/901 2013/11/27
 35 36  0  0  0  0  0  0  0  0999 V2000
    4.7401  -12.2341   32.3605 C   0  0  2  0  0  0  0  0  0  0  0  0
    4.0829  -11.7298   31.1518 O   0  0  0  0  0  0  0  0  0  0  0  0
    4.7125   -7.8258   29.4142 C   0  0  2  0  0  0  0  0  0  0  0  0
    4.5049   -6.4058   29.0928 N   0  0  0  0  0  0  0  0  0  0  0  0
    4.5413  -13.7799   32.3397 C   0  0  2  0  0  0  0  0  0  0  0  0
    5.0637  -14.3446   31.1175 N   0  0  0  0  0  0  0  0  0  0  0  0
    3.3800   -8.6181   29.1493 C   0  0  0  0  0  0  0  0  0  0  0  0
    4.3851   -6.2078   27.3420 C   0  0  0  0  0  0  0  0  0  0  0  0
    4.1925   -4.7353   27.6294 C   0  0  1  0  0  0  0  0  0  0  0  0
    4.0908   -4.0119   26.2847 C   0  0  0  0  0  0  0  0  0  0  0  0
    5.4294   -3.6855   25.6014 C   0  0  0  0  0  0  0  0  0  0  0  0
    6.0012   -4.9325   25.0845 N   0  0  0  0  0  0  0  0  0  0  0  0
    2.9709   -4.5071   28.2820 O   0  0  0  0  0  0  0  0  0  0  0  0
    7.6305   -6.8426   30.9641 C   0  0  0  0  0  0  0  0  0  0  0  0
    8.0184   -5.9727   32.1500 C   0  0  0  0  0  0  0  0  0  0  0  0
    3.0237  -14.1293   32.5046 C   0  0  1  0  0  0  0  0  0  0  0  0
    7.1451   -4.7919   32.3277 N   0  0  0  0  0  0  0  0  0  0  0  0
    2.8218  -15.5292   32.4931 O   0  0  0  0  0  0  0  0  0  0  0  0
    3.5268  -10.1106   29.4767 C   0  0  2  0  0  0  0  0  0  0  0  0
    2.2674  -10.8162   29.2619 N   0  0  0  0  0  0  0  0  0  0  0  0
    6.4329   -2.6141   33.3184 C   0  0  0  0  0  0  0  0  0  0  0  0
    6.7529   -1.4387   34.2971 N   0  0  0  0  0  0  0  0  0  0  0  0
    7.5538   -3.6929   33.2478 C   0  0  0  0  0  0  0  0  0  0  0  0
    4.4349   -6.8717   26.5078 O   0  0  0  0  0  0  0  0  0  0  0  0
    2.5370  -13.5221   33.8245 C   0  0  2  0  0  0  0  0  0  0  0  0
    1.1661  -13.8134   34.0427 O   0  0  0  0  0  0  0  0  0  0  0  0
    3.9567  -10.2953   30.9106 C   0  0  2  0  0  0  0  0  0  0  0  0
    2.7684  -11.9835   33.8176 C   0  0  2  0  0  0  0  0  0  0  0  0
    4.1592  -11.6680   33.5997 O   0  0  0  0  0  0  0  0  0  0  0  0
    5.3194   -9.5229   31.1777 C   0  0  2  0  0  0  0  0  0  0  0  0
    5.7066   -9.7285   32.5695 O   0  0  0  0  0  0  0  0  0  0  0  0
    2.3390  -11.3528   35.0884 C   0  0  0  0  0  0  0  0  0  0  0  0
    3.0219  -11.9023   36.1167 N   0  0  0  0  0  0  0  0  0  0  0  0
    5.1011   -7.9967   30.8911 C   0  0  1  0  0  0  0  0  0  0  0  0
    6.2716   -7.2868   31.1435 O   0  0  0  0  0  0  0  0  0  0  0  0
  1  2  1  6  0  0  0
  1  5  1  0  0  0  0
  1 29  1  0  0  0  0
  3  4  1  1  0  0  0
  3  7  1  0  0  0  0
  3 34  1  0  0  0  0
  5  6  1  6  0  0  0
  5 16  1  0  0  0  0
  7 19  1  0  0  0  0
  8  4  1  0  0  0  0
  8 24  2  0  0  0  0
  9  8  1  6  0  0  0
  9 10  1  0  0  0  0
  9 13  1  0  0  0  0
 10 11  1  0  0  0  0
 11 12  1  0  0  0  0
 14 15  1  0  0  0  0
 14 35  1  0  0  0  0
 15 17  1  0  0  0  0
 16 18  1  1  0  0  0
 16 25  1  0  0  0  0
 19 20  1  1  0  0  0
 19 27  1  0  0  0  0
 21 22  1  0  0  0  0
 21 23  1  0  0  0  0
 23 17  1  0  0  0  0
 25 26  1  6  0  0  0
 25 28  1  0  0  0  0
 27  2  1  6  0  0  0
 27 30  1  0  0  0  0
 28 29  1  0  0  0  0
 28 32  1  1  0  0  0
 30 31  1  1  0  0  0
 30 34  1  0  0  0  0
 32 33  2  0  0  0  0
 34 35  1  6  0  0  0
M  END
>  <CHROM.1>
173.89115062,-71.76195118,177.24395466,-82.02586913,72.67558216,-58.53496913
-172.59209829,-166.91253256,178.20295351,-176.80695572,167.61194559,58.65710928
-51.00439639,4.57022565,-8.72081153,30.99497413,-2.20589665,-1.15032611,-1.02524431

>  <Name>
2f4t_lig

>  <RI>
0

>  <Rbt.Current_Directory>
/home/itssahil/PROJECTS/Mol_Feturizer/New_Systems/rnas/2f4t

>  <Rbt.Executable>
rbdock ($Id: //depot/dev/client3/rdock/2013.1/src/exe/rbdock.cxx#4 $)

>  <Rbt.Library>
libRbt.so (2013.1, Build901 2013/11/27)

>  <Rbt.Parameter_File>
/export/apps/rDock/src/rDock_2013.1_src/data/scripts/dock_solv.prm

>  <Rbt.Receptor>
prm/pocket_docking_4.prm

>  <SCORE>
-8.92527

>  <SCORE.INTER>
-2.47715

>  <SCORE.INTER.CONST>
1

>  <SCORE.INTER.POLAR>
-2.18131

>  <SCORE.INTER.ROT>
13

>  <SCORE.INTER.SOLV>
12.1401

>  <SCORE.INTER.VDW>
-10.6938

>  <SCORE.INTER.norm>
-0.0707757

>  <SCORE.INTRA>
-6.47513

>  <SCORE.INTRA.DIHEDRAL>
-17.244

>  <SCORE.INTRA.DIHEDRAL.0>
23.8882

>  <SCORE.INTRA.POLAR>
0

>  <SCORE.INTRA.POLAR.0>
0

>  <SCORE.INTRA.REPUL>
0.0165111

>  <SCORE.INTRA.REPUL.0>
0

>  <SCORE.INTRA.SOLV>
1.75107

>  <SCORE.INTRA.SOLV.lig_0>
-97.6888

>  <SCORE.INTRA.VDW>
1.18876

>  <SCORE.INTRA.VDW.0>
-3.9206

>  <SCORE.INTRA.norm>
-0.185004

>  <SCORE.RESTR>
0.0270015

>  <SCORE.RESTR.CAVITY>
0.0270015

>  <SCORE.RESTR.norm>
0.000771471

>  <SCORE.SYSTEM>
0

>  <SCORE.SYSTEM.CONST>
0

>  <SCORE.SYSTEM.DIHEDRAL>
0

>  <SCORE.SYSTEM.SOLV>
0

>  <SCORE.SYSTEM.norm>
0

>  <SCORE.heavy>
35

>  <SCORE.norm>
-0.255008

>  <RMSD>
8.591

$$$$
2f4t_lig
 OpenBabel11021811433D
libRbt.so/2013.1/901 2013/11/27
 35 36  0  0  0  0  0  0  0  0999 V2000
    6.3192   -4.3719   30.0029 C   0  0  2  0  0  0  0  0  0  0  0  0
    5.5933   -3.7463   28.8943 O   0  0  0  0  0  0  0  0  0  0  0  0
    2.8198   -5.5094   26.0913 C   0  0  2  0  0  0  0  0  0  0  0  0
    2.3162   -6.2246   24.9092 N   0  0  0  0  0  0  0  0  0  0  0  0
    7.0580   -3.2118   30.7364 C   0  0  2  0  0  0  0  0  0  0  0  0
    6.1212   -2.1963   31.1568 N   0  0  0  0  0  0  0  0  0  0  0  0
    3.8247   -4.3902   25.6317 C   0  0  0  0  0  0  0  0  0  0  0  0
    1.0336   -5.2786   24.1483 C   0  0  0  0  0  0  0  0  0  0  0  0
    0.9589   -6.3966   23.1321 C   0  0  1  0  0  0  0  0  0  0  0  0
   -0.0048   -7.4527   23.6779 C   0  0  0  0  0  0  0  0  0  0  0  0
   -0.1127   -8.7456   22.8522 C   0  0  0  0  0  0  0  0  0  0  0  0
   -0.6635   -8.4094   21.5359 N   0  0  0  0  0  0  0  0  0  0  0  0
    0.3931   -5.9447   21.9296 O   0  0  0  0  0  0  0  0  0  0  0  0
    1.5199   -8.0751   28.0489 C   0  0  0  0  0  0  0  0  0  0  0  0
    1.7524   -9.5730   28.1749 C   0  0  0  0  0  0  0  0  0  0  0  0
    8.1555   -2.5979   29.8031 C   0  0  1  0  0  0  0  0  0  0  0  0
    1.3419  -10.1270   29.4837 N   0  0  0  0  0  0  0  0  0  0  0  0
    8.8418   -1.5453   30.4523 O   0  0  0  0  0  0  0  0  0  0  0  0
    4.3972   -3.6104   26.8236 C   0  0  2  0  0  0  0  0  0  0  0  0
    5.3564   -2.6060   26.3751 N   0  0  0  0  0  0  0  0  0  0  0  0
   -0.2570  -10.6695   31.3224 C   0  0  0  0  0  0  0  0  0  0  0  0
    0.3969  -12.0626   31.5936 N   0  0  0  0  0  0  0  0  0  0  0  0
   -0.1014  -10.1804   29.8521 C   0  0  0  0  0  0  0  0  0  0  0  0
    0.5663   -4.3428   24.3605 O   0  0  0  0  0  0  0  0  0  0  0  0
    9.1256   -3.7170   29.4107 C   0  0  2  0  0  0  0  0  0  0  0  0
   10.1572   -3.2239   28.5712 O   0  0  0  0  0  0  0  0  0  0  0  0
    5.0801   -4.5483   27.7874 C   0  0  2  0  0  0  0  0  0  0  0  0
    8.3519   -4.8645   28.6995 C   0  0  2  0  0  0  0  0  0  0  0  0
    7.2996   -5.3810   29.5405 O   0  0  0  0  0  0  0  0  0  0  0  0
    4.0617   -5.6640   28.2804 C   0  0  2  0  0  0  0  0  0  0  0  0
    4.7537   -6.5471   29.2133 O   0  0  0  0  0  0  0  0  0  0  0  0
    9.2453   -5.9865   28.3255 C   0  0  0  0  0  0  0  0  0  0  0  0
    8.8040   -6.5505   27.1797 N   0  0  0  0  0  0  0  0  0  0  0  0
    3.5550   -6.4727   27.0361 C   0  0  1  0  0  0  0  0  0  0  0  0
    2.6807   -7.4784   27.4385 O   0  0  0  0  0  0  0  0  0  0  0  0
  1  2  1  6  0  0  0
  1  5  1  0  0  0  0
  1 29  1  0  0  0  0
  3  4  1  6  0  0  0
  3  7  1  0  0  0  0
  3 34  1  0  0  0  0
  5  6  1  6  0  0  0
  5 16  1  0  0  0  0
  7 19  1  0  0  0  0
  8  4  1  0  0  0  0
  8 24  2  0  0  0  0
  9  8  1  1  0  0  0
  9 10  1  0  0  0  0
  9 13  1  0  0  0  0
 10 11  1  0  0  0  0
 11 12  1  0  0  0  0
 14 15  1  0  0  0  0
 14 35  1  0  0  0  0
 15 17  1  0  0  0  0
 16 18  1  1  0  0  0
 16 25  1  0  0  0  0
 19 20  1  6  0  0  0
 19 27  1  0  0  0  0
 21 22  1  0  0  0  0
 21 23  1  0  0  0  0
 23 17  1  0  0  0  0
 25 26  1  6  0  0  0
 25 28  1  0  0  0  0
 27  2  1  1  0  0  0
 27 30  1  0  0  0  0
 28 29  1  0  0  0  0
 28 32  1  1  0  0  0
 30 31  1  1  0  0  0
 30 34  1  0  0  0  0
 32 33  2  0  0  0  0
 34 35  1  1  0  0  0
M  END
>  <CHROM.1>
163.58437779,-80.06481165,87.30603800,-174.13354191,-63.73184826,136.08510061
-165.63623997,68.37350038,-57.08805691,-174.40248677,-179.77323229,-146.98069894
-60.85187420,4.02339229,-5.92883250,27.50197674,0.09442715,0.66218332,2.11847076

>  <Name>
2f4t_lig

>  <RI>
0

>  <Rbt.Current_Directory>
/home/itssahil/PROJECTS/Mol_Feturizer/New_Systems/rnas/2f4t

>  <Rbt.Executable>
rbdock ($Id: //depot/dev/client3/rdock/2013.1/src/exe/rbdock.cxx#4 $)

>  <Rbt.Library>
libRbt.so (2013.1, Build901 2013/11/27)

>  <Rbt.Parameter_File>
/export/apps/rDock/src/rDock_2013.1_src/data/scripts/dock_solv.prm

>  <Rbt.Receptor>
prm/pocket_docking_7.prm

>  <SCORE>
-14.5848

>  <SCORE.INTER>
-8.8544

>  <SCORE.INTER.CONST>
1

>  <SCORE.INTER.POLAR>
-1.74193

>  <SCORE.INTER.ROT>
13

>  <SCORE.INTER.SOLV>
8.18809

>  <SCORE.INTER.VDW>
-15.0925

>  <SCORE.INTER.norm>
-0.252983

>  <SCORE.INTRA>
-5.73043

>  <SCORE.INTRA.DIHEDRAL>
-13.6544

>  <SCORE.INTRA.DIHEDRAL.0>
23.8882

>  <SCORE.INTRA.POLAR>
0

>  <SCORE.INTRA.POLAR.0>
0

>  <SCORE.INTRA.REPUL>
0

>  <SCORE.INTRA.REPUL.0>
0

>  <SCORE.INTRA.SOLV>
1.4495

>  <SCORE.INTRA.SOLV.lig_0>
-97.6888

>  <SCORE.INTRA.VDW>
0.372033

>  <SCORE.INTRA.VDW.0>
-3.9206

>  <SCORE.INTRA.norm>
-0.163726

>  <SCORE.RESTR>
0

>  <SCORE.RESTR.CAVITY>
0

>  <SCORE.RESTR.norm>
0

>  <SCORE.SYSTEM>
0

>  <SCORE.SYSTEM.CONST>
0

>  <SCORE.SYSTEM.DIHEDRAL>
0

>  <SCORE.SYSTEM.SOLV>
0

>  <SCORE.SYSTEM.norm>
0

>  <SCORE.heavy>
35

>  <SCORE.norm>
-0.416709

>  <RMSD>
8.594

$$$$
2f4t_lig
 OpenBabel11021811433D
libRbt.so/2013.1/901 2013/11/27
 35 36  0  0  0  0  0  0  0  0999 V2000
    4.6844  -11.9093   31.8385 C   0  0  2  0  0  0  0  0  0  0  0  0
    3.9430  -11.3802   30.6906 O   0  0  0  0  0  0  0  0  0  0  0  0
    4.7624   -7.7956   28.4243 C   0  0  2  0  0  0  0  0  0  0  0  0
    4.7396   -6.3832   28.0151 N   0  0  0  0  0  0  0  0  0  0  0  0
    4.2376  -13.3954   31.9854 C   0  0  2  0  0  0  0  0  0  0  0  0
    4.4721  -14.1216   30.7595 N   0  0  0  0  0  0  0  0  0  0  0  0
    3.2867   -8.3032   28.6197 C   0  0  0  0  0  0  0  0  0  0  0  0
    4.1490   -6.2585   26.3554 C   0  0  0  0  0  0  0  0  0  0  0  0
    4.3293   -4.7653   26.5171 C   0  0  1  0  0  0  0  0  0  0  0  0
    5.4097   -4.3211   25.5285 C   0  0  0  0  0  0  0  0  0  0  0  0
    6.8335   -4.8176   25.8309 C   0  0  0  0  0  0  0  0  0  0  0  0
    7.7720   -4.0751   24.9841 N   0  0  0  0  0  0  0  0  0  0  0  0
    3.1635   -4.0763   26.1479 O   0  0  0  0  0  0  0  0  0  0  0  0
    8.1527   -7.4096   29.0445 C   0  0  0  0  0  0  0  0  0  0  0  0
    9.0313   -6.6418   30.0203 C   0  0  0  0  0  0  0  0  0  0  0  0
    2.7258  -13.4653   32.3878 C   0  0  1  0  0  0  0  0  0  0  0  0
   10.4626   -6.6336   29.6465 N   0  0  0  0  0  0  0  0  0  0  0  0
    2.3011  -14.8067   32.5312 O   0  0  0  0  0  0  0  0  0  0  0  0
    3.2407   -9.7733   29.0591 C   0  0  2  0  0  0  0  0  0  0  0  0
    1.8642  -10.2089   29.2731 N   0  0  0  0  0  0  0  0  0  0  0  0
   11.0917   -4.4786   28.5547 C   0  0  0  0  0  0  0  0  0  0  0  0
    9.7810   -3.7210   28.9418 N   0  0  0  0  0  0  0  0  0  0  0  0
   10.8953   -6.0116   28.3630 C   0  0  0  0  0  0  0  0  0  0  0  0
    3.8256   -6.9616   25.6204 O   0  0  0  0  0  0  0  0  0  0  0  0
    2.5478  -12.6969   33.7014 C   0  0  2  0  0  0  0  0  0  0  0  0
    1.1965  -12.7315   34.1311 O   0  0  0  0  0  0  0  0  0  0  0  0
    4.0225   -9.9664   30.3345 C   0  0  2  0  0  0  0  0  0  0  0  0
    3.0209  -11.2253   33.5234 C   0  0  2  0  0  0  0  0  0  0  0  0
    4.3957  -11.1703   33.0891 O   0  0  0  0  0  0  0  0  0  0  0  0
    5.5234   -9.4844   30.1352 C   0  0  2  0  0  0  0  0  0  0  0  0
    6.2490   -9.6913   31.3841 O   0  0  0  0  0  0  0  0  0  0  0  0
    2.8952  -10.4470   34.7785 C   0  0  0  0  0  0  0  0  0  0  0  0
    4.1248  -10.2097   35.2859 N   0  0  0  0  0  0  0  0  0  0  0  0
    5.5203   -7.9642   29.7503 C   0  0  1  0  0  0  0  0  0  0  0  0
    6.8248   -7.5036   29.5960 O   0  0  0  0  0  0  0  0  0  0  0  0
  1  2  1  6  0  0  0
  1  5  1  0  0  0  0
  1 29  1  0  0  0  0
  3  4  1  1  0  0  0
  3  7  1  0  0  0  0
  3 34  1  0  0  0  0
  5  6  1  6  0  0  0
  5 16  1  0  0  0  0
  7 19  1  0  0  0  0
  8  4  1  0  0  0  0
  8 24  2  0  0  0  0
  9  8  1  6  0  0  0
  9 10  1  0  0  0  0
  9 13  1  0  0  0  0
 10 11  1  0  0  0  0
 11 12  1  0  0  0  0
 14 15  1  0  0  0  0
 14 35  1  0  0  0  0
 15 17  1  0  0  0  0
 16 18  1  1  0  0  0
 16 25  1  0  0  0  0
 19 20  1  1  0  0  0
 19 27  1  0  0  0  0
 21 22  1  0  0  0  0
 21 23  1  0  0  0  0
 23 17  1  0  0  0  0
 25 26  1  6  0  0  0
 25 28  1  0  0  0  0
 27  2  1  6  0  0  0
 27 30  1  0  0  0  0
 28 29  1  0  0  0  0
 28 32  1  1  0  0  0
 30 31  1  1  0  0  0
 30 34  1  0  0  0  0
 32 33  2  0  0  0  0
 34 35  1  6  0  0  0
M  END
>  <CHROM.1>
174.30572354,-71.34192762,115.72606894,-68.29280364,-167.62640242,172.39715841
-164.28088683,61.85778011,-62.92116127,84.73917863,175.64724573,108.35162696
-57.52462791,5.18070914,-8.71600451,29.85565467,-2.03982105,-0.35983710,-0.83250382

>  <Name>
2f4t_lig

>  <RI>
0

>  <Rbt.Current_Directory>
/home/itssahil/PROJECTS/Mol_Feturizer/New_Systems/rnas/2f4t

>  <Rbt.Executable>
rbdock ($Id: //depot/dev/client3/rdock/2013.1/src/exe/rbdock.cxx#4 $)

>  <Rbt.Library>
libRbt.so (2013.1, Build901 2013/11/27)

>  <Rbt.Parameter_File>
/export/apps/rDock/src/rDock_2013.1_src/data/scripts/dock_solv.prm

>  <Rbt.Receptor>
prm/pocket_docking_6.prm

>  <SCORE>
-17.1398

>  <SCORE.INTER>
-10.3427

>  <SCORE.INTER.CONST>
1

>  <SCORE.INTER.POLAR>
-2.11965

>  <SCORE.INTER.ROT>
13

>  <SCORE.INTER.SOLV>
12.0161

>  <SCORE.INTER.VDW>
-16.1017

>  <SCORE.INTER.norm>
-0.295505

>  <SCORE.INTRA>
-6.79715

>  <SCORE.INTRA.DIHEDRAL>
-17.4971

>  <SCORE.INTRA.DIHEDRAL.0>
23.8882

>  <SCORE.INTRA.POLAR>
0

>  <SCORE.INTRA.POLAR.0>
0

>  <SCORE.INTRA.REPUL>
0

>  <SCORE.INTRA.REPUL.0>
0

>  <SCORE.INTRA.SOLV>
1.1543

>  <SCORE.INTRA.SOLV.lig_0>
-97.6888

>  <SCORE.INTRA.VDW>
1.37424

>  <SCORE.INTRA.VDW.0>
-3.9206

>  <SCORE.INTRA.norm>
-0.194204

>  <SCORE.RESTR>
0

>  <SCORE.RESTR.CAVITY>
0

>  <SCORE.RESTR.norm>
0

>  <SCORE.SYSTEM>
0

>  <SCORE.SYSTEM.CONST>
0

>  <SCORE.SYSTEM.DIHEDRAL>
0

>  <SCORE.SYSTEM.SOLV>
0

>  <SCORE.SYSTEM.norm>
0

>  <SCORE.heavy>
35

>  <SCORE.norm>
-0.489709

>  <RMSD>
8.595

$$$$
2f4t_lig
 OpenBabel11021811433D
libRbt.so/2013.1/901 2013/11/27
 35 36  0  0  0  0  0  0  0  0999 V2000
    2.8951  -11.5738   34.0110 C   0  0  2  0  0  0  0  0  0  0  0  0
    3.9195  -10.5322   34.1248 O   0  0  0  0  0  0  0  0  0  0  0  0
    2.8793   -7.8525   30.9008 C   0  0  2  0  0  0  0  0  0  0  0  0
    2.7163   -6.6065   30.1369 N   0  0  0  0  0  0  0  0  0  0  0  0
    3.5770  -12.8946   34.4803 C   0  0  2  0  0  0  0  0  0  0  0  0
    4.1082  -12.7475   35.8151 N   0  0  0  0  0  0  0  0  0  0  0  0
    2.2528   -7.6697   32.3317 C   0  0  0  0  0  0  0  0  0  0  0  0
    3.4417   -5.2668   31.0300 C   0  0  0  0  0  0  0  0  0  0  0  0
    3.0093   -4.3993   29.8686 C   0  0  1  0  0  0  0  0  0  0  0  0
    2.0593   -3.3326   30.4178 C   0  0  0  0  0  0  0  0  0  0  0  0
    0.6901   -3.8436   30.8967 C   0  0  0  0  0  0  0  0  0  0  0  0
   -0.0349   -4.3776   29.7398 N   0  0  0  0  0  0  0  0  0  0  0  0
    4.1014   -3.7009   29.3302 O   0  0  0  0  0  0  0  0  0  0  0  0
    5.3287   -7.9984   28.4547 C   0  0  0  0  0  0  0  0  0  0  0  0
    6.2169   -6.7652   28.5159 C   0  0  0  0  0  0  0  0  0  0  0  0
    4.7091  -13.3012   33.4775 C   0  0  1  0  0  0  0  0  0  0  0  0
    6.7412   -6.3482   27.1968 N   0  0  0  0  0  0  0  0  0  0  0  0
    5.3382  -14.5012   33.8830 O   0  0  0  0  0  0  0  0  0  0  0  0
    2.3998   -8.9359   33.1870 C   0  0  2  0  0  0  0  0  0  0  0  0
    1.8480   -8.7283   34.5221 N   0  0  0  0  0  0  0  0  0  0  0  0
    8.1114   -4.9747   25.6261 C   0  0  0  0  0  0  0  0  0  0  0  0
    6.9923   -4.9106   24.5373 N   0  0  0  0  0  0  0  0  0  0  0  0
    7.5652   -5.1120   27.0780 C   0  0  0  0  0  0  0  0  0  0  0  0
    3.9453   -5.1762   31.9666 O   0  0  0  0  0  0  0  0  0  0  0  0
    4.0796  -13.4611   32.0897 C   0  0  2  0  0  0  0  0  0  0  0  0
    5.0530  -13.8429   31.1313 O   0  0  0  0  0  0  0  0  0  0  0  0
    3.8525   -9.3232   33.3089 C   0  0  2  0  0  0  0  0  0  0  0  0
    3.3926  -12.1319   31.6627 C   0  0  2  0  0  0  0  0  0  0  0  0
    2.3962  -11.7291   32.6252 O   0  0  0  0  0  0  0  0  0  0  0  0
    4.4844   -9.5402   31.8672 C   0  0  2  0  0  0  0  0  0  0  0  0
    5.8848   -9.9186   32.0243 O   0  0  0  0  0  0  0  0  0  0  0  0
    2.7422  -12.2457   30.3356 C   0  0  0  0  0  0  0  0  0  0  0  0
    2.8397  -11.0660   29.6840 N   0  0  0  0  0  0  0  0  0  0  0  0
    4.3673   -8.2030   31.0564 C   0  0  1  0  0  0  0  0  0  0  0  0
    4.9386   -8.3523   29.7958 O   0  0  0  0  0  0  0  0  0  0  0  0
  1  2  1  6  0  0  0
  1  5  1  0  0  0  0
  1 29  1  0  0  0  0
  3  4  1  6  0  0  0
  3  7  1  0  0  0  0
  3 34  1  0  0  0  0
  5  6  1  1  0  0  0
  5 16  1  0  0  0  0
  7 19  1  0  0  0  0
  8  4  1  0  0  0  0
  8 24  2  0  0  0  0
  9  8  1  1  0  0  0
  9 10  1  0  0  0  0
  9 13  1  0  0  0  0
 10 11  1  0  0  0  0
 11 12  1  0  0  0  0
 14 15  1  0  0  0  0
 14 35  1  0  0  0  0
 15 17  1  0  0  0  0
 16 18  1  1  0  0  0
 16 25  1  0  0  0  0
 19 20  1  1  0  0  0
 19 27  1  0  0  0  0
 21 22  1  0  0  0  0
 21 23  1  0  0  0  0
 23 17  1  0  0  0  0
 25 26  1  6  0  0  0
 25 28  1  0  0  0  0
 27  2  1  1  0  0  0
 27 30  1  0  0  0  0
 28 29  1  0  0  0  0
 28 32  1  6  0  0  0
 30 31  1  1  0  0  0
 30 34  1  0  0  0  0
 32 33  2  0  0  0  0
 34 35  1  6  0  0  0
M  END
>  <CHROM.1>
155.23930392,56.18661613,120.07055501,-69.16781781,-64.61474271,176.91182728
59.34789531,176.56854975,58.96624492,174.23054459,37.17626825,-145.62219852
56.52227574,3.99523612,-8.61780047,31.05859937,1.70405633,-0.76529966,2.64839770

>  <Name>
2f4t_lig

>  <RI>
0

>  <Rbt.Current_Directory>
/home/itssahil/PROJECTS/Mol_Feturizer/New_Systems/rnas/2f4t

>  <Rbt.Executable>
rbdock ($Id: //depot/dev/client3/rdock/2013.1/src/exe/rbdock.cxx#4 $)

>  <Rbt.Library>
libRbt.so (2013.1, Build901 2013/11/27)

>  <Rbt.Parameter_File>
/export/apps/rDock/src/rDock_2013.1_src/data/scripts/dock_solv.prm

>  <Rbt.Receptor>
prm/pocket_docking_5.prm

>  <SCORE>
-10.7745

>  <SCORE.INTER>
-5.54155

>  <SCORE.INTER.CONST>
1

>  <SCORE.INTER.POLAR>
-3.45702

>  <SCORE.INTER.ROT>
13

>  <SCORE.INTER.SOLV>
14.8807

>  <SCORE.INTER.VDW>
-9.39787

>  <SCORE.INTER.norm>
-0.15833

>  <SCORE.INTRA>
-5.23916

>  <SCORE.INTRA.DIHEDRAL>
-14.7345

>  <SCORE.INTRA.DIHEDRAL.0>
23.8882

>  <SCORE.INTRA.POLAR>
0

>  <SCORE.INTRA.POLAR.0>
0

>  <SCORE.INTRA.REPUL>
0.0304725

>  <SCORE.INTRA.REPUL.0>
0

>  <SCORE.INTRA.SOLV>
4.33268

>  <SCORE.INTRA.SOLV.lig_0>
-97.6888

>  <SCORE.INTRA.VDW>
-0.190619

>  <SCORE.INTRA.VDW.0>
-3.9206

>  <SCORE.INTRA.norm>
-0.14969

>  <SCORE.RESTR>
0.00618989

>  <SCORE.RESTR.CAVITY>
0.00618989

>  <SCORE.RESTR.norm>
0.000176854

>  <SCORE.SYSTEM>
0

>  <SCORE.SYSTEM.CONST>
0

>  <SCORE.SYSTEM.DIHEDRAL>
0

>  <SCORE.SYSTEM.SOLV>
0

>  <SCORE.SYSTEM.norm>
0

>  <SCORE.heavy>
35

>  <SCORE.norm>
-0.307843

>  <RMSD>
8.597

$$$$
2f4t_lig
 OpenBabel11021811433D
libRbt.so/2013.1/901 2013/11/27
 35 36  0  0  0  0  0  0  0  0999 V2000
    2.7399  -13.4312   31.9607 C   0  0  2  0  0  0  0  0  0  0  0  0
    3.7551  -12.6164   31.2877 O   0  0  0  0  0  0  0  0  0  0  0  0
    3.7436   -9.7490   28.0574 C   0  0  2  0  0  0  0  0  0  0  0  0
    3.2902   -8.6660   27.1718 N   0  0  0  0  0  0  0  0  0  0  0  0
    2.1559  -12.5335   33.0933 C   0  0  2  0  0  0  0  0  0  0  0  0
    1.6411  -11.2984   32.5502 N   0  0  0  0  0  0  0  0  0  0  0  0
    2.6099  -10.8328   28.1742 C   0  0  0  0  0  0  0  0  0  0  0  0
    1.7215   -8.0703   27.7223 C   0  0  0  0  0  0  0  0  0  0  0  0
    1.8033   -7.1010   26.5639 C   0  0  1  0  0  0  0  0  0  0  0  0
    0.8857   -7.6257   25.4573 C   0  0  0  0  0  0  0  0  0  0  0  0
    0.7053   -6.6961   24.2455 C   0  0  0  0  0  0  0  0  0  0  0  0
    2.0205   -6.4626   23.6416 N   0  0  0  0  0  0  0  0  0  0  0  0
    1.2918   -5.8444   26.9240 O   0  0  0  0  0  0  0  0  0  0  0  0
    6.3626   -7.6833   29.1828 C   0  0  0  0  0  0  0  0  0  0  0  0
    7.2273   -8.0713   30.3724 C   0  0  0  0  0  0  0  0  0  0  0  0
    3.2538  -12.2467   34.1725 C   0  0  1  0  0  0  0  0  0  0  0  0
    6.7741   -7.4801   31.6505 N   0  0  0  0  0  0  0  0  0  0  0  0
    2.7423  -11.4365   35.2128 O   0  0  0  0  0  0  0  0  0  0  0  0
    3.0172  -11.9901   29.0968 C   0  0  2  0  0  0  0  0  0  0  0  0
    1.9349  -12.9613   29.2212 N   0  0  0  0  0  0  0  0  0  0  0  0
    7.2506   -6.4284   33.8637 C   0  0  0  0  0  0  0  0  0  0  0  0
    7.2680   -4.9921   33.2485 N   0  0  0  0  0  0  0  0  0  0  0  0
    7.6490   -7.5464   32.8553 C   0  0  0  0  0  0  0  0  0  0  0  0
    1.0626   -8.3240   28.5227 O   0  0  0  0  0  0  0  0  0  0  0  0
    3.7423  -13.5908   34.7222 C   0  0  2  0  0  0  0  0  0  0  0  0
    4.7342  -13.4020   35.7184 O   0  0  0  0  0  0  0  0  0  0  0  0
    3.3730  -11.4705   30.4674 C   0  0  2  0  0  0  0  0  0  0  0  0
    4.2998  -14.4668   33.5633 C   0  0  2  0  0  0  0  0  0  0  0  0
    3.3026  -14.6722   32.5411 O   0  0  0  0  0  0  0  0  0  0  0  0
    4.5400  -10.3974   30.3604 C   0  0  2  0  0  0  0  0  0  0  0  0
    4.8609   -9.9227   31.7023 O   0  0  0  0  0  0  0  0  0  0  0  0
    4.7591  -15.7922   34.0420 C   0  0  0  0  0  0  0  0  0  0  0  0
    6.1091  -15.8088   34.0942 N   0  0  0  0  0  0  0  0  0  0  0  0
    4.0532   -9.2079   29.4619 C   0  0  1  0  0  0  0  0  0  0  0  0
    5.0451   -8.2353   29.3713 O   0  0  0  0  0  0  0  0  0  0  0  0
  1  2  1  1  0  0  0
  1  5  1  0  0  0  0
  1 29  1  0  0  0  0
  3  4  1  6  0  0  0
  3  7  1  0  0  0  0
  3 34  1  0  0  0  0
  5  6  1  6  0  0  0
  5 16  1  0  0  0  0
  7 19  1  0  0  0  0
  8  4  1  0  0  0  0
  8 24  2  0  0  0  0
  9  8  1  1  0  0  0
  9 10  1  0  0  0  0
  9 13  1  0  0  0  0
 10 11  1  0  0  0  0
 11 12  1  0  0  0  0
 14 15  1  0  0  0  0
 14 35  1  0  0  0  0
 15 17  1  0  0  0  0
 16 18  1  1  0  0  0
 16 25  1  0  0  0  0
 19 20  1  1  0  0  0
 19 27  1  0  0  0  0
 21 22  1  0  0  0  0
 21 23  1  0  0  0  0
 23 17  1  0  0  0  0
 25 26  1  1  0  0  0
 25 28  1  0  0  0  0
 27  2  1  1  0  0  0
 27 30  1  0  0  0  0
 28 29  1  0  0  0  0
 28 32  1  1  0  0  0
 30 31  1  1  0  0  0
 30 34  1  0  0  0  0
 32 33  2  0  0  0  0
 34 35  1  6  0  0  0
M  END
>  <CHROM.1>
-70.03661566,52.51344901,102.93573387,173.43957225,59.71622240,-64.94476144
-70.05795046,-168.37770697,-55.30150689,157.88643358,-83.50759840,-104.00052023
-72.37748328,3.76609185,-10.18176752,30.60061337,1.28353461,0.81244182,2.47828813

>  <Name>
2f4t_lig

>  <RI>
0

>  <Rbt.Current_Directory>
/home/itssahil/PROJECTS/Mol_Feturizer/New_Systems/rnas/2f4t

>  <Rbt.Executable>
rbdock ($Id: //depot/dev/client3/rdock/2013.1/src/exe/rbdock.cxx#4 $)

>  <Rbt.Library>
libRbt.so (2013.1, Build901 2013/11/27)

>  <Rbt.Parameter_File>
/export/apps/rDock/src/rDock_2013.1_src/data/scripts/dock_solv.prm

>  <Rbt.Receptor>
prm/pocket_docking_4.prm

>  <SCORE>
-13.7484

>  <SCORE.INTER>
-9.83616

>  <SCORE.INTER.CONST>
1

>  <SCORE.INTER.POLAR>
-1.16785

>  <SCORE.INTER.ROT>
13

>  <SCORE.INTER.SOLV>
14.7163

>  <SCORE.INTER.VDW>
-19.8367

>  <SCORE.INTER.norm>
-0.281033

>  <SCORE.INTRA>
-3.91227

>  <SCORE.INTRA.DIHEDRAL>
-15.8682

>  <SCORE.INTRA.DIHEDRAL.0>
23.8882

>  <SCORE.INTRA.POLAR>
0

>  <SCORE.INTRA.POLAR.0>
0

>  <SCORE.INTRA.REPUL>
0

>  <SCORE.INTRA.REPUL.0>
0

>  <SCORE.INTRA.SOLV>
7.22305

>  <SCORE.INTRA.SOLV.lig_0>
-97.6888

>  <SCORE.INTRA.VDW>
0.410312

>  <SCORE.INTRA.VDW.0>
-3.9206

>  <SCORE.INTRA.norm>
-0.111779

>  <SCORE.RESTR>
0

>  <SCORE.RESTR.CAVITY>
0

>  <SCORE.RESTR.norm>
0

>  <SCORE.SYSTEM>
0

>  <SCORE.SYSTEM.CONST>
0

>  <SCORE.SYSTEM.DIHEDRAL>
0

>  <SCORE.SYSTEM.SOLV>
0

>  <SCORE.SYSTEM.norm>
0

>  <SCORE.heavy>
35

>  <SCORE.norm>
-0.392812

>  <RMSD>
8.599

$$$$
2f4t_lig
 OpenBabel11021811433D
libRbt.so/2013.1/901 2013/11/27
 35 36  0  0  0  0  0  0  0  0999 V2000
    4.7967  -12.0650   31.9963 C   0  0  2  0  0  0  0  0  0  0  0  0
    3.8135  -12.0155   30.9108 O   0  0  0  0  0  0  0  0  0  0  0  0
    3.2611   -8.7479   28.1405 C   0  0  2  0  0  0  0  0  0  0  0  0
    2.7200   -7.5172   27.5446 N   0  0  0  0  0  0  0  0  0  0  0  0
    4.8213  -13.5462   32.4811 C   0  0  2  0  0  0  0  0  0  0  0  0
    5.1232  -14.4363   31.3848 N   0  0  0  0  0  0  0  0  0  0  0  0
    2.0764   -9.7266   28.4756 C   0  0  0  0  0  0  0  0  0  0  0  0
    3.9394   -6.7802   26.5012 C   0  0  0  0  0  0  0  0  0  0  0  0
    2.9031   -5.7137   26.2241 C   0  0  1  0  0  0  0  0  0  0  0  0
    3.3404   -4.4436   26.9573 C   0  0  0  0  0  0  0  0  0  0  0  0
    2.3441   -3.2729   26.9129 C   0  0  0  0  0  0  0  0  0  0  0  0
    2.8495   -2.2022   27.7772 N   0  0  0  0  0  0  0  0  0  0  0  0
    2.8777   -5.3811   24.8606 O   0  0  0  0  0  0  0  0  0  0  0  0
    6.3149   -7.0965   28.6086 C   0  0  0  0  0  0  0  0  0  0  0  0
    7.4034   -8.0922   28.9792 C   0  0  0  0  0  0  0  0  0  0  0  0
    3.4485  -13.9211   33.1346 C   0  0  1  0  0  0  0  0  0  0  0  0
    7.5230   -8.3224   30.4357 N   0  0  0  0  0  0  0  0  0  0  0  0
    3.4515  -15.2615   33.5861 O   0  0  0  0  0  0  0  0  0  0  0  0
    2.5746  -11.0314   29.1126 C   0  0  2  0  0  0  0  0  0  0  0  0
    1.4555  -11.9048   29.4514 N   0  0  0  0  0  0  0  0  0  0  0  0
    7.5382   -7.3247   32.7239 C   0  0  0  0  0  0  0  0  0  0  0  0
    8.1326   -6.2563   33.6971 N   0  0  0  0  0  0  0  0  0  0  0  0
    8.1734   -7.2989   31.3022 C   0  0  0  0  0  0  0  0  0  0  0  0
    4.9417   -7.0274   26.2299 O   0  0  0  0  0  0  0  0  0  0  0  0
    3.1975  -12.9573   34.2989 C   0  0  2  0  0  0  0  0  0  0  0  0
    1.9698  -13.2509   34.9458 O   0  0  0  0  0  0  0  0  0  0  0  0
    3.3667  -10.7382   30.3623 C   0  0  2  0  0  0  0  0  0  0  0  0
    3.1988  -11.4896   33.7821 C   0  0  2  0  0  0  0  0  0  0  0  0
    4.4423  -11.1717   33.1232 O   0  0  0  0  0  0  0  0  0  0  0  0
    4.5844   -9.7745   30.0255 C   0  0  2  0  0  0  0  0  0  0  0  0
    5.3295   -9.5184   31.2537 O   0  0  0  0  0  0  0  0  0  0  0  0
    2.9883  -10.5156   34.8793 C   0  0  0  0  0  0  0  0  0  0  0  0
    4.1787  -10.0015   35.2593 N   0  0  0  0  0  0  0  0  0  0  0  0
    4.0217   -8.4338   29.4382 C   0  0  1  0  0  0  0  0  0  0  0  0
    5.0645   -7.5551   29.1585 O   0  0  0  0  0  0  0  0  0  0  0  0
  1  2  1  6  0  0  0
  1  5  1  0  0  0  0
  1 29  1  0  0  0  0
  3  4  1  1  0  0  0
  3  7  1  0  0  0  0
  3 34  1  0  0  0  0
  5  6  1  6  0  0  0
  5 16  1  0  0  0  0
  7 19  1  0  0  0  0
  8  4  1  0  0  0  0
  8 24  2  0  0  0  0
  9  8  1  6  0  0  0
  9 10  1  0  0  0  0
  9 13  1  0  0  0  0
 10 11  1  0  0  0  0
 11 12  1  0  0  0  0
 14 15  1  0  0  0  0
 14 35  1  0  0  0  0
 15 17  1  0  0  0  0
 16 18  1  1  0  0  0
 16 25  1  0  0  0  0
 19 20  1  1  0  0  0
 19 27  1  0  0  0  0
 21 22  1  0  0  0  0
 21 23  1  0  0  0  0
 23 17  1  0  0  0  0
 25 26  1  6  0  0  0
 25 28  1  0  0  0  0
 27  2  1  6  0  0  0
 27 30  1  0  0  0  0
 28 29  1  0  0  0  0
 28 32  1  1  0  0  0
 30 31  1  1  0  0  0
 30 34  1  0  0  0  0
 32 33  2  0  0  0  0
 34 35  1  6  0  0  0
M  END
>  <CHROM.1>
169.87165065,-153.37848350,107.23840323,-174.31752029,173.92263618,-56.22978483
-51.00433770,-75.72216560,-178.50274058,149.00248874,169.50483125,99.32425640
-67.66507325,4.24214097,-9.28203019,30.39947585,-1.58514995,-0.73587762,-0.71377274

>  <Name>
2f4t_lig

>  <RI>
0

>  <Rbt.Current_Directory>
/home/itssahil/PROJECTS/Mol_Feturizer/New_Systems/rnas/2f4t

>  <Rbt.Executable>
rbdock ($Id: //depot/dev/client3/rdock/2013.1/src/exe/rbdock.cxx#4 $)

>  <Rbt.Library>
libRbt.so (2013.1, Build901 2013/11/27)

>  <Rbt.Parameter_File>
/export/apps/rDock/src/rDock_2013.1_src/data/scripts/dock_solv.prm

>  <Rbt.Receptor>
prm/pocket_docking_5.prm

>  <SCORE>
-20.7357

>  <SCORE.INTER>
-13.8078

>  <SCORE.INTER.CONST>
1

>  <SCORE.INTER.POLAR>
-2.81033

>  <SCORE.INTER.ROT>
13

>  <SCORE.INTER.SOLV>
18.232

>  <SCORE.INTER.VDW>
-18.1814

>  <SCORE.INTER.norm>
-0.394508

>  <SCORE.INTRA>
-6.92796

>  <SCORE.INTRA.DIHEDRAL>
-17.1418

>  <SCORE.INTRA.DIHEDRAL.0>
23.8882

>  <SCORE.INTRA.POLAR>
0

>  <SCORE.INTRA.POLAR.0>
0

>  <SCORE.INTRA.REPUL>
0

>  <SCORE.INTRA.REPUL.0>
0

>  <SCORE.INTRA.SOLV>
1.1481

>  <SCORE.INTRA.SOLV.lig_0>
-97.6888

>  <SCORE.INTRA.VDW>
1.0689

>  <SCORE.INTRA.VDW.0>
-3.9206

>  <SCORE.INTRA.norm>
-0.197942

>  <SCORE.RESTR>
0

>  <SCORE.RESTR.CAVITY>
0

>  <SCORE.RESTR.norm>
0

>  <SCORE.SYSTEM>
0

>  <SCORE.SYSTEM.CONST>
0

>  <SCORE.SYSTEM.DIHEDRAL>
0

>  <SCORE.SYSTEM.SOLV>
0

>  <SCORE.SYSTEM.norm>
0

>  <SCORE.heavy>
35

>  <SCORE.norm>
-0.59245

>  <RMSD>
8.605

$$$$
2f4t_lig
 OpenBabel11021811433D
libRbt.so/2013.1/901 2013/11/27
 35 36  0  0  0  0  0  0  0  0999 V2000
    1.4726  -10.3379   28.7492 C   0  0  2  0  0  0  0  0  0  0  0  0
    2.4253   -9.2682   29.0582 O   0  0  0  0  0  0  0  0  0  0  0  0
    4.6588   -6.3562   26.7804 C   0  0  2  0  0  0  0  0  0  0  0  0
    5.5979   -5.7943   25.7980 N   0  0  0  0  0  0  0  0  0  0  0  0
    0.3107  -10.1829   29.7765 C   0  0  2  0  0  0  0  0  0  0  0  0
   -0.2610   -8.8588   29.7034 N   0  0  0  0  0  0  0  0  0  0  0  0
    5.4002   -7.4399   27.6462 C   0  0  0  0  0  0  0  0  0  0  0  0
    6.3569   -4.3469   26.4669 C   0  0  0  0  0  0  0  0  0  0  0  0
    7.1108   -4.2675   25.1579 C   0  0  1  0  0  0  0  0  0  0  0  0
    7.7458   -2.8776   25.0745 C   0  0  0  0  0  0  0  0  0  0  0  0
    6.7629   -1.7047   24.9215 C   0  0  0  0  0  0  0  0  0  0  0  0
    7.5171   -0.4521   25.0276 N   0  0  0  0  0  0  0  0  0  0  0  0
    8.1776   -5.1795   25.1372 O   0  0  0  0  0  0  0  0  0  0  0  0
    2.2793   -4.7925   24.9104 C   0  0  0  0  0  0  0  0  0  0  0  0
    1.6831   -4.1289   26.1423 C   0  0  0  0  0  0  0  0  0  0  0  0
    0.8289  -10.4812   31.2239 C   0  0  1  0  0  0  0  0  0  0  0  0
    0.4235   -4.7555   26.6001 N   0  0  0  0  0  0  0  0  0  0  0  0
   -0.2124  -10.3506   32.1720 O   0  0  0  0  0  0  0  0  0  0  0  0
    4.4690   -8.0752   28.6880 C   0  0  2  0  0  0  0  0  0  0  0  0
    5.1679   -9.1049   29.4506 N   0  0  0  0  0  0  0  0  0  0  0  0
    0.1159   -4.6887   29.0765 C   0  0  0  0  0  0  0  0  0  0  0  0
   -0.6760   -4.1165   30.2960 N   0  0  0  0  0  0  0  0  0  0  0  0
   -0.3623   -4.1325   27.7027 C   0  0  0  0  0  0  0  0  0  0  0  0
    6.2761   -3.8169   27.3899 O   0  0  0  0  0  0  0  0  0  0  0  0
    1.4018  -11.9022   31.2400 C   0  0  2  0  0  0  0  0  0  0  0  0
    1.8798  -12.2426   32.5313 O   0  0  0  0  0  0  0  0  0  0  0  0
    3.2678   -8.6907   28.0148 C   0  0  2  0  0  0  0  0  0  0  0  0
    2.5442  -12.0254   30.1907 C   0  0  2  0  0  0  0  0  0  0  0  0
    2.0751  -11.6855   28.8693 O   0  0  0  0  0  0  0  0  0  0  0  0
    2.4955   -7.5940   27.1629 C   0  0  2  0  0  0  0  0  0  0  0  0
    1.3393   -8.2225   26.5327 O   0  0  0  0  0  0  0  0  0  0  0  0
    3.1122  -13.3938   30.1480 C   0  0  0  0  0  0  0  0  0  0  0  0
    4.4251  -13.3265   29.8359 N   0  0  0  0  0  0  0  0  0  0  0  0
    3.4678   -7.0218   26.0736 C   0  0  1  0  0  0  0  0  0  0  0  0
    2.8112   -6.0765   25.2906 O   0  0  0  0  0  0  0  0  0  0  0  0
  1  2  1  1  0  0  0
  1  5  1  0  0  0  0
  1 29  1  0  0  0  0
  3  4  1  6  0  0  0
  3  7  1  0  0  0  0
  3 34  1  0  0  0  0
  5  6  1  1  0  0  0
  5 16  1  0  0  0  0
  7 19  1  0  0  0  0
  8  4  1  0  0  0  0
  8 24  2  0  0  0  0
  9  8  1  1  0  0  0
  9 10  1  0  0  0  0
  9 13  1  0  0  0  0
 10 11  1  0  0  0  0
 11 12  1  0  0  0  0
 14 15  1  0  0  0  0
 14 35  1  0  0  0  0
 15 17  1  0  0  0  0
 16 18  1  1  0  0  0
 16 25  1  0  0  0  0
 19 20  1  6  0  0  0
 19 27  1  0  0  0  0
 21 22  1  0  0  0  0
 21 23  1  0  0  0  0
 23 17  1  0  0  0  0
 25 26  1  1  0  0  0
 25 28  1  0  0  0  0
 27  2  1  1  0  0  0
 27 30  1  0  0  0  0
 28 29  1  0  0  0  0
 28 32  1  6  0  0  0
 30 31  1  6  0  0  0
 30 34  1  0  0  0  0
 32 33  2  0  0  0  0
 34 35  1  1  0  0  0
M  END
>  <CHROM.1>
-150.92926941,-92.78528173,166.14596962,-67.92709053,172.95750522,-71.71418810
-39.98556616,-173.34414920,-178.63857471,-89.42552977,-157.29144288,-147.88147709
-36.09727112,3.19295400,-7.36200077,27.97038659,-2.02945385,0.29425891,-0.42580695

>  <Name>
2f4t_lig

>  <RI>
0

>  <Rbt.Current_Directory>
/home/itssahil/PROJECTS/Mol_Feturizer/New_Systems/rnas/2f4t

>  <Rbt.Executable>
rbdock ($Id: //depot/dev/client3/rdock/2013.1/src/exe/rbdock.cxx#4 $)

>  <Rbt.Library>
libRbt.so (2013.1, Build901 2013/11/27)

>  <Rbt.Parameter_File>
/export/apps/rDock/src/rDock_2013.1_src/data/scripts/dock_solv.prm

>  <Rbt.Receptor>
prm/pocket_docking_7.prm

>  <SCORE>
-17.8809

>  <SCORE.INTER>
-12.7976

>  <SCORE.INTER.CONST>
1

>  <SCORE.INTER.POLAR>
-1.84795

>  <SCORE.INTER.ROT>
13

>  <SCORE.INTER.SOLV>
15.7801

>  <SCORE.INTER.VDW>
-19.8986

>  <SCORE.INTER.norm>
-0.365645

>  <SCORE.INTRA>
-5.08329

>  <SCORE.INTRA.DIHEDRAL>
-9.3654

>  <SCORE.INTRA.DIHEDRAL.0>
23.8882

>  <SCORE.INTRA.POLAR>
0

>  <SCORE.INTRA.POLAR.0>
0

>  <SCORE.INTRA.REPUL>
0

>  <SCORE.INTRA.REPUL.0>
0

>  <SCORE.INTRA.SOLV>
1.33007

>  <SCORE.INTRA.SOLV.lig_0>
-97.6888

>  <SCORE.INTRA.VDW>
-1.06562

>  <SCORE.INTRA.VDW.0>
-3.9206

>  <SCORE.INTRA.norm>
-0.145237

>  <SCORE.RESTR>
0

>  <SCORE.RESTR.CAVITY>
0

>  <SCORE.RESTR.norm>
0

>  <SCORE.SYSTEM>
0

>  <SCORE.SYSTEM.CONST>
0

>  <SCORE.SYSTEM.DIHEDRAL>
0

>  <SCORE.SYSTEM.SOLV>
0

>  <SCORE.SYSTEM.norm>
0

>  <SCORE.heavy>
35

>  <SCORE.norm>
-0.510882

>  <RMSD>
8.616

$$$$
2f4t_lig
 OpenBabel11021811433D
libRbt.so/2013.1/901 2013/11/27
 35 36  0  0  0  0  0  0  0  0999 V2000
    1.2538  -12.3451   30.5479 C   0  0  2  0  0  0  0  0  0  0  0  0
    2.1059  -11.4950   31.3836 O   0  0  0  0  0  0  0  0  0  0  0  0
    4.2723   -7.9278   30.2705 C   0  0  2  0  0  0  0  0  0  0  0  0
    5.3536   -7.0677   29.7668 N   0  0  0  0  0  0  0  0  0  0  0  0
    0.3893  -13.1844   31.5368 C   0  0  2  0  0  0  0  0  0  0  0  0
   -0.3495  -12.3204   32.4274 N   0  0  0  0  0  0  0  0  0  0  0  0
    4.8555   -8.9211   31.3414 C   0  0  0  0  0  0  0  0  0  0  0  0
    6.5329   -8.0509   28.8943 C   0  0  0  0  0  0  0  0  0  0  0  0
    7.2758   -6.7553   28.6545 C   0  0  1  0  0  0  0  0  0  0  0  0
    8.6761   -6.9087   29.2524 C   0  0  0  0  0  0  0  0  0  0  0  0
    8.7435   -6.9493   30.7883 C   0  0  0  0  0  0  0  0  0  0  0  0
    8.0362   -8.1472   31.2510 N   0  0  0  0  0  0  0  0  0  0  0  0
    7.4661   -6.5326   27.2818 O   0  0  0  0  0  0  0  0  0  0  0  0
    2.3866   -6.7811   27.6194 C   0  0  0  0  0  0  0  0  0  0  0  0
    2.4255   -6.8681   26.1014 C   0  0  0  0  0  0  0  0  0  0  0  0
    1.3007  -14.1650   32.3492 C   0  0  1  0  0  0  0  0  0  0  0  0
    1.6272   -5.8201   25.4285 N   0  0  0  0  0  0  0  0  0  0  0  0
    0.5341  -14.9403   33.2501 O   0  0  0  0  0  0  0  0  0  0  0  0
    3.7758   -9.8578   31.9011 C   0  0  2  0  0  0  0  0  0  0  0  0
    4.3485  -10.7957   32.8616 N   0  0  0  0  0  0  0  0  0  0  0  0
    0.1386   -6.4164   23.5153 C   0  0  0  0  0  0  0  0  0  0  0  0
   -0.0027   -7.9392   23.8362 N   0  0  0  0  0  0  0  0  0  0  0  0
    1.5083   -5.8110   23.9428 C   0  0  0  0  0  0  0  0  0  0  0  0
    6.6229   -9.0908   28.6714 O   0  0  0  0  0  0  0  0  0  0  0  0
    2.0384  -15.0643   31.3518 C   0  0  2  0  0  0  0  0  0  0  0  0
    2.8762  -15.9896   32.0254 O   0  0  0  0  0  0  0  0  0  0  0  0
    3.1215  -10.6333   30.7852 C   0  0  2  0  0  0  0  0  0  0  0  0
    2.8743  -14.1934   30.3700 C   0  0  2  0  0  0  0  0  0  0  0  0
    2.0373  -13.2474   29.6729 O   0  0  0  0  0  0  0  0  0  0  0  0
    2.5023   -9.6356   29.7146 C   0  0  2  0  0  0  0  0  0  0  0  0
    1.8742  -10.4191   28.6559 O   0  0  0  0  0  0  0  0  0  0  0  0
    3.5852  -15.0187   29.3649 C   0  0  0  0  0  0  0  0  0  0  0  0
    4.9134  -14.7854   29.4491 N   0  0  0  0  0  0  0  0  0  0  0  0
    3.6522   -8.7458   29.1270 C   0  0  1  0  0  0  0  0  0  0  0  0
    3.1456   -7.8783   28.1635 O   0  0  0  0  0  0  0  0  0  0  0  0
  1  2  1  1  0  0  0
  1  5  1  0  0  0  0
  1 29  1  0  0  0  0
  3  4  1  6  0  0  0
  3  7  1  0  0  0  0
  3 34  1  0  0  0  0
  5  6  1  1  0  0  0
  5 16  1  0  0  0  0
  7 19  1  0  0  0  0
  8  4  1  0  0  0  0
  8 24  2  0  0  0  0
  9  8  1  6  0  0  0
  9 10  1  0  0  0  0
  9 13  1  0  0  0  0
 10 11  1  0  0  0  0
 11 12  1  0  0  0  0
 14 15  1  0  0  0  0
 14 35  1  0  0  0  0
 15 17  1  0  0  0  0
 16 18  1  1  0  0  0
 16 25  1  0  0  0  0
 19 20  1  1  0  0  0
 19 27  1  0  0  0  0
 21 22  1  0  0  0  0
 21 23  1  0  0  0  0
 23 17  1  0  0  0  0
 25 26  1  1  0  0  0
 25 28  1  0  0  0  0
 27  2  1  1  0  0  0
 27 30  1  0  0  0  0
 28 29  1  0  0  0  0
 28 32  1  6  0  0  0
 30 31  1  6  0  0  0
 30 34  1  0  0  0  0
 32 33  2  0  0  0  0
 34 35  1  6  0  0  0
M  END
>  <CHROM.1>
175.72414200,65.19420407,121.37551939,-70.28262577,64.15744596,177.51709767
-170.79161188,-176.93657984,-66.68378543,100.84715562,177.70747913,-121.80229585
-51.75969491,3.47728082,-10.03066014,29.46352756,1.87552575,0.46698880,2.44389040

>  <Name>
2f4t_lig

>  <RI>
0

>  <Rbt.Current_Directory>
/home/itssahil/PROJECTS/Mol_Feturizer/New_Systems/rnas/2f4t

>  <Rbt.Executable>
rbdock ($Id: //depot/dev/client3/rdock/2013.1/src/exe/rbdock.cxx#4 $)

>  <Rbt.Library>
libRbt.so (2013.1, Build901 2013/11/27)

>  <Rbt.Parameter_File>
/export/apps/rDock/src/rDock_2013.1_src/data/scripts/dock_solv.prm

>  <Rbt.Receptor>
prm/pocket_docking_4.prm

>  <SCORE>
-16.3229

>  <SCORE.INTER>
-9.74207

>  <SCORE.INTER.CONST>
1

>  <SCORE.INTER.POLAR>
-2.26405

>  <SCORE.INTER.ROT>
13

>  <SCORE.INTER.SOLV>
13.9242

>  <SCORE.INTER.VDW>
-15.856

>  <SCORE.INTER.norm>
-0.278345

>  <SCORE.INTRA>
-6.58087

>  <SCORE.INTRA.DIHEDRAL>
-18.1959

>  <SCORE.INTRA.DIHEDRAL.0>
23.8882

>  <SCORE.INTRA.POLAR>
0

>  <SCORE.INTRA.POLAR.0>
0

>  <SCORE.INTRA.REPUL>
0

>  <SCORE.INTRA.REPUL.0>
0

>  <SCORE.INTRA.SOLV>
5.69866

>  <SCORE.INTRA.SOLV.lig_0>
-97.6888

>  <SCORE.INTRA.VDW>
-0.33223

>  <SCORE.INTRA.VDW.0>
-3.9206

>  <SCORE.INTRA.norm>
-0.188025

>  <SCORE.RESTR>
0

>  <SCORE.RESTR.CAVITY>
0

>  <SCORE.RESTR.norm>
0

>  <SCORE.SYSTEM>
0

>  <SCORE.SYSTEM.CONST>
0

>  <SCORE.SYSTEM.DIHEDRAL>
0

>  <SCORE.SYSTEM.SOLV>
0

>  <SCORE.SYSTEM.norm>
0

>  <SCORE.heavy>
35

>  <SCORE.norm>
-0.46637

>  <RMSD>
8.631

$$$$
2f4t_lig
 OpenBabel11021811433D
libRbt.so/2013.1/901 2013/11/27
 35 36  0  0  0  0  0  0  0  0999 V2000
    6.0022   -5.7259   30.5341 C   0  0  2  0  0  0  0  0  0  0  0  0
    6.5663   -6.3724   29.3462 O   0  0  0  0  0  0  0  0  0  0  0  0
    2.9833   -7.4919   27.2096 C   0  0  2  0  0  0  0  0  0  0  0  0
    2.1044   -7.9059   26.1055 N   0  0  0  0  0  0  0  0  0  0  0  0
    7.2211   -5.3167   31.4153 C   0  0  2  0  0  0  0  0  0  0  0  0
    8.1272   -4.4733   30.6718 N   0  0  0  0  0  0  0  0  0  0  0  0
    3.8325   -6.2475   26.7583 C   0  0  0  0  0  0  0  0  0  0  0  0
    1.1966   -6.5098   25.5177 C   0  0  0  0  0  0  0  0  0  0  0  0
    0.5776   -7.4663   24.5227 C   0  0  1  0  0  0  0  0  0  0  0  0
   -0.1295   -6.6282   23.4552 C   0  0  0  0  0  0  0  0  0  0  0  0
    0.7901   -5.9352   22.4358 C   0  0  0  0  0  0  0  0  0  0  0  0
    2.0328   -5.5574   23.1156 N   0  0  0  0  0  0  0  0  0  0  0  0
    1.5672   -8.1959   23.8456 O   0  0  0  0  0  0  0  0  0  0  0  0
    2.2925  -10.5353   28.7681 C   0  0  0  0  0  0  0  0  0  0  0  0
    2.2324  -11.9360   28.1782 C   0  0  0  0  0  0  0  0  0  0  0  0
    7.9600   -6.5946   31.9382 C   0  0  1  0  0  0  0  0  0  0  0  0
    1.7479  -12.9586   29.1311 N   0  0  0  0  0  0  0  0  0  0  0  0
    9.0678   -6.2450   32.7449 O   0  0  0  0  0  0  0  0  0  0  0  0
    4.7821   -5.7704   27.8660 C   0  0  2  0  0  0  0  0  0  0  0  0
    5.5873   -4.6418   27.4099 N   0  0  0  0  0  0  0  0  0  0  0  0
    3.5939  -14.5912   29.5287 C   0  0  0  0  0  0  0  0  0  0  0  0
    4.8579  -14.9194   30.3868 N   0  0  0  0  0  0  0  0  0  0  0  0
    2.6686  -13.5118   30.1643 C   0  0  0  0  0  0  0  0  0  0  0  0
    1.1511   -5.4781   25.7874 O   0  0  0  0  0  0  0  0  0  0  0  0
    6.9538   -7.4335   32.7329 C   0  0  2  0  0  0  0  0  0  0  0  0
    7.5643   -8.6056   33.2479 O   0  0  0  0  0  0  0  0  0  0  0  0
    5.6990   -6.8898   28.2917 C   0  0  2  0  0  0  0  0  0  0  0  0
    5.7435   -7.8068   31.8290 C   0  0  2  0  0  0  0  0  0  0  0  0
    5.1075   -6.6256   31.2980 O   0  0  0  0  0  0  0  0  0  0  0  0
    4.8477   -8.1400   28.7788 C   0  0  2  0  0  0  0  0  0  0  0  0
    5.7655   -9.1981   29.1874 O   0  0  0  0  0  0  0  0  0  0  0  0
    4.7261   -8.5960   32.5632 C   0  0  0  0  0  0  0  0  0  0  0  0
    5.1218   -9.8860   32.6333 N   0  0  0  0  0  0  0  0  0  0  0  0
    3.9427   -8.6286   27.5949 C   0  0  1  0  0  0  0  0  0  0  0  0
    3.2034   -9.7429   27.9818 O   0  0  0  0  0  0  0  0  0  0  0  0
  1  2  1  6  0  0  0
  1  5  1  0  0  0  0
  1 29  1  0  0  0  0
  3  4  1  6  0  0  0
  3  7  1  0  0  0  0
  3 34  1  0  0  0  0
  5  6  1  6  0  0  0
  5 16  1  0  0  0  0
  7 19  1  0  0  0  0
  8  4  1  0  0  0  0
  8 24  2  0  0  0  0
  9  8  1  1  0  0  0
  9 10  1  0  0  0  0
  9 13  1  0  0  0  0
 10 11  1  0  0  0  0
 11 12  1  0  0  0  0
 14 15  1  0  0  0  0
 14 35  1  0  0  0  0
 15 17  1  0  0  0  0
 16 18  1  1  0  0  0
 16 25  1  0  0  0  0
 19 20  1  6  0  0  0
 19 27  1  0  0  0  0
 21 22  1  0  0  0  0
 21 23  1  0  0  0  0
 23 17  1  0  0  0  0
 25 26  1  6  0  0  0
 25 28  1  0  0  0  0
 27  2  1  1  0  0  0
 27 30  1  0  0  0  0
 28 29  1  0  0  0  0
 28 32  1  1  0  0  0
 30 31  1  6  0  0  0
 30 34  1  0  0  0  0
 32 33  2  0  0  0  0
 34 35  1  1  0  0  0
M  END
>  <CHROM.1>
179.90446097,-51.49303788,-166.28607047,74.87585932,-33.81782264,159.02141311
-178.23658933,-78.98760367,162.57290544,-79.41978951,53.42323719,-79.89521230
-63.48008972,4.22922288,-8.08546837,28.66280653,-0.44842579,-0.84585885,-0.47782885

>  <Name>
2f4t_lig

>  <RI>
0

>  <Rbt.Current_Directory>
/home/itssahil/PROJECTS/Mol_Feturizer/New_Systems/rnas/2f4t

>  <Rbt.Executable>
rbdock ($Id: //depot/dev/client3/rdock/2013.1/src/exe/rbdock.cxx#4 $)

>  <Rbt.Library>
libRbt.so (2013.1, Build901 2013/11/27)

>  <Rbt.Parameter_File>
/export/apps/rDock/src/rDock_2013.1_src/data/scripts/dock_solv.prm

>  <Rbt.Receptor>
prm/pocket_docking_3.prm

>  <SCORE>
-12.1732

>  <SCORE.INTER>
-11.4005

>  <SCORE.INTER.CONST>
1

>  <SCORE.INTER.POLAR>
-2.22281

>  <SCORE.INTER.ROT>
13

>  <SCORE.INTER.SOLV>
21.8657

>  <SCORE.INTER.VDW>
-19.7462

>  <SCORE.INTER.norm>
-0.325729

>  <SCORE.INTRA>
-0.924845

>  <SCORE.INTRA.DIHEDRAL>
-14.9017

>  <SCORE.INTRA.DIHEDRAL.0>
23.8882

>  <SCORE.INTRA.POLAR>
0

>  <SCORE.INTRA.POLAR.0>
0

>  <SCORE.INTRA.REPUL>
0

>  <SCORE.INTRA.REPUL.0>
0

>  <SCORE.INTRA.SOLV>
5.53053

>  <SCORE.INTRA.SOLV.lig_0>
-97.6888

>  <SCORE.INTRA.VDW>
3.76076

>  <SCORE.INTRA.VDW.0>
-3.9206

>  <SCORE.INTRA.norm>
-0.0264241

>  <SCORE.RESTR>
0.152135

>  <SCORE.RESTR.CAVITY>
0.152135

>  <SCORE.RESTR.norm>
0.00434672

>  <SCORE.SYSTEM>
0

>  <SCORE.SYSTEM.CONST>
0

>  <SCORE.SYSTEM.DIHEDRAL>
0

>  <SCORE.SYSTEM.SOLV>
0

>  <SCORE.SYSTEM.norm>
0

>  <SCORE.heavy>
35

>  <SCORE.norm>
-0.347806

>  <RMSD>
8.638

$$$$
2f4t_lig
 OpenBabel11021811433D
libRbt.so/2013.1/901 2013/11/27
 35 36  0  0  0  0  0  0  0  0999 V2000
    4.9117  -11.2945   32.0432 C   0  0  2  0  0  0  0  0  0  0  0  0
    4.1062  -11.0790   30.8382 O   0  0  0  0  0  0  0  0  0  0  0  0
    4.8774   -8.2004   27.7116 C   0  0  2  0  0  0  0  0  0  0  0  0
    4.8265   -6.9483   26.9420 N   0  0  0  0  0  0  0  0  0  0  0  0
    4.6106  -12.7537   32.5012 C   0  0  2  0  0  0  0  0  0  0  0  0
    4.8947  -13.6900   31.4392 N   0  0  0  0  0  0  0  0  0  0  0  0
    3.4116   -8.6814   28.0176 C   0  0  0  0  0  0  0  0  0  0  0  0
    3.9659   -5.7179   27.8718 C   0  0  0  0  0  0  0  0  0  0  0  0
    4.2324   -4.7993   26.6999 C   0  0  1  0  0  0  0  0  0  0  0  0
    3.0183   -4.8715   25.7712 C   0  0  0  0  0  0  0  0  0  0  0  0
    1.6906   -4.3799   26.3718 C   0  0  0  0  0  0  0  0  0  0  0  0
    0.6212   -4.6361   25.4023 N   0  0  0  0  0  0  0  0  0  0  0  0
    4.3166   -3.4624   27.1194 O   0  0  0  0  0  0  0  0  0  0  0  0
    8.3171   -7.6340   28.4943 C   0  0  0  0  0  0  0  0  0  0  0  0
    8.8042   -6.2660   28.0415 C   0  0  0  0  0  0  0  0  0  0  0  0
    3.1185  -12.8762   32.9606 C   0  0  1  0  0  0  0  0  0  0  0  0
    8.2433   -5.8396   26.7407 N   0  0  0  0  0  0  0  0  0  0  0  0
    2.8256  -14.1931   33.3852 O   0  0  0  0  0  0  0  0  0  0  0  0
    3.3944   -9.9832   28.8308 C   0  0  2  0  0  0  0  0  0  0  0  0
    2.0257  -10.3870   29.1367 N   0  0  0  0  0  0  0  0  0  0  0  0
    9.5047   -4.1935   25.3511 C   0  0  0  0  0  0  0  0  0  0  0  0
    9.3377   -4.9364   23.9865 N   0  0  0  0  0  0  0  0  0  0  0  0
    8.3133   -4.4083   26.3308 C   0  0  0  0  0  0  0  0  0  0  0  0
    3.4928   -5.6962   28.8282 O   0  0  0  0  0  0  0  0  0  0  0  0
    2.8879  -11.8758   34.0980 C   0  0  2  0  0  0  0  0  0  0  0  0
    1.5526  -11.9440   34.5716 O   0  0  0  0  0  0  0  0  0  0  0  0
    4.1565   -9.8084   30.1207 C   0  0  2  0  0  0  0  0  0  0  0  0
    3.2162  -10.4348   33.6116 C   0  0  2  0  0  0  0  0  0  0  0  0
    4.5728  -10.3456   33.1287 O   0  0  0  0  0  0  0  0  0  0  0  0
    5.6483   -9.3524   29.8180 C   0  0  2  0  0  0  0  0  0  0  0  0
    6.3551   -9.1995   31.0854 O   0  0  0  0  0  0  0  0  0  0  0  0
    3.0358   -9.4320   34.6881 C   0  0  0  0  0  0  0  0  0  0  0  0
    3.2435   -8.1936   34.1890 N   0  0  0  0  0  0  0  0  0  0  0  0
    5.6139   -7.9892   29.0435 C   0  0  1  0  0  0  0  0  0  0  0  0
    6.9091   -7.5478   28.7876 O   0  0  0  0  0  0  0  0  0  0  0  0
  1  2  1  6  0  0  0
  1  5  1  0  0  0  0
  1 29  1  0  0  0  0
  3  4  1  1  0  0  0
  3  7  1  0  0  0  0
  3 34  1  0  0  0  0
  5  6  1  6  0  0  0
  5 16  1  0  0  0  0
  7 19  1  0  0  0  0
  8  4  1  0  0  0  0
  8 24  2  0  0  0  0
  9  8  1  1  0  0  0
  9 10  1  0  0  0  0
  9 13  1  0  0  0  0
 10 11  1  0  0  0  0
 11 12  1  0  0  0  0
 14 15  1  0  0  0  0
 14 35  1  0  0  0  0
 15 17  1  0  0  0  0
 16 18  1  1  0  0  0
 16 25  1  0  0  0  0
 19 20  1  1  0  0  0
 19 27  1  0  0  0  0
 21 22  1  0  0  0  0
 21 23  1  0  0  0  0
 23 17  1  0  0  0  0
 25 26  1  6  0  0  0
 25 28  1  0  0  0  0
 27  2  1  6  0  0  0
 27 30  1  0  0  0  0
 28 29  1  0  0  0  0
 28 32  1  1  0  0  0
 30 31  1  1  0  0  0
 30 34  1  0  0  0  0
 32 33  2  0  0  0  0
 34 35  1  6  0  0  0
M  END
>  <CHROM.1>
-179.09026304,59.32041287,93.34775457,62.93308420,-174.69794755,-67.20263403
164.69900799,163.41329061,65.37122037,99.33047180,171.35637567,-175.80415284
-86.33448918,4.69005395,-8.37239289,29.55848974,-1.85065808,0.12413612,-0.75246538

>  <Name>
2f4t_lig

>  <RI>
0

>  <Rbt.Current_Directory>
/home/itssahil/PROJECTS/Mol_Feturizer/New_Systems/rnas/2f4t

>  <Rbt.Executable>
rbdock ($Id: //depot/dev/client3/rdock/2013.1/src/exe/rbdock.cxx#4 $)

>  <Rbt.Library>
libRbt.so (2013.1, Build901 2013/11/27)

>  <Rbt.Parameter_File>
/export/apps/rDock/src/rDock_2013.1_src/data/scripts/dock_solv.prm

>  <Rbt.Receptor>
prm/pocket_docking_7.prm

>  <SCORE>
-16.7335

>  <SCORE.INTER>
-10.69

>  <SCORE.INTER.CONST>
1

>  <SCORE.INTER.POLAR>
-2.53739

>  <SCORE.INTER.ROT>
13

>  <SCORE.INTER.SOLV>
12.6929

>  <SCORE.INTER.VDW>
-15.1663

>  <SCORE.INTER.norm>
-0.305429

>  <SCORE.INTRA>
-6.0435

>  <SCORE.INTRA.DIHEDRAL>
-14.3356

>  <SCORE.INTRA.DIHEDRAL.0>
23.8882

>  <SCORE.INTRA.POLAR>
0

>  <SCORE.INTRA.POLAR.0>
0

>  <SCORE.INTRA.REPUL>
0

>  <SCORE.INTRA.REPUL.0>
0

>  <SCORE.INTRA.SOLV>
1.37989

>  <SCORE.INTRA.SOLV.lig_0>
-97.6888

>  <SCORE.INTRA.VDW>
0.434355

>  <SCORE.INTRA.VDW.0>
-3.9206

>  <SCORE.INTRA.norm>
-0.172671

>  <SCORE.RESTR>
0

>  <SCORE.RESTR.CAVITY>
0

>  <SCORE.RESTR.norm>
0

>  <SCORE.SYSTEM>
0

>  <SCORE.SYSTEM.CONST>
0

>  <SCORE.SYSTEM.DIHEDRAL>
0

>  <SCORE.SYSTEM.SOLV>
0

>  <SCORE.SYSTEM.norm>
0

>  <SCORE.heavy>
35

>  <SCORE.norm>
-0.478101

>  <RMSD>
8.641

$$$$
2f4t_lig
 OpenBabel11021811433D
libRbt.so/2013.1/901 2013/11/27
 35 36  0  0  0  0  0  0  0  0999 V2000
    4.0516  -12.1852   30.1416 C   0  0  2  0  0  0  0  0  0  0  0  0
    3.5863  -11.1619   31.0816 O   0  0  0  0  0  0  0  0  0  0  0  0
    4.5360   -6.9988   31.7322 C   0  0  2  0  0  0  0  0  0  0  0  0
    5.3043   -5.7941   32.0803 N   0  0  0  0  0  0  0  0  0  0  0  0
    2.7651  -12.8486   29.5633 C   0  0  2  0  0  0  0  0  0  0  0  0
    1.9065  -11.8558   28.9610 N   0  0  0  0  0  0  0  0  0  0  0  0
    4.6453   -8.0409   32.9050 C   0  0  0  0  0  0  0  0  0  0  0  0
    7.0125   -6.2104   32.2470 C   0  0  0  0  0  0  0  0  0  0  0  0
    7.2290   -4.7454   32.5554 C   0  0  1  0  0  0  0  0  0  0  0  0
    7.0916   -4.5671   34.0691 C   0  0  0  0  0  0  0  0  0  0  0  0
    7.2275   -3.1246   34.5845 C   0  0  0  0  0  0  0  0  0  0  0  0
    6.1728   -2.3125   33.9703 N   0  0  0  0  0  0  0  0  0  0  0  0
    8.5396   -4.3546   32.2396 O   0  0  0  0  0  0  0  0  0  0  0  0
    5.2712   -5.5141   28.6683 C   0  0  0  0  0  0  0  0  0  0  0  0
    3.9585   -5.0001   28.0974 C   0  0  0  0  0  0  0  0  0  0  0  0
    2.0054  -13.6234   30.6924 C   0  0  1  0  0  0  0  0  0  0  0  0
    3.3757   -5.8854   27.0654 N   0  0  0  0  0  0  0  0  0  0  0  0
    0.8358  -14.2375   30.1869 O   0  0  0  0  0  0  0  0  0  0  0  0
    3.8710   -9.3305   32.5988 C   0  0  2  0  0  0  0  0  0  0  0  0
    4.0208  -10.2965   33.6826 N   0  0  0  0  0  0  0  0  0  0  0  0
    1.7261   -7.5103   26.1325 C   0  0  0  0  0  0  0  0  0  0  0  0
    0.6395   -8.5968   26.4166 N   0  0  0  0  0  0  0  0  0  0  0  0
    2.2534   -6.8016   27.4151 C   0  0  0  0  0  0  0  0  0  0  0  0
    7.5760   -7.1124   32.1572 O   0  0  0  0  0  0  0  0  0  0  0  0
    2.9598  -14.6713   31.2744 C   0  0  2  0  0  0  0  0  0  0  0  0
    2.3274  -15.4210   32.2991 O   0  0  0  0  0  0  0  0  0  0  0  0
    4.3655   -9.9494   31.3152 C   0  0  2  0  0  0  0  0  0  0  0  0
    4.2390  -13.9765   31.8238 C   0  0  2  0  0  0  0  0  0  0  0  0
    4.8979  -13.2110   30.7936 O   0  0  0  0  0  0  0  0  0  0  0  0
    4.2289   -8.9124   30.1190 C   0  0  2  0  0  0  0  0  0  0  0  0
    4.7098   -9.5460   28.8958 O   0  0  0  0  0  0  0  0  0  0  0  0
    5.2085  -14.9543   32.3725 C   0  0  0  0  0  0  0  0  0  0  0  0
    5.6101  -14.5507   33.5979 N   0  0  0  0  0  0  0  0  0  0  0  0
    5.0866   -7.6419   30.4499 C   0  0  1  0  0  0  0  0  0  0  0  0
    5.0104   -6.7240   29.4061 O   0  0  0  0  0  0  0  0  0  0  0  0
  1  2  1  1  0  0  0
  1  5  1  0  0  0  0
  1 29  1  0  0  0  0
  3  4  1  1  0  0  0
  3  7  1  0  0  0  0
  3 34  1  0  0  0  0
  5  6  1  1  0  0  0
  5 16  1  0  0  0  0
  7 19  1  0  0  0  0
  8  4  1  0  0  0  0
  8 24  2  0  0  0  0
  9  8  1  1  0  0  0
  9 10  1  0  0  0  0
  9 13  1  0  0  0  0
 10 11  1  0  0  0  0
 11 12  1  0  0  0  0
 14 15  1  0  0  0  0
 14 35  1  0  0  0  0
 15 17  1  0  0  0  0
 16 18  1  6  0  0  0
 16 25  1  0  0  0  0
 19 20  1  1  0  0  0
 19 27  1  0  0  0  0
 21 22  1  0  0  0  0
 21 23  1  0  0  0  0
 23 17  1  0  0  0  0
 25 26  1  1  0  0  0
 25 28  1  0  0  0  0
 27  2  1  6  0  0  0
 27 30  1  0  0  0  0
 28 29  1  0  0  0  0
 28 32  1  6  0  0  0
 30 31  1  6  0  0  0
 30 34  1  0  0  0  0
 32 33  2  0  0  0  0
 34 35  1  6  0  0  0
M  END
>  <CHROM.1>
-149.72550467,62.97747821,90.02253955,-177.81740444,60.44075955,-66.64126145
-136.09950447,101.18706470,174.36000967,174.12397569,-162.78231603,-130.97365353
61.98108637,4.41021010,-9.08196170,30.88869993,-2.18339294,-0.94637738,-0.41559053

>  <Name>
2f4t_lig

>  <RI>
0

>  <Rbt.Current_Directory>
/home/itssahil/PROJECTS/Mol_Feturizer/New_Systems/rnas/2f4t

>  <Rbt.Executable>
rbdock ($Id: //depot/dev/client3/rdock/2013.1/src/exe/rbdock.cxx#4 $)

>  <Rbt.Library>
libRbt.so (2013.1, Build901 2013/11/27)

>  <Rbt.Parameter_File>
/export/apps/rDock/src/rDock_2013.1_src/data/scripts/dock_solv.prm

>  <Rbt.Receptor>
prm/pocket_docking_5.prm

>  <SCORE>
-6.09011

>  <SCORE.INTER>
-1.87627

>  <SCORE.INTER.CONST>
1

>  <SCORE.INTER.POLAR>
-1.71652

>  <SCORE.INTER.ROT>
13

>  <SCORE.INTER.SOLV>
14.9504

>  <SCORE.INTER.VDW>
-12.7793

>  <SCORE.INTER.norm>
-0.0536078

>  <SCORE.INTRA>
-4.21384

>  <SCORE.INTRA.DIHEDRAL>
-9.04005

>  <SCORE.INTRA.DIHEDRAL.0>
23.8882

>  <SCORE.INTRA.POLAR>
0

>  <SCORE.INTRA.POLAR.0>
0

>  <SCORE.INTRA.REPUL>
0

>  <SCORE.INTRA.REPUL.0>
0

>  <SCORE.INTRA.SOLV>
2.27562

>  <SCORE.INTRA.SOLV.lig_0>
-97.6888

>  <SCORE.INTRA.VDW>
-0.831628

>  <SCORE.INTRA.VDW.0>
-3.9206

>  <SCORE.INTRA.norm>
-0.120395

>  <SCORE.RESTR>
0

>  <SCORE.RESTR.CAVITY>
0

>  <SCORE.RESTR.norm>
0

>  <SCORE.SYSTEM>
0

>  <SCORE.SYSTEM.CONST>
0

>  <SCORE.SYSTEM.DIHEDRAL>
0

>  <SCORE.SYSTEM.SOLV>
0

>  <SCORE.SYSTEM.norm>
0

>  <SCORE.heavy>
35

>  <SCORE.norm>
-0.174003

>  <RMSD>
8.642

$$$$
2f4t_lig
 OpenBabel11021811433D
libRbt.so/2013.1/901 2013/11/27
 35 36  0  0  0  0  0  0  0  0999 V2000
    4.7208  -11.6297   31.9820 C   0  0  2  0  0  0  0  0  0  0  0  0
    3.6376  -11.6236   30.9951 O   0  0  0  0  0  0  0  0  0  0  0  0
    3.5286   -8.9373   27.6144 C   0  0  2  0  0  0  0  0  0  0  0  0
    3.1557   -7.7929   26.7695 N   0  0  0  0  0  0  0  0  0  0  0  0
    4.8509  -13.1069   32.4621 C   0  0  2  0  0  0  0  0  0  0  0  0
    5.0826  -13.9883   31.3419 N   0  0  0  0  0  0  0  0  0  0  0  0
    2.2246   -9.6691   28.1019 C   0  0  0  0  0  0  0  0  0  0  0  0
    2.0107   -6.7660   27.6374 C   0  0  0  0  0  0  0  0  0  0  0  0
    2.0291   -5.8881   26.4057 C   0  0  1  0  0  0  0  0  0  0  0  0
    1.0925   -6.5207   25.3740 C   0  0  0  0  0  0  0  0  0  0  0  0
    1.1736   -5.9355   23.9540 C   0  0  0  0  0  0  0  0  0  0  0  0
    0.2574   -6.6869   23.0909 N   0  0  0  0  0  0  0  0  0  0  0  0
    1.4940   -4.6208   26.6847 O   0  0  0  0  0  0  0  0  0  0  0  0
    6.7091   -7.0791   28.5404 C   0  0  0  0  0  0  0  0  0  0  0  0
    6.4374   -5.7562   29.2399 C   0  0  0  0  0  0  0  0  0  0  0  0
    3.5626  -13.5341   33.2432 C   0  0  1  0  0  0  0  0  0  0  0  0
    5.5199   -4.8692   28.4915 N   0  0  0  0  0  0  0  0  0  0  0  0
    3.6624  -14.8715   33.6923 O   0  0  0  0  0  0  0  0  0  0  0  0
    2.5451  -10.8716   29.0006 C   0  0  2  0  0  0  0  0  0  0  0  0
    1.3199  -11.5089   29.4727 N   0  0  0  0  0  0  0  0  0  0  0  0
    4.0996   -2.8425   28.1645 C   0  0  0  0  0  0  0  0  0  0  0  0
    3.7555   -1.3832   28.6047 N   0  0  0  0  0  0  0  0  0  0  0  0
    5.2731   -3.4783   28.9670 C   0  0  0  0  0  0  0  0  0  0  0  0
    1.5507   -6.8038   28.5997 O   0  0  0  0  0  0  0  0  0  0  0  0
    3.3849  -12.5767   34.4263 C   0  0  2  0  0  0  0  0  0  0  0  0
    2.2372  -12.9168   35.1871 O   0  0  0  0  0  0  0  0  0  0  0  0
    3.3641  -10.4365   30.1901 C   0  0  2  0  0  0  0  0  0  0  0  0
    3.2782  -11.1121   33.9119 C   0  0  2  0  0  0  0  0  0  0  0  0
    4.4396  -10.7472   33.1376 O   0  0  0  0  0  0  0  0  0  0  0  0
    4.6989   -9.7238   29.7049 C   0  0  2  0  0  0  0  0  0  0  0  0
    5.4665   -9.3230   30.8793 O   0  0  0  0  0  0  0  0  0  0  0  0
    3.1341  -10.1432   35.0243 C   0  0  0  0  0  0  0  0  0  0  0  0
    4.3580   -9.7908   35.4756 N   0  0  0  0  0  0  0  0  0  0  0  0
    4.3189   -8.4681   28.8458 C   0  0  1  0  0  0  0  0  0  0  0  0
    5.4690   -7.8042   28.4282 O   0  0  0  0  0  0  0  0  0  0  0  0
  1  2  1  6  0  0  0
  1  5  1  0  0  0  0
  1 29  1  0  0  0  0
  3  4  1  6  0  0  0
  3  7  1  0  0  0  0
  3 34  1  0  0  0  0
  5  6  1  6  0  0  0
  5 16  1  0  0  0  0
  7 19  1  0  0  0  0
  8  4  1  0  0  0  0
  8 24  2  0  0  0  0
  9  8  1  1  0  0  0
  9 10  1  0  0  0  0
  9 13  1  0  0  0  0
 10 11  1  0  0  0  0
 11 12  1  0  0  0  0
 14 15  1  0  0  0  0
 14 35  1  0  0  0  0
 15 17  1  0  0  0  0
 16 18  1  1  0  0  0
 16 25  1  0  0  0  0
 19 20  1  1  0  0  0
 19 27  1  0  0  0  0
 21 22  1  0  0  0  0
 21 23  1  0  0  0  0
 23 17  1  0  0  0  0
 25 26  1  6  0  0  0
 25 28  1  0  0  0  0
 27  2  1  6  0  0  0
 27 30  1  0  0  0  0
 28 29  1  0  0  0  0
 28 32  1  1  0  0  0
 30 31  1  1  0  0  0
 30 34  1  0  0  0  0
 32 33  2  0  0  0  0
 34 35  1  6  0  0  0
M  END
>  <CHROM.1>
-171.13081177,53.45431983,80.70697253,-168.65992066,177.76773421,-62.63846049
-61.76957158,-173.19097189,179.37162981,-170.24516651,161.58893703,86.61792239
179.59845195,3.54131366,-8.83358045,29.83307447,-1.41210473,-0.96274852,-0.61381352

>  <Name>
2f4t_lig

>  <RI>
0

>  <Rbt.Current_Directory>
/home/itssahil/PROJECTS/Mol_Feturizer/New_Systems/rnas/2f4t

>  <Rbt.Executable>
rbdock ($Id: //depot/dev/client3/rdock/2013.1/src/exe/rbdock.cxx#4 $)

>  <Rbt.Library>
libRbt.so (2013.1, Build901 2013/11/27)

>  <Rbt.Parameter_File>
/export/apps/rDock/src/rDock_2013.1_src/data/scripts/dock_solv.prm

>  <Rbt.Receptor>
prm/pocket_docking_5.prm

>  <SCORE>
-17.6224

>  <SCORE.INTER>
-9.60539

>  <SCORE.INTER.CONST>
1

>  <SCORE.INTER.POLAR>
-1.98732

>  <SCORE.INTER.ROT>
13

>  <SCORE.INTER.SOLV>
12.2315

>  <SCORE.INTER.VDW>
-16.123

>  <SCORE.INTER.norm>
-0.27444

>  <SCORE.INTRA>
-8.01701

>  <SCORE.INTRA.DIHEDRAL>
-18.5817

>  <SCORE.INTRA.DIHEDRAL.0>
23.8882

>  <SCORE.INTRA.POLAR>
0

>  <SCORE.INTRA.POLAR.0>
0

>  <SCORE.INTRA.REPUL>
0

>  <SCORE.INTRA.REPUL.0>
0

>  <SCORE.INTRA.SOLV>
-0.108861

>  <SCORE.INTRA.SOLV.lig_0>
-97.6888

>  <SCORE.INTRA.VDW>
1.32828

>  <SCORE.INTRA.VDW.0>
-3.9206

>  <SCORE.INTRA.norm>
-0.229058

>  <SCORE.RESTR>
0

>  <SCORE.RESTR.CAVITY>
0

>  <SCORE.RESTR.norm>
0

>  <SCORE.SYSTEM>
0

>  <SCORE.SYSTEM.CONST>
0

>  <SCORE.SYSTEM.DIHEDRAL>
0

>  <SCORE.SYSTEM.SOLV>
0

>  <SCORE.SYSTEM.norm>
0

>  <SCORE.heavy>
35

>  <SCORE.norm>
-0.503497

>  <RMSD>
8.652

$$$$
2f4t_lig
 OpenBabel11021811433D
libRbt.so/2013.1/901 2013/11/27
 35 36  0  0  0  0  0  0  0  0999 V2000
    3.5208  -13.3032   30.2859 C   0  0  2  0  0  0  0  0  0  0  0  0
    2.8078  -12.2060   30.9455 O   0  0  0  0  0  0  0  0  0  0  0  0
    4.8230   -8.7660   29.2835 C   0  0  2  0  0  0  0  0  0  0  0  0
    5.1266   -7.3636   28.9615 N   0  0  0  0  0  0  0  0  0  0  0  0
    2.5535  -14.5249   30.3269 C   0  0  2  0  0  0  0  0  0  0  0  0
    1.2919  -14.1970   29.7052 N   0  0  0  0  0  0  0  0  0  0  0  0
    3.3205   -9.0664   28.9289 C   0  0  0  0  0  0  0  0  0  0  0  0
    4.5056   -6.9788   27.3537 C   0  0  0  0  0  0  0  0  0  0  0  0
    5.0531   -5.5889   27.5922 C   0  0  1  0  0  0  0  0  0  0  0  0
    4.9391   -4.8159   26.2764 C   0  0  0  0  0  0  0  0  0  0  0  0
    5.7520   -3.5128   26.1973 C   0  0  0  0  0  0  0  0  0  0  0  0
    5.2288   -2.5795   27.1996 N   0  0  0  0  0  0  0  0  0  0  0  0
    4.2627   -4.8904   28.5182 O   0  0  0  0  0  0  0  0  0  0  0  0
    7.5742   -7.9930   31.2449 C   0  0  0  0  0  0  0  0  0  0  0  0
    8.1156   -7.6935   29.8554 C   0  0  0  0  0  0  0  0  0  0  0  0
    2.3356  -14.9891   31.8065 C   0  0  1  0  0  0  0  0  0  0  0  0
    9.1232   -6.6105   29.8343 N   0  0  0  0  0  0  0  0  0  0  0  0
    1.4635  -16.1010   31.8655 O   0  0  0  0  0  0  0  0  0  0  0  0
    2.9349  -10.5166   29.2524 C   0  0  2  0  0  0  0  0  0  0  0  0
    1.5272  -10.7592   28.9532 N   0  0  0  0  0  0  0  0  0  0  0  0
   10.5590   -5.5881   31.6019 C   0  0  0  0  0  0  0  0  0  0  0  0
   10.6142   -4.1804   30.9258 N   0  0  0  0  0  0  0  0  0  0  0  0
   10.3980   -6.7622   30.5915 C   0  0  0  0  0  0  0  0  0  0  0  0
    3.9852   -7.5274   26.6005 O   0  0  0  0  0  0  0  0  0  0  0  0
    3.7035  -15.3407   32.4005 C   0  0  2  0  0  0  0  0  0  0  0  0
    3.5762  -15.7830   33.7422 O   0  0  0  0  0  0  0  0  0  0  0  0
    3.1878  -10.8162   30.7089 C   0  0  2  0  0  0  0  0  0  0  0  0
    4.6475  -14.1060   32.3255 C   0  0  2  0  0  0  0  0  0  0  0  0
    4.7914  -13.6436   30.9665 O   0  0  0  0  0  0  0  0  0  0  0  0
    4.7119  -10.5448   31.0673 C   0  0  2  0  0  0  0  0  0  0  0  0
    4.9202  -10.8503   32.4789 O   0  0  0  0  0  0  0  0  0  0  0  0
    5.9958  -14.4058   32.8631 C   0  0  0  0  0  0  0  0  0  0  0  0
    6.5845  -15.3523   32.0993 N   0  0  0  0  0  0  0  0  0  0  0  0
    5.0391   -9.0382   30.7803 C   0  0  1  0  0  0  0  0  0  0  0  0
    6.3624   -8.7610   31.1115 O   0  0  0  0  0  0  0  0  0  0  0  0
  1  2  1  1  0  0  0
  1  5  1  0  0  0  0
  1 29  1  0  0  0  0
  3  4  1  1  0  0  0
  3  7  1  0  0  0  0
  3 34  1  0  0  0  0
  5  6  1  1  0  0  0
  5 16  1  0  0  0  0
  7 19  1  0  0  0  0
  8  4  1  0  0  0  0
  8 24  2  0  0  0  0
  9  8  1  6  0  0  0
  9 10  1  0  0  0  0
  9 13  1  0  0  0  0
 10 11  1  0  0  0  0
 11 12  1  0  0  0  0
 14 15  1  0  0  0  0
 14 35  1  0  0  0  0
 15 17  1  0  0  0  0
 16 18  1  6  0  0  0
 16 25  1  0  0  0  0
 19 20  1  1  0  0  0
 19 27  1  0  0  0  0
 21 22  1  0  0  0  0
 21 23  1  0  0  0  0
 23 17  1  0  0  0  0
 25 26  1  1  0  0  0
 25 28  1  0  0  0  0
 27  2  1  6  0  0  0
 27 30  1  0  0  0  0
 28 29  1  0  0  0  0
 28 32  1  6  0  0  0
 30 31  1  1  0  0  0
 30 34  1  0  0  0  0
 32 33  2  0  0  0  0
 34 35  1  6  0  0  0
M  END
>  <CHROM.1>
-159.15146877,-46.70976148,171.39474610,-165.24993517,-63.89834350,163.76306438
-67.31461268,61.39753391,-60.90199675,-122.91747804,63.95980931,63.60467587
56.93131279,5.00357658,-9.86897837,30.15055797,1.96618316,0.48616312,2.62741918

>  <Name>
2f4t_lig

>  <RI>
0

>  <Rbt.Current_Directory>
/home/itssahil/PROJECTS/Mol_Feturizer/New_Systems/rnas/2f4t

>  <Rbt.Executable>
rbdock ($Id: //depot/dev/client3/rdock/2013.1/src/exe/rbdock.cxx#4 $)

>  <Rbt.Library>
libRbt.so (2013.1, Build901 2013/11/27)

>  <Rbt.Parameter_File>
/export/apps/rDock/src/rDock_2013.1_src/data/scripts/dock_solv.prm

>  <Rbt.Receptor>
prm/pocket_docking_5.prm

>  <SCORE>
-13.633

>  <SCORE.INTER>
-9.25404

>  <SCORE.INTER.CONST>
1

>  <SCORE.INTER.POLAR>
-1.35892

>  <SCORE.INTER.ROT>
13

>  <SCORE.INTER.SOLV>
12.0282

>  <SCORE.INTER.VDW>
-17.9157

>  <SCORE.INTER.norm>
-0.264401

>  <SCORE.INTRA>
-4.37901

>  <SCORE.INTRA.DIHEDRAL>
-15.7468

>  <SCORE.INTRA.DIHEDRAL.0>
23.8882

>  <SCORE.INTRA.POLAR>
0

>  <SCORE.INTRA.POLAR.0>
0

>  <SCORE.INTRA.REPUL>
0

>  <SCORE.INTRA.REPUL.0>
0

>  <SCORE.INTRA.SOLV>
4.12082

>  <SCORE.INTRA.SOLV.lig_0>
-97.6888

>  <SCORE.INTRA.VDW>
1.434

>  <SCORE.INTRA.VDW.0>
-3.9206

>  <SCORE.INTRA.norm>
-0.125114

>  <SCORE.RESTR>
0

>  <SCORE.RESTR.CAVITY>
0

>  <SCORE.RESTR.norm>
0

>  <SCORE.SYSTEM>
0

>  <SCORE.SYSTEM.CONST>
0

>  <SCORE.SYSTEM.DIHEDRAL>
0

>  <SCORE.SYSTEM.SOLV>
0

>  <SCORE.SYSTEM.norm>
0

>  <SCORE.heavy>
35

>  <SCORE.norm>
-0.389516

>  <RMSD>
8.677

$$$$
2f4t_lig
 OpenBabel11021811433D
libRbt.so/2013.1/901 2013/11/27
 35 36  0  0  0  0  0  0  0  0999 V2000
    6.9365   -7.3393   31.0942 C   0  0  2  0  0  0  0  0  0  0  0  0
    5.5073   -7.2558   30.7815 O   0  0  0  0  0  0  0  0  0  0  0  0
    2.8046   -7.6088   27.4307 C   0  0  2  0  0  0  0  0  0  0  0  0
    2.3307   -7.7425   26.0450 N   0  0  0  0  0  0  0  0  0  0  0  0
    7.0205   -7.7760   32.5882 C   0  0  2  0  0  0  0  0  0  0  0  0
    6.3081   -9.0145   32.7979 N   0  0  0  0  0  0  0  0  0  0  0  0
    3.8266   -6.4164   27.5169 C   0  0  0  0  0  0  0  0  0  0  0  0
    1.2576   -6.3951   25.6551 C   0  0  0  0  0  0  0  0  0  0  0  0
    1.1400   -7.0253   24.2849 C   0  0  1  0  0  0  0  0  0  0  0  0
   -0.0773   -6.4058   23.5949 C   0  0  0  0  0  0  0  0  0  0  0  0
   -0.0797   -4.8708   23.5006 C   0  0  0  0  0  0  0  0  0  0  0  0
   -1.4693   -4.4157   23.3968 N   0  0  0  0  0  0  0  0  0  0  0  0
    2.2449   -6.6955   23.4845 O   0  0  0  0  0  0  0  0  0  0  0  0
    2.1543  -11.3236   27.8799 C   0  0  0  0  0  0  0  0  0  0  0  0
    2.5213  -11.8872   29.2442 C   0  0  0  0  0  0  0  0  0  0  0  0
    6.4492   -6.6475   33.5115 C   0  0  1  0  0  0  0  0  0  0  0  0
    1.9998  -11.0871   30.3740 N   0  0  0  0  0  0  0  0  0  0  0  0
    6.5207   -7.0224   34.8734 O   0  0  0  0  0  0  0  0  0  0  0  0
    4.3693   -6.2296   28.9406 C   0  0  2  0  0  0  0  0  0  0  0  0
    5.3449   -5.1451   28.9868 N   0  0  0  0  0  0  0  0  0  0  0  0
    1.5542  -10.7392   32.8055 C   0  0  0  0  0  0  0  0  0  0  0  0
    1.9967  -11.0073   34.2800 N   0  0  0  0  0  0  0  0  0  0  0  0
    2.5582  -11.2762   31.7429 C   0  0  0  0  0  0  0  0  0  0  0  0
    0.8944   -5.5471   26.1917 O   0  0  0  0  0  0  0  0  0  0  0  0
    7.2576   -5.3710   33.2573 C   0  0  2  0  0  0  0  0  0  0  0  0
    6.7977   -4.3072   34.0750 O   0  0  0  0  0  0  0  0  0  0  0  0
    5.0214   -7.5000   29.4264 C   0  0  2  0  0  0  0  0  0  0  0  0
    7.1670   -4.9762   31.7549 C   0  0  2  0  0  0  0  0  0  0  0  0
    7.6341   -6.0462   30.9073 O   0  0  0  0  0  0  0  0  0  0  0  0
    3.9850   -8.7033   29.3717 C   0  0  2  0  0  0  0  0  0  0  0  0
    4.6473   -9.9110   29.8532 O   0  0  0  0  0  0  0  0  0  0  0  0
    7.9590   -3.7603   31.4528 C   0  0  0  0  0  0  0  0  0  0  0  0
    7.3550   -2.6824   31.9996 N   0  0  0  0  0  0  0  0  0  0  0  0
    3.5094   -8.8948   27.8897 C   0  0  1  0  0  0  0  0  0  0  0  0
    2.6200   -9.9622   27.8034 O   0  0  0  0  0  0  0  0  0  0  0  0
  1  2  1  1  0  0  0
  1  5  1  0  0  0  0
  1 29  1  0  0  0  0
  3  4  1  6  0  0  0
  3  7  1  0  0  0  0
  3 34  1  0  0  0  0
  5  6  1  6  0  0  0
  5 16  1  0  0  0  0
  7 19  1  0  0  0  0
  8  4  1  0  0  0  0
  8 24  2  0  0  0  0
  9  8  1  1  0  0  0
  9 10  1  0  0  0  0
  9 13  1  0  0  0  0
 10 11  1  0  0  0  0
 11 12  1  0  0  0  0
 14 15  1  0  0  0  0
 14 35  1  0  0  0  0
 15 17  1  0  0  0  0
 16 18  1  1  0  0  0
 16 25  1  0  0  0  0
 19 20  1  6  0  0  0
 19 27  1  0  0  0  0
 21 22  1  0  0  0  0
 21 23  1  0  0  0  0
 23 17  1  0  0  0  0
 25 26  1  1  0  0  0
 25 28  1  0  0  0  0
 27  2  1  1  0  0  0
 27 30  1  0  0  0  0
 28 29  1  0  0  0  0
 28 32  1  1  0  0  0
 30 31  1  6  0  0  0
 30 34  1  0  0  0  0
 32 33  2  0  0  0  0
 34 35  1  1  0  0  0
M  END
>  <CHROM.1>
-150.75237999,-71.52547836,163.74648796,55.17909946,-154.97319082,56.11714076
51.07363165,-163.57316770,174.93328752,-159.86416103,-117.94293388,-70.85151899
177.46905663,3.94385625,-7.40825058,29.40365380,-0.53476113,-0.84137574,-0.69291319

>  <Name>
2f4t_lig

>  <RI>
0

>  <Rbt.Current_Directory>
/home/itssahil/PROJECTS/Mol_Feturizer/New_Systems/rnas/2f4t

>  <Rbt.Executable>
rbdock ($Id: //depot/dev/client3/rdock/2013.1/src/exe/rbdock.cxx#4 $)

>  <Rbt.Library>
libRbt.so (2013.1, Build901 2013/11/27)

>  <Rbt.Parameter_File>
/export/apps/rDock/src/rDock_2013.1_src/data/scripts/dock_solv.prm

>  <Rbt.Receptor>
prm/pocket_docking_2.prm

>  <SCORE>
-0.825049

>  <SCORE.INTER>
-3.63802

>  <SCORE.INTER.CONST>
1

>  <SCORE.INTER.POLAR>
-0.766137

>  <SCORE.INTER.ROT>
13

>  <SCORE.INTER.SOLV>
15.3474

>  <SCORE.INTER.VDW>
-17.254

>  <SCORE.INTER.norm>
-0.103943

>  <SCORE.INTRA>
-1.23789

>  <SCORE.INTRA.DIHEDRAL>
-7.09552

>  <SCORE.INTRA.DIHEDRAL.0>
23.8882

>  <SCORE.INTRA.POLAR>
0

>  <SCORE.INTRA.POLAR.0>
0

>  <SCORE.INTRA.REPUL>
0

>  <SCORE.INTRA.REPUL.0>
0

>  <SCORE.INTRA.SOLV>
4.4786

>  <SCORE.INTRA.SOLV.lig_0>
-97.6888

>  <SCORE.INTRA.VDW>
0.0705739

>  <SCORE.INTRA.VDW.0>
-3.9206

>  <SCORE.INTRA.norm>
-0.0353683

>  <SCORE.RESTR>
4.05086

>  <SCORE.RESTR.CAVITY>
4.05086

>  <SCORE.RESTR.norm>
0.115739

>  <SCORE.SYSTEM>
0

>  <SCORE.SYSTEM.CONST>
0

>  <SCORE.SYSTEM.DIHEDRAL>
0

>  <SCORE.SYSTEM.SOLV>
0

>  <SCORE.SYSTEM.norm>
0

>  <SCORE.heavy>
35

>  <SCORE.norm>
-0.0235728

>  <RMSD>
8.678

$$$$
2f4t_lig
 OpenBabel11021811433D
libRbt.so/2013.1/901 2013/11/27
 35 36  0  0  0  0  0  0  0  0999 V2000
    0.9131  -13.6535   29.7915 C   0  0  2  0  0  0  0  0  0  0  0  0
    1.1339  -12.7348   30.9116 O   0  0  0  0  0  0  0  0  0  0  0  0
    3.3549   -9.0302   30.9073 C   0  0  2  0  0  0  0  0  0  0  0  0
    4.4847   -8.0955   31.0197 N   0  0  0  0  0  0  0  0  0  0  0  0
   -0.0923  -14.7250   30.3117 C   0  0  2  0  0  0  0  0  0  0  0  0
   -1.3006  -14.0984   30.7941 N   0  0  0  0  0  0  0  0  0  0  0  0
    3.2961   -9.9306   32.1954 C   0  0  0  0  0  0  0  0  0  0  0  0
    3.9095   -6.4424   30.7845 C   0  0  0  0  0  0  0  0  0  0  0  0
    5.3471   -6.0253   31.0026 C   0  0  1  0  0  0  0  0  0  0  0  0
    5.9437   -5.6918   29.6334 C   0  0  0  0  0  0  0  0  0  0  0  0
    6.1283   -6.8838   28.6793 C   0  0  0  0  0  0  0  0  0  0  0  0
    6.8861   -6.4278   27.5102 N   0  0  0  0  0  0  0  0  0  0  0  0
    5.4177   -4.8404   31.7517 O   0  0  0  0  0  0  0  0  0  0  0  0
    3.1214   -8.3624   27.4232 C   0  0  0  0  0  0  0  0  0  0  0  0
    2.0203   -7.4369   27.9177 C   0  0  0  0  0  0  0  0  0  0  0  0
    0.5726  -15.5836   31.4400 C   0  0  1  0  0  0  0  0  0  0  0  0
    0.8476   -8.1532   28.4656 N   0  0  0  0  0  0  0  0  0  0  0  0
   -0.3226  -16.5663   31.9231 O   0  0  0  0  0  0  0  0  0  0  0  0
    2.1406  -10.9394   32.1363 C   0  0  2  0  0  0  0  0  0  0  0  0
    2.1316  -11.7895   33.3227 N   0  0  0  0  0  0  0  0  0  0  0  0
   -0.5806   -8.9684   30.3437 C   0  0  0  0  0  0  0  0  0  0  0  0
   -1.2196   -8.6794   31.7402 N   0  0  0  0  0  0  0  0  0  0  0  0
    0.3418   -7.8242   29.8285 C   0  0  0  0  0  0  0  0  0  0  0  0
    2.9588   -6.0016   30.5822 O   0  0  0  0  0  0  0  0  0  0  0  0
    1.8325  -16.2355   30.8610 C   0  0  2  0  0  0  0  0  0  0  0  0
    2.4796  -17.0416   31.8322 O   0  0  0  0  0  0  0  0  0  0  0  0
    2.2619  -11.8076   30.9089 C   0  0  2  0  0  0  0  0  0  0  0  0
    2.8030  -15.1390   30.3347 C   0  0  2  0  0  0  0  0  0  0  0  0
    2.1622  -14.3104   29.3426 O   0  0  0  0  0  0  0  0  0  0  0  0
    2.2904  -10.9060   29.6008 C   0  0  2  0  0  0  0  0  0  0  0  0
    2.4019  -11.7779   28.4362 O   0  0  0  0  0  0  0  0  0  0  0  0
    4.0271  -15.7230   29.7369 C   0  0  0  0  0  0  0  0  0  0  0  0
    4.9951  -14.7817   29.6836 N   0  0  0  0  0  0  0  0  0  0  0  0
    3.5222   -9.9386   29.6793 C   0  0  1  0  0  0  0  0  0  0  0  0
    3.5915   -9.1529   28.5323 O   0  0  0  0  0  0  0  0  0  0  0  0
  1  2  1  1  0  0  0
  1  5  1  0  0  0  0
  1 29  1  0  0  0  0
  3  4  1  1  0  0  0
  3  7  1  0  0  0  0
  3 34  1  0  0  0  0
  5  6  1  1  0  0  0
  5 16  1  0  0  0  0
  7 19  1  0  0  0  0
  8  4  1  0  0  0  0
  8 24  2  0  0  0  0
  9  8  1  6  0  0  0
  9 10  1  0  0  0  0
  9 13  1  0  0  0  0
 10 11  1  0  0  0  0
 11 12  1  0  0  0  0
 14 15  1  0  0  0  0
 14 35  1  0  0  0  0
 15 17  1  0  0  0  0
 16 18  1  6  0  0  0
 16 25  1  0  0  0  0
 19 20  1  1  0  0  0
 19 27  1  0  0  0  0
 21 22  1  0  0  0  0
 21 23  1  0  0  0  0
 23 17  1  0  0  0  0
 25 26  1  1  0  0  0
 25 28  1  0  0  0  0
 27  2  1  6  0  0  0
 27 30  1  0  0  0  0
 28 29  1  0  0  0  0
 28 32  1  6  0  0  0
 30 31  1  6  0  0  0
 30 34  1  0  0  0  0
 32 33  2  0  0  0  0
 34 35  1  6  0  0  0
M  END
>  <CHROM.1>
164.40310411,-125.96033661,103.21916092,-68.16822959,-171.61737147,-61.09435694
43.38092375,126.97102854,-177.04727068,-162.70876835,175.58935352,-160.92948514
-81.67402549,2.56121137,-10.73542626,30.26294025,1.91182638,-0.24820793,3.10091255

>  <Name>
2f4t_lig

>  <RI>
0

>  <Rbt.Current_Directory>
/home/itssahil/PROJECTS/Mol_Feturizer/New_Systems/rnas/2f4t

>  <Rbt.Executable>
rbdock ($Id: //depot/dev/client3/rdock/2013.1/src/exe/rbdock.cxx#4 $)

>  <Rbt.Library>
libRbt.so (2013.1, Build901 2013/11/27)

>  <Rbt.Parameter_File>
/export/apps/rDock/src/rDock_2013.1_src/data/scripts/dock_solv.prm

>  <Rbt.Receptor>
prm/pocket_docking_7.prm

>  <SCORE>
-11.1636

>  <SCORE.INTER>
-2.84452

>  <SCORE.INTER.CONST>
1

>  <SCORE.INTER.POLAR>
-1.62121

>  <SCORE.INTER.ROT>
13

>  <SCORE.INTER.SOLV>
7.41149

>  <SCORE.INTER.VDW>
-11.2295

>  <SCORE.INTER.norm>
-0.0812721

>  <SCORE.INTRA>
-8.31909

>  <SCORE.INTRA.DIHEDRAL>
-12.37

>  <SCORE.INTRA.DIHEDRAL.0>
23.8882

>  <SCORE.INTRA.POLAR>
0

>  <SCORE.INTRA.POLAR.0>
0

>  <SCORE.INTRA.REPUL>
0

>  <SCORE.INTRA.REPUL.0>
0

>  <SCORE.INTRA.SOLV>
2.43614

>  <SCORE.INTRA.SOLV.lig_0>
-97.6888

>  <SCORE.INTRA.VDW>
-3.35218

>  <SCORE.INTRA.VDW.0>
-3.9206

>  <SCORE.INTRA.norm>
-0.237688

>  <SCORE.RESTR>
0

>  <SCORE.RESTR.CAVITY>
0

>  <SCORE.RESTR.norm>
0

>  <SCORE.SYSTEM>
0

>  <SCORE.SYSTEM.CONST>
0

>  <SCORE.SYSTEM.DIHEDRAL>
0

>  <SCORE.SYSTEM.SOLV>
0

>  <SCORE.SYSTEM.norm>
0

>  <SCORE.heavy>
35

>  <SCORE.norm>
-0.31896

>  <RMSD>
8.691

$$$$
2f4t_lig
 OpenBabel11021811433D
libRbt.so/2013.1/901 2013/11/27
 35 36  0  0  0  0  0  0  0  0999 V2000
    4.8085  -11.9397   31.9079 C   0  0  2  0  0  0  0  0  0  0  0  0
    3.9345  -11.6826   30.7602 O   0  0  0  0  0  0  0  0  0  0  0  0
    3.6972   -8.2333   28.1712 C   0  0  2  0  0  0  0  0  0  0  0  0
    3.3327   -6.8960   27.6798 N   0  0  0  0  0  0  0  0  0  0  0  0
    4.6002  -13.4405   32.2738 C   0  0  2  0  0  0  0  0  0  0  0  0
    4.8749  -14.2855   31.1354 N   0  0  0  0  0  0  0  0  0  0  0  0
    2.3954   -8.9955   28.6159 C   0  0  0  0  0  0  0  0  0  0  0  0
    2.8521   -7.0006   25.9836 C   0  0  0  0  0  0  0  0  0  0  0  0
    2.6202   -5.5082   26.0686 C   0  0  1  0  0  0  0  0  0  0  0  0
    3.9684   -4.8183   25.8487 C   0  0  0  0  0  0  0  0  0  0  0  0
    4.0155   -3.3217   26.1997 C   0  0  0  0  0  0  0  0  0  0  0  0
    3.7011   -3.1703   27.6235 N   0  0  0  0  0  0  0  0  0  0  0  0
    1.7892   -5.0694   25.0259 O   0  0  0  0  0  0  0  0  0  0  0  0
    6.6028   -6.3464   28.5319 C   0  0  0  0  0  0  0  0  0  0  0  0
    8.0418   -6.8232   28.4072 C   0  0  0  0  0  0  0  0  0  0  0  0
    3.1404  -13.6701   32.7922 C   0  0  1  0  0  0  0  0  0  0  0  0
    8.9502   -5.8139   27.8201 N   0  0  0  0  0  0  0  0  0  0  0  0
    2.9318  -15.0264   33.1346 O   0  0  0  0  0  0  0  0  0  0  0  0
    2.7089  -10.3997   29.1511 C   0  0  2  0  0  0  0  0  0  0  0  0
    1.4911  -11.0707   29.5948 N   0  0  0  0  0  0  0  0  0  0  0  0
   11.3995   -5.7792   28.3010 C   0  0  0  0  0  0  0  0  0  0  0  0
   11.2545   -6.4065   29.7249 N   0  0  0  0  0  0  0  0  0  0  0  0
   10.2876   -6.2231   27.3051 C   0  0  0  0  0  0  0  0  0  0  0  0
    2.7797   -7.7936   25.2730 O   0  0  0  0  0  0  0  0  0  0  0  0
    2.9198  -12.7638   34.0077 C   0  0  2  0  0  0  0  0  0  0  0  0
    1.6146  -12.9323   34.5368 O   0  0  0  0  0  0  0  0  0  0  0  0
    3.6759  -10.3193   30.3059 C   0  0  2  0  0  0  0  0  0  0  0  0
    3.1547  -11.2778   33.6109 C   0  0  2  0  0  0  0  0  0  0  0  0
    4.4797  -11.0866   33.0730 O   0  0  0  0  0  0  0  0  0  0  0  0
    5.0069   -9.5776   29.8552 C   0  0  2  0  0  0  0  0  0  0  0  0
    5.9187   -9.5239   30.9932 O   0  0  0  0  0  0  0  0  0  0  0  0
    2.9810  -10.3623   34.7636 C   0  0  0  0  0  0  0  0  0  0  0  0
    4.1853  -10.1064   35.3204 N   0  0  0  0  0  0  0  0  0  0  0  0
    4.6427   -8.1289   29.3780 C   0  0  1  0  0  0  0  0  0  0  0  0
    5.7936   -7.4419   29.0022 O   0  0  0  0  0  0  0  0  0  0  0  0
  1  2  1  6  0  0  0
  1  5  1  0  0  0  0
  1 29  1  0  0  0  0
  3  4  1  1  0  0  0
  3  7  1  0  0  0  0
  3 34  1  0  0  0  0
  5  6  1  6  0  0  0
  5 16  1  0  0  0  0
  7 19  1  0  0  0  0
  8  4  1  0  0  0  0
  8 24  2  0  0  0  0
  9  8  1  6  0  0  0
  9 10  1  0  0  0  0
  9 13  1  0  0  0  0
 10 11  1  0  0  0  0
 11 12  1  0  0  0  0
 14 15  1  0  0  0  0
 14 35  1  0  0  0  0
 15 17  1  0  0  0  0
 16 18  1  1  0  0  0
 16 25  1  0  0  0  0
 19 20  1  1  0  0  0
 19 27  1  0  0  0  0
 21 22  1  0  0  0  0
 21 23  1  0  0  0  0
 23 17  1  0  0  0  0
 25 26  1  6  0  0  0
 25 28  1  0  0  0  0
 27  2  1  6  0  0  0
 27 30  1  0  0  0  0
 28 29  1  0  0  0  0
 28 32  1  1  0  0  0
 30 31  1  1  0  0  0
 30 34  1  0  0  0  0
 32 33  2  0  0  0  0
 34 35  1  6  0  0  0
M  END
>  <CHROM.1>
168.20353668,-84.01873387,83.53489871,-167.05128768,60.69846023,175.05234921
-176.09716337,-164.12758830,60.39936232,-104.82640986,-177.98967242,95.62932789
62.00350177,4.58686995,-8.95634402,29.77572102,-1.83233340,-0.23651359,-0.77276501

>  <Name>
2f4t_lig

>  <RI>
0

>  <Rbt.Current_Directory>
/home/itssahil/PROJECTS/Mol_Feturizer/New_Systems/rnas/2f4t

>  <Rbt.Executable>
rbdock ($Id: //depot/dev/client3/rdock/2013.1/src/exe/rbdock.cxx#4 $)

>  <Rbt.Library>
libRbt.so (2013.1, Build901 2013/11/27)

>  <Rbt.Parameter_File>
/export/apps/rDock/src/rDock_2013.1_src/data/scripts/dock_solv.prm

>  <Rbt.Receptor>
prm/pocket_docking_8.prm

>  <SCORE>
-17.3172

>  <SCORE.INTER>
-9.91835

>  <SCORE.INTER.CONST>
1

>  <SCORE.INTER.POLAR>
-1.96463

>  <SCORE.INTER.ROT>
13

>  <SCORE.INTER.SOLV>
16.19

>  <SCORE.INTER.VDW>
-17.7268

>  <SCORE.INTER.norm>
-0.283381

>  <SCORE.INTRA>
-7.41614

>  <SCORE.INTRA.DIHEDRAL>
-18.2277

>  <SCORE.INTRA.DIHEDRAL.0>
23.8882

>  <SCORE.INTRA.POLAR>
0

>  <SCORE.INTRA.POLAR.0>
0

>  <SCORE.INTRA.REPUL>
0

>  <SCORE.INTRA.REPUL.0>
0

>  <SCORE.INTRA.SOLV>
2.29484

>  <SCORE.INTRA.SOLV.lig_0>
-97.6888

>  <SCORE.INTRA.VDW>
0.550272

>  <SCORE.INTRA.VDW.0>
-3.9206

>  <SCORE.INTRA.norm>
-0.21189

>  <SCORE.RESTR>
0.0172674

>  <SCORE.RESTR.CAVITY>
0.0172674

>  <SCORE.RESTR.norm>
0.000493355

>  <SCORE.SYSTEM>
0

>  <SCORE.SYSTEM.CONST>
0

>  <SCORE.SYSTEM.DIHEDRAL>
0

>  <SCORE.SYSTEM.SOLV>
0

>  <SCORE.SYSTEM.norm>
0

>  <SCORE.heavy>
35

>  <SCORE.norm>
-0.494778

>  <RMSD>
8.695

$$$$
2f4t_lig
 OpenBabel11021811433D
libRbt.so/2013.1/901 2013/11/27
 35 36  0  0  0  0  0  0  0  0999 V2000
    8.0824   -4.6057   28.5407 C   0  0  2  0  0  0  0  0  0  0  0  0
    7.0984   -5.6366   28.8819 O   0  0  0  0  0  0  0  0  0  0  0  0
    2.9165   -6.0206   27.8713 C   0  0  2  0  0  0  0  0  0  0  0  0
    1.6891   -6.0778   27.0633 N   0  0  0  0  0  0  0  0  0  0  0  0
    9.0099   -5.2430   27.4622 C   0  0  2  0  0  0  0  0  0  0  0  0
    8.2368   -5.7027   26.3324 N   0  0  0  0  0  0  0  0  0  0  0  0
    3.7131   -4.7126   27.5133 C   0  0  0  0  0  0  0  0  0  0  0  0
    2.1060   -5.9980   25.3491 C   0  0  0  0  0  0  0  0  0  0  0  0
    0.6187   -6.0995   25.0926 C   0  0  1  0  0  0  0  0  0  0  0  0
    0.3771   -5.7338   23.6264 C   0  0  0  0  0  0  0  0  0  0  0  0
    0.9739   -6.7025   22.5917 C   0  0  0  0  0  0  0  0  0  0  0  0
    0.3497   -6.4340   21.2927 N   0  0  0  0  0  0  0  0  0  0  0  0
    0.1738   -7.4229   25.2372 O   0  0  0  0  0  0  0  0  0  0  0  0
    2.1489   -9.4610   27.7217 C   0  0  0  0  0  0  0  0  0  0  0  0
    1.7918  -10.0066   29.0958 C   0  0  0  0  0  0  0  0  0  0  0  0
    9.8297   -6.4222   28.0865 C   0  0  1  0  0  0  0  0  0  0  0  0
    2.9649  -10.4593   29.8753 N   0  0  0  0  0  0  0  0  0  0  0  0
   10.6823   -7.0118   27.1244 O   0  0  0  0  0  0  0  0  0  0  0  0
    5.0154   -4.5974   28.3177 C   0  0  2  0  0  0  0  0  0  0  0  0
    5.7558   -3.3980   27.9390 N   0  0  0  0  0  0  0  0  0  0  0  0
    4.2324  -11.0763   31.9354 C   0  0  0  0  0  0  0  0  0  0  0  0
    4.3302  -10.9870   33.4924 N   0  0  0  0  0  0  0  0  0  0  0  0
    2.8859  -10.5449   31.3611 C   0  0  0  0  0  0  0  0  0  0  0  0
    3.0195   -5.9155   24.8032 O   0  0  0  0  0  0  0  0  0  0  0  0
   10.6407   -5.8670   29.2620 C   0  0  2  0  0  0  0  0  0  0  0  0
   11.4197   -6.8858   29.8679 O   0  0  0  0  0  0  0  0  0  0  0  0
    5.8858   -5.8074   28.0866 C   0  0  2  0  0  0  0  0  0  0  0  0
    9.6857   -5.2226   30.3079 C   0  0  2  0  0  0  0  0  0  0  0  0
    8.8866   -4.1809   29.7096 O   0  0  0  0  0  0  0  0  0  0  0  0
    5.0981   -7.1313   28.4759 C   0  0  2  0  0  0  0  0  0  0  0  0
    5.9709   -8.2777   28.2457 O   0  0  0  0  0  0  0  0  0  0  0  0
   10.4275   -4.6438   31.4531 C   0  0  0  0  0  0  0  0  0  0  0  0
   10.8409   -5.6376   32.2700 N   0  0  0  0  0  0  0  0  0  0  0  0
    3.8120   -7.2360   27.5847 C   0  0  1  0  0  0  0  0  0  0  0  0
    3.1131   -8.4024   27.8826 O   0  0  0  0  0  0  0  0  0  0  0  0
  1  2  1  1  0  0  0
  1  5  1  0  0  0  0
  1 29  1  0  0  0  0
  3  4  1  6  0  0  0
  3  7  1  0  0  0  0
  3 34  1  0  0  0  0
  5  6  1  6  0  0  0
  5 16  1  0  0  0  0
  7 19  1  0  0  0  0
  8  4  1  0  0  0  0
  8 24  2  0  0  0  0
  9  8  1  6  0  0  0
  9 10  1  0  0  0  0
  9 13  1  0  0  0  0
 10 11  1  0  0  0  0
 11 12  1  0  0  0  0
 14 15  1  0  0  0  0
 14 35  1  0  0  0  0
 15 17  1  0  0  0  0
 16 18  1  6  0  0  0
 16 25  1  0  0  0  0
 19 20  1  6  0  0  0
 19 27  1  0  0  0  0
 21 22  1  0  0  0  0
 21 23  1  0  0  0  0
 23 17  1  0  0  0  0
 25 26  1  1  0  0  0
 25 28  1  0  0  0  0
 27  2  1  1  0  0  0
 27 30  1  0  0  0  0
 28 29  1  0  0  0  0
 28 32  1  1  0  0  0
 30 31  1  6  0  0  0
 30 34  1  0  0  0  0
 32 33  2  0  0  0  0
 34 35  1  1  0  0  0
M  END
>  <CHROM.1>
-85.09197762,56.69232593,166.51803742,65.54502856,164.26789747,-55.46787606
-152.98503040,157.60178654,170.78643456,178.67369163,-68.78798090,-76.06729031
74.46809408,5.26054661,-6.75713555,27.98543610,-0.29674454,-0.41599943,-0.90707193

>  <Name>
2f4t_lig

>  <RI>
0

>  <Rbt.Current_Directory>
/home/itssahil/PROJECTS/Mol_Feturizer/New_Systems/rnas/2f4t

>  <Rbt.Executable>
rbdock ($Id: //depot/dev/client3/rdock/2013.1/src/exe/rbdock.cxx#4 $)

>  <Rbt.Library>
libRbt.so (2013.1, Build901 2013/11/27)

>  <Rbt.Parameter_File>
/export/apps/rDock/src/rDock_2013.1_src/data/scripts/dock_solv.prm

>  <Rbt.Receptor>
prm/pocket_docking_7.prm

>  <SCORE>
-16.1277

>  <SCORE.INTER>
-13.2426

>  <SCORE.INTER.CONST>
1

>  <SCORE.INTER.POLAR>
-2.53657

>  <SCORE.INTER.ROT>
13

>  <SCORE.INTER.SOLV>
20.4046

>  <SCORE.INTER.VDW>
-19.4413

>  <SCORE.INTER.norm>
-0.378359

>  <SCORE.INTRA>
-2.88511

>  <SCORE.INTRA.DIHEDRAL>
-12.3939

>  <SCORE.INTRA.DIHEDRAL.0>
23.8882

>  <SCORE.INTRA.POLAR>
0

>  <SCORE.INTRA.POLAR.0>
0

>  <SCORE.INTRA.REPUL>
0

>  <SCORE.INTRA.REPUL.0>
0

>  <SCORE.INTRA.SOLV>
4.03529

>  <SCORE.INTRA.SOLV.lig_0>
-97.6888

>  <SCORE.INTRA.VDW>
1.29419

>  <SCORE.INTRA.VDW.0>
-3.9206

>  <SCORE.INTRA.norm>
-0.0824318

>  <SCORE.RESTR>
0

>  <SCORE.RESTR.CAVITY>
0

>  <SCORE.RESTR.norm>
0

>  <SCORE.SYSTEM>
0

>  <SCORE.SYSTEM.CONST>
0

>  <SCORE.SYSTEM.DIHEDRAL>
0

>  <SCORE.SYSTEM.SOLV>
0

>  <SCORE.SYSTEM.norm>
0

>  <SCORE.heavy>
35

>  <SCORE.norm>
-0.460791

>  <RMSD>
8.712

$$$$
2f4t_lig
 OpenBabel11021811433D
libRbt.so/2013.1/901 2013/11/27
 35 36  0  0  0  0  0  0  0  0999 V2000
    3.3127  -13.4821   31.1974 C   0  0  2  0  0  0  0  0  0  0  0  0
    3.1553  -12.1589   31.8070 O   0  0  0  0  0  0  0  0  0  0  0  0
    4.0891   -9.5775   28.4720 C   0  0  2  0  0  0  0  0  0  0  0  0
    4.1812   -8.3639   27.6467 N   0  0  0  0  0  0  0  0  0  0  0  0
    2.3151  -14.4170   31.9460 C   0  0  2  0  0  0  0  0  0  0  0  0
    0.9702  -13.8974   31.8639 N   0  0  0  0  0  0  0  0  0  0  0  0
    2.6024   -9.7701   28.9478 C   0  0  0  0  0  0  0  0  0  0  0  0
    3.8066   -6.9482   28.6339 C   0  0  0  0  0  0  0  0  0  0  0  0
    4.0531   -6.1409   27.3786 C   0  0  1  0  0  0  0  0  0  0  0  0
    2.9356   -5.1009   27.2719 C   0  0  0  0  0  0  0  0  0  0  0  0
    2.9092   -4.2832   25.9697 C   0  0  0  0  0  0  0  0  0  0  0  0
    2.7039   -5.2052   24.8485 N   0  0  0  0  0  0  0  0  0  0  0  0
    5.2485   -5.4120   27.4775 O   0  0  0  0  0  0  0  0  0  0  0  0
    7.4491   -8.6043   28.7321 C   0  0  0  0  0  0  0  0  0  0  0  0
    7.7339   -7.3502   29.5442 C   0  0  0  0  0  0  0  0  0  0  0  0
    2.7522  -14.5835   33.4406 C   0  0  1  0  0  0  0  0  0  0  0  0
    8.1173   -7.6279   30.9458 N   0  0  0  0  0  0  0  0  0  0  0  0
    1.8616  -15.4331   34.1373 O   0  0  0  0  0  0  0  0  0  0  0  0
    2.4397  -11.0186   29.8260 C   0  0  2  0  0  0  0  0  0  0  0  0
    1.0617  -11.1531   30.2878 N   0  0  0  0  0  0  0  0  0  0  0  0
    7.7648   -6.9714   33.3283 C   0  0  0  0  0  0  0  0  0  0  0  0
    7.7067   -5.8198   34.3830 N   0  0  0  0  0  0  0  0  0  0  0  0
    8.2441   -6.5078   31.9209 C   0  0  0  0  0  0  0  0  0  0  0  0
    3.5351   -6.7975   29.6550 O   0  0  0  0  0  0  0  0  0  0  0  0
    4.1735  -15.1555   33.4590 C   0  0  2  0  0  0  0  0  0  0  0  0
    4.6281  -15.3437   34.7893 O   0  0  0  0  0  0  0  0  0  0  0  0
    3.3553  -10.9439   31.0222 C   0  0  2  0  0  0  0  0  0  0  0  0
    5.1366  -14.2078   32.6875 C   0  0  2  0  0  0  0  0  0  0  0  0
    4.6913  -14.0069   31.3300 O   0  0  0  0  0  0  0  0  0  0  0  0
    4.8632  -10.7807   30.5485 C   0  0  2  0  0  0  0  0  0  0  0  0
    5.7184  -10.7181   31.7291 O   0  0  0  0  0  0  0  0  0  0  0  0
    6.5218  -14.7342   32.6525 C   0  0  0  0  0  0  0  0  0  0  0  0
    6.4902  -16.0725   32.4692 N   0  0  0  0  0  0  0  0  0  0  0  0
    4.9908   -9.4611   29.7108 C   0  0  1  0  0  0  0  0  0  0  0  0
    6.3089   -9.2744   29.3039 O   0  0  0  0  0  0  0  0  0  0  0  0
  1  2  1  1  0  0  0
  1  5  1  0  0  0  0
  1 29  1  0  0  0  0
  3  4  1  1  0  0  0
  3  7  1  0  0  0  0
  3 34  1  0  0  0  0
  5  6  1  1  0  0  0
  5 16  1  0  0  0  0
  7 19  1  0  0  0  0
  8  4  1  0  0  0  0
  8 24  2  0  0  0  0
  9  8  1  1  0  0  0
  9 10  1  0  0  0  0
  9 13  1  0  0  0  0
 10 11  1  0  0  0  0
 11 12  1  0  0  0  0
 14 15  1  0  0  0  0
 14 35  1  0  0  0  0
 15 17  1  0  0  0  0
 16 18  1  1  0  0  0
 16 25  1  0  0  0  0
 19 20  1  1  0  0  0
 19 27  1  0  0  0  0
 21 22  1  0  0  0  0
 21 23  1  0  0  0  0
 23 17  1  0  0  0  0
 25 26  1  1  0  0  0
 25 28  1  0  0  0  0
 27  2  1  6  0  0  0
 27 30  1  0  0  0  0
 28 29  1  0  0  0  0
 28 32  1  6  0  0  0
 30 31  1  1  0  0  0
 30 34  1  0  0  0  0
 32 33  2  0  0  0  0
 34 35  1  6  0  0  0
M  END
>  <CHROM.1>
-148.59283045,64.58380050,135.81311605,-173.00894908,61.47584832,63.61327456
62.23801281,-171.51066026,-173.42781718,144.38103602,55.42387180,39.47675754
68.94633183,4.52103065,-10.20764313,30.57275828,1.68569900,0.56617839,2.56800120

>  <Name>
2f4t_lig

>  <RI>
0

>  <Rbt.Current_Directory>
/home/itssahil/PROJECTS/Mol_Feturizer/New_Systems/rnas/2f4t

>  <Rbt.Executable>
rbdock ($Id: //depot/dev/client3/rdock/2013.1/src/exe/rbdock.cxx#4 $)

>  <Rbt.Library>
libRbt.so (2013.1, Build901 2013/11/27)

>  <Rbt.Parameter_File>
/export/apps/rDock/src/rDock_2013.1_src/data/scripts/dock_solv.prm

>  <Rbt.Receptor>
prm/pocket_docking_3.prm

>  <SCORE>
-12.5263

>  <SCORE.INTER>
-7.30105

>  <SCORE.INTER.CONST>
1

>  <SCORE.INTER.POLAR>
-1.85035

>  <SCORE.INTER.ROT>
13

>  <SCORE.INTER.SOLV>
18.3405

>  <SCORE.INTER.VDW>
-17.0797

>  <SCORE.INTER.norm>
-0.208601

>  <SCORE.INTRA>
-5.26568

>  <SCORE.INTRA.DIHEDRAL>
-14.5437

>  <SCORE.INTRA.DIHEDRAL.0>
23.8882

>  <SCORE.INTRA.POLAR>
0

>  <SCORE.INTRA.POLAR.0>
0

>  <SCORE.INTRA.REPUL>
0

>  <SCORE.INTRA.REPUL.0>
0

>  <SCORE.INTRA.SOLV>
4.31323

>  <SCORE.INTRA.SOLV.lig_0>
-97.6888

>  <SCORE.INTRA.VDW>
-0.150428

>  <SCORE.INTRA.VDW.0>
-3.9206

>  <SCORE.INTRA.norm>
-0.150448

>  <SCORE.RESTR>
0.0403808

>  <SCORE.RESTR.CAVITY>
0.0403808

>  <SCORE.RESTR.norm>
0.00115374

>  <SCORE.SYSTEM>
0

>  <SCORE.SYSTEM.CONST>
0

>  <SCORE.SYSTEM.DIHEDRAL>
0

>  <SCORE.SYSTEM.SOLV>
0

>  <SCORE.SYSTEM.norm>
0

>  <SCORE.heavy>
35

>  <SCORE.norm>
-0.357896

>  <RMSD>
8.732

$$$$
2f4t_lig
 OpenBabel11021811433D
libRbt.so/2013.1/901 2013/11/27
 35 36  0  0  0  0  0  0  0  0999 V2000
    3.6230  -13.7807   31.6448 C   0  0  2  0  0  0  0  0  0  0  0  0
    4.5998  -12.8060   31.1517 O   0  0  0  0  0  0  0  0  0  0  0  0
    4.1683   -9.5043   28.4003 C   0  0  2  0  0  0  0  0  0  0  0  0
    3.6452   -8.2732   27.7894 N   0  0  0  0  0  0  0  0  0  0  0  0
    2.9912  -13.1429   32.9190 C   0  0  2  0  0  0  0  0  0  0  0  0
    2.4188  -11.8529   32.6128 N   0  0  0  0  0  0  0  0  0  0  0  0
    2.9817  -10.5072   28.6448 C   0  0  0  0  0  0  0  0  0  0  0  0
    2.6834   -7.3872   28.9764 C   0  0  0  0  0  0  0  0  0  0  0  0
    2.4721   -6.3640   27.8825 C   0  0  1  0  0  0  0  0  0  0  0  0
    1.4458   -5.3494   28.3915 C   0  0  0  0  0  0  0  0  0  0  0  0
    1.1490   -4.1719   27.4477 C   0  0  0  0  0  0  0  0  0  0  0  0
    0.6065   -4.7079   26.1958 N   0  0  0  0  0  0  0  0  0  0  0  0
    3.6475   -5.6350   27.6435 O   0  0  0  0  0  0  0  0  0  0  0  0
    7.1683   -7.8189   29.1085 C   0  0  0  0  0  0  0  0  0  0  0  0
    7.2526   -6.3265   29.3900 C   0  0  0  0  0  0  0  0  0  0  0  0
    4.0694  -13.0145   34.0474 C   0  0  1  0  0  0  0  0  0  0  0  0
    6.9496   -5.9717   30.7938 N   0  0  0  0  0  0  0  0  0  0  0  0
    3.5147  -12.4416   35.2155 O   0  0  0  0  0  0  0  0  0  0  0  0
    3.4608  -11.8136   29.2930 C   0  0  2  0  0  0  0  0  0  0  0  0
    2.3375  -12.7103   29.5469 N   0  0  0  0  0  0  0  0  0  0  0  0
    7.2517   -6.0303   33.2711 C   0  0  0  0  0  0  0  0  0  0  0  0
    8.1400   -6.4509   34.4859 N   0  0  0  0  0  0  0  0  0  0  0  0
    7.8540   -6.4222   31.8895 C   0  0  0  0  0  0  0  0  0  0  0  0
    2.4113   -7.5537   29.9949 O   0  0  0  0  0  0  0  0  0  0  0  0
    4.6209  -14.4140   34.3391 C   0  0  2  0  0  0  0  0  0  0  0  0
    5.5983  -14.3710   35.3660 O   0  0  0  0  0  0  0  0  0  0  0  0
    4.1669  -11.5275   30.5947 C   0  0  2  0  0  0  0  0  0  0  0  0
    5.2251  -15.0267   33.0427 C   0  0  2  0  0  0  0  0  0  0  0  0
    4.2433  -15.0813   31.9870 O   0  0  0  0  0  0  0  0  0  0  0  0
    5.3868  -10.5391   30.3504 C   0  0  2  0  0  0  0  0  0  0  0  0
    6.0480  -10.2904   31.6272 O   0  0  0  0  0  0  0  0  0  0  0  0
    5.7468  -16.3957   33.2678 C   0  0  0  0  0  0  0  0  0  0  0  0
    7.0042  -16.3234   33.7571 N   0  0  0  0  0  0  0  0  0  0  0  0
    4.8396   -9.1985   29.7483 C   0  0  1  0  0  0  0  0  0  0  0  0
    5.8829   -8.2988   29.5485 O   0  0  0  0  0  0  0  0  0  0  0  0
  1  2  1  1  0  0  0
  1  5  1  0  0  0  0
  1 29  1  0  0  0  0
  3  4  1  1  0  0  0
  3  7  1  0  0  0  0
  3 34  1  0  0  0  0
  5  6  1  6  0  0  0
  5 16  1  0  0  0  0
  7 19  1  0  0  0  0
  8  4  1  0  0  0  0
  8 24  2  0  0  0  0
  9  8  1  1  0  0  0
  9 10  1  0  0  0  0
  9 13  1  0  0  0  0
 10 11  1  0  0  0  0
 11 12  1  0  0  0  0
 14 15  1  0  0  0  0
 14 35  1  0  0  0  0
 15 17  1  0  0  0  0
 16 18  1  1  0  0  0
 16 25  1  0  0  0  0
 19 20  1  1  0  0  0
 19 27  1  0  0  0  0
 21 22  1  0  0  0  0
 21 23  1  0  0  0  0
 23 17  1  0  0  0  0
 25 26  1  1  0  0  0
 25 28  1  0  0  0  0
 27  2  1  6  0  0  0
 27 30  1  0  0  0  0
 28 29  1  0  0  0  0
 28 32  1  1  0  0  0
 30 31  1  1  0  0  0
 30 34  1  0  0  0  0
 32 33  2  0  0  0  0
 34 35  1  6  0  0  0
M  END
>  <CHROM.1>
-68.19326911,69.88905948,172.40842135,176.70729980,60.98249123,53.18909967
175.10104570,65.66364748,-179.44798092,-175.02583424,-68.28431384,-84.36486395
-70.39984180,4.45987463,-10.02900613,30.88729339,1.40037845,0.67157000,2.72027042

>  <Name>
2f4t_lig

>  <RI>
0

>  <Rbt.Current_Directory>
/home/itssahil/PROJECTS/Mol_Feturizer/New_Systems/rnas/2f4t

>  <Rbt.Executable>
rbdock ($Id: //depot/dev/client3/rdock/2013.1/src/exe/rbdock.cxx#4 $)

>  <Rbt.Library>
libRbt.so (2013.1, Build901 2013/11/27)

>  <Rbt.Parameter_File>
/export/apps/rDock/src/rDock_2013.1_src/data/scripts/dock_solv.prm

>  <Rbt.Receptor>
prm/pocket_docking_3.prm

>  <SCORE>
-8.81023

>  <SCORE.INTER>
-4.15894

>  <SCORE.INTER.CONST>
1

>  <SCORE.INTER.POLAR>
-1.22631

>  <SCORE.INTER.ROT>
13

>  <SCORE.INTER.SOLV>
17.7081

>  <SCORE.INTER.VDW>
-16.8543

>  <SCORE.INTER.norm>
-0.118827

>  <SCORE.INTRA>
-5.11132

>  <SCORE.INTRA.DIHEDRAL>
-19.9435

>  <SCORE.INTRA.DIHEDRAL.0>
23.8882

>  <SCORE.INTRA.POLAR>
0

>  <SCORE.INTRA.POLAR.0>
0

>  <SCORE.INTRA.REPUL>
0

>  <SCORE.INTRA.REPUL.0>
0

>  <SCORE.INTRA.SOLV>
6.19115

>  <SCORE.INTRA.SOLV.lig_0>
-97.6888

>  <SCORE.INTRA.VDW>
1.76486

>  <SCORE.INTRA.VDW.0>
-3.9206

>  <SCORE.INTRA.norm>
-0.146038

>  <SCORE.RESTR>
0.460032

>  <SCORE.RESTR.CAVITY>
0.460032

>  <SCORE.RESTR.norm>
0.0131438

>  <SCORE.SYSTEM>
0

>  <SCORE.SYSTEM.CONST>
0

>  <SCORE.SYSTEM.DIHEDRAL>
0

>  <SCORE.SYSTEM.SOLV>
0

>  <SCORE.SYSTEM.norm>
0

>  <SCORE.heavy>
35

>  <SCORE.norm>
-0.251721

>  <RMSD>
8.735

$$$$
2f4t_lig
 OpenBabel11021811433D
libRbt.so/2013.1/901 2013/11/27
 35 36  0  0  0  0  0  0  0  0999 V2000
    1.2487  -12.2876   30.7971 C   0  0  2  0  0  0  0  0  0  0  0  0
    2.0347  -11.5752   31.8080 O   0  0  0  0  0  0  0  0  0  0  0  0
    4.2012   -7.8601   31.4062 C   0  0  2  0  0  0  0  0  0  0  0  0
    5.2959   -6.9228   31.1132 N   0  0  0  0  0  0  0  0  0  0  0  0
    0.3296  -13.2686   31.5861 C   0  0  2  0  0  0  0  0  0  0  0  0
   -0.4756  -12.5514   32.5468 N   0  0  0  0  0  0  0  0  0  0  0  0
    4.7348   -9.0043   32.3441 C   0  0  0  0  0  0  0  0  0  0  0  0
    5.8936   -6.2227   32.6203 C   0  0  0  0  0  0  0  0  0  0  0  0
    6.8748   -5.4647   31.7538 C   0  0  1  0  0  0  0  0  0  0  0  0
    7.6014   -4.4595   32.6502 C   0  0  0  0  0  0  0  0  0  0  0  0
    6.7241   -3.3495   33.2531 C   0  0  0  0  0  0  0  0  0  0  0  0
    7.5931   -2.4097   33.9677 N   0  0  0  0  0  0  0  0  0  0  0  0
    7.8678   -6.3211   31.2530 O   0  0  0  0  0  0  0  0  0  0  0  0
    3.2602   -6.3217   28.4231 C   0  0  0  0  0  0  0  0  0  0  0  0
    1.8598   -6.0299   27.9062 C   0  0  0  0  0  0  0  0  0  0  0  0
    1.1956  -14.3618   32.2984 C   0  0  1  0  0  0  0  0  0  0  0  0
    1.8120   -4.9317   26.9161 N   0  0  0  0  0  0  0  0  0  0  0  0
    0.3793  -15.2661   33.0170 O   0  0  0  0  0  0  0  0  0  0  0  0
    3.6395  -10.0260   32.6805 C   0  0  2  0  0  0  0  0  0  0  0  0
    4.1685  -11.0983   33.5175 N   0  0  0  0  0  0  0  0  0  0  0  0
    1.2351   -4.8560   24.4886 C   0  0  0  0  0  0  0  0  0  0  0  0
    1.9198   -6.2003   24.0809 N   0  0  0  0  0  0  0  0  0  0  0  0
    0.6841   -4.8506   25.9452 C   0  0  0  0  0  0  0  0  0  0  0  0
    5.6348   -6.3290   33.6502 O   0  0  0  0  0  0  0  0  0  0  0  0
    2.0071  -15.0976   31.2270 C   0  0  2  0  0  0  0  0  0  0  0  0
    2.8082  -16.1148   31.8060 O   0  0  0  0  0  0  0  0  0  0  0  0
    3.0696  -10.6220   31.4177 C   0  0  2  0  0  0  0  0  0  0  0  0
    2.8968  -14.0863   30.4480 C   0  0  2  0  0  0  0  0  0  0  0  0
    2.0978  -13.0450   29.8491 O   0  0  0  0  0  0  0  0  0  0  0  0
    2.5000   -9.4738   30.4785 C   0  0  2  0  0  0  0  0  0  0  0  0
    1.9530  -10.0866   29.2726 O   0  0  0  0  0  0  0  0  0  0  0  0
    3.6813  -14.7478   29.3784 C   0  0  0  0  0  0  0  0  0  0  0  0
    4.9696  -14.3472   29.4520 N   0  0  0  0  0  0  0  0  0  0  0  0
    3.6679   -8.4936   30.1118 C   0  0  1  0  0  0  0  0  0  0  0  0
    3.2064   -7.4897   29.2650 O   0  0  0  0  0  0  0  0  0  0  0  0
  1  2  1  1  0  0  0
  1  5  1  0  0  0  0
  1 29  1  0  0  0  0
  3  4  1  6  0  0  0
  3  7  1  0  0  0  0
  3 34  1  0  0  0  0
  5  6  1  1  0  0  0
  5 16  1  0  0  0  0
  7 19  1  0  0  0  0
  8  4  1  0  0  0  0
  8 24  2  0  0  0  0
  9  8  1  1  0  0  0
  9 10  1  0  0  0  0
  9 13  1  0  0  0  0
 10 11  1  0  0  0  0
 11 12  1  0  0  0  0
 14 15  1  0  0  0  0
 14 35  1  0  0  0  0
 15 17  1  0  0  0  0
 16 18  1  6  0  0  0
 16 25  1  0  0  0  0
 19 20  1  1  0  0  0
 19 27  1  0  0  0  0
 21 22  1  0  0  0  0
 21 23  1  0  0  0  0
 23 17  1  0  0  0  0
 25 26  1  1  0  0  0
 25 28  1  0  0  0  0
 27  2  1  1  0  0  0
 27 30  1  0  0  0  0
 28 29  1  0  0  0  0
 28 32  1  6  0  0  0
 30 31  1  6  0  0  0
 30 34  1  0  0  0  0
 32 33  2  0  0  0  0
 34 35  1  6  0  0  0
M  END
>  <CHROM.1>
176.32010628,-59.93302274,172.21466154,-64.98087404,-174.51228776,-174.03514634
-178.84689021,156.64271591,66.32449782,-122.82216830,177.52619834,-132.08303221
62.77300920,3.38385122,-9.31282550,30.64854106,2.10637041,0.88652929,2.59837133

>  <Name>
2f4t_lig

>  <RI>
0

>  <Rbt.Current_Directory>
/home/itssahil/PROJECTS/Mol_Feturizer/New_Systems/rnas/2f4t

>  <Rbt.Executable>
rbdock ($Id: //depot/dev/client3/rdock/2013.1/src/exe/rbdock.cxx#4 $)

>  <Rbt.Library>
libRbt.so (2013.1, Build901 2013/11/27)

>  <Rbt.Parameter_File>
/export/apps/rDock/src/rDock_2013.1_src/data/scripts/dock_solv.prm

>  <Rbt.Receptor>
prm/pocket_docking_4.prm

>  <SCORE>
-15.6534

>  <SCORE.INTER>
-6.71358

>  <SCORE.INTER.CONST>
1

>  <SCORE.INTER.POLAR>
-2.55456

>  <SCORE.INTER.ROT>
13

>  <SCORE.INTER.SOLV>
9.80487

>  <SCORE.INTER.VDW>
-11.4955

>  <SCORE.INTER.norm>
-0.191817

>  <SCORE.INTRA>
-8.96828

>  <SCORE.INTRA.DIHEDRAL>
-19.8618

>  <SCORE.INTRA.DIHEDRAL.0>
23.8882

>  <SCORE.INTRA.POLAR>
0

>  <SCORE.INTRA.POLAR.0>
0

>  <SCORE.INTRA.REPUL>
0

>  <SCORE.INTRA.REPUL.0>
0

>  <SCORE.INTRA.SOLV>
0.100339

>  <SCORE.INTRA.SOLV.lig_0>
-97.6888

>  <SCORE.INTRA.VDW>
0.912423

>  <SCORE.INTRA.VDW.0>
-3.9206

>  <SCORE.INTRA.norm>
-0.256237

>  <SCORE.RESTR>
0.0284294

>  <SCORE.RESTR.CAVITY>
0.0284294

>  <SCORE.RESTR.norm>
0.000812269

>  <SCORE.SYSTEM>
0

>  <SCORE.SYSTEM.CONST>
0

>  <SCORE.SYSTEM.DIHEDRAL>
0

>  <SCORE.SYSTEM.SOLV>
0

>  <SCORE.SYSTEM.norm>
0

>  <SCORE.heavy>
35

>  <SCORE.norm>
-0.447241

>  <RMSD>
8.735

$$$$
2f4t_lig
 OpenBabel11021811433D
libRbt.so/2013.1/901 2013/11/27
 35 36  0  0  0  0  0  0  0  0999 V2000
    4.8743  -11.5154   31.8506 C   0  0  2  0  0  0  0  0  0  0  0  0
    4.0038  -11.4693   30.6728 O   0  0  0  0  0  0  0  0  0  0  0  0
    3.8307   -8.3192   27.7226 C   0  0  2  0  0  0  0  0  0  0  0  0
    3.4044   -7.0913   27.0347 N   0  0  0  0  0  0  0  0  0  0  0  0
    4.7783  -12.9732   32.3941 C   0  0  2  0  0  0  0  0  0  0  0  0
    5.1395  -13.9240   31.3690 N   0  0  0  0  0  0  0  0  0  0  0  0
    2.5702   -9.2113   28.0208 C   0  0  0  0  0  0  0  0  0  0  0  0
    2.2562   -6.2136   28.0497 C   0  0  0  0  0  0  0  0  0  0  0  0
    2.2176   -5.1909   26.9358 C   0  0  1  0  0  0  0  0  0  0  0  0
    0.9571   -4.3449   27.1294 C   0  0  0  0  0  0  0  0  0  0  0  0
    0.5788   -3.4342   25.9493 C   0  0  0  0  0  0  0  0  0  0  0  0
    0.1395   -4.2794   24.8350 N   0  0  0  0  0  0  0  0  0  0  0  0
    3.2976   -4.2999   27.0350 O   0  0  0  0  0  0  0  0  0  0  0  0
    6.8263   -6.4270   29.0890 C   0  0  0  0  0  0  0  0  0  0  0  0
    7.1728   -5.5871   27.8691 C   0  0  0  0  0  0  0  0  0  0  0  0
    3.3320  -13.2556   32.9240 C   0  0  1  0  0  0  0  0  0  0  0  0
    7.9807   -6.3109   26.8632 N   0  0  0  0  0  0  0  0  0  0  0  0
    3.2247  -14.5733   33.4266 O   0  0  0  0  0  0  0  0  0  0  0  0
    2.9466  -10.5084   28.7503 C   0  0  2  0  0  0  0  0  0  0  0  0
    1.7575  -11.2991   29.0517 N   0  0  0  0  0  0  0  0  0  0  0  0
    8.3466   -5.0698   24.7284 C   0  0  0  0  0  0  0  0  0  0  0  0
    9.3069   -4.2021   23.8527 N   0  0  0  0  0  0  0  0  0  0  0  0
    8.9929   -5.5779   26.0511 C   0  0  0  0  0  0  0  0  0  0  0  0
    1.8236   -6.3832   29.0105 O   0  0  0  0  0  0  0  0  0  0  0  0
    3.0184  -12.2305   34.0187 C   0  0  2  0  0  0  0  0  0  0  0  0
    1.7211  -12.4386   34.5531 O   0  0  0  0  0  0  0  0  0  0  0  0
    3.6711  -10.1980   30.0363 C   0  0  2  0  0  0  0  0  0  0  0  0
    3.1426  -10.7888   33.4466 C   0  0  2  0  0  0  0  0  0  0  0  0
    4.4580  -10.5577   32.9009 O   0  0  0  0  0  0  0  0  0  0  0  0
    4.9636   -9.3228   29.7394 C   0  0  2  0  0  0  0  0  0  0  0  0
    5.6404   -9.0478   31.0025 O   0  0  0  0  0  0  0  0  0  0  0  0
    2.8763   -9.7584   34.4782 C   0  0  0  0  0  0  0  0  0  0  0  0
    1.7104   -9.1344   34.2006 N   0  0  0  0  0  0  0  0  0  0  0  0
    4.5218   -7.9836   29.0534 C   0  0  1  0  0  0  0  0  0  0  0  0
    5.6314   -7.1805   28.8053 O   0  0  0  0  0  0  0  0  0  0  0  0
  1  2  1  6  0  0  0
  1  5  1  0  0  0  0
  1 29  1  0  0  0  0
  3  4  1  1  0  0  0
  3  7  1  0  0  0  0
  3 34  1  0  0  0  0
  5  6  1  6  0  0  0
  5 16  1  0  0  0  0
  7 19  1  0  0  0  0
  8  4  1  0  0  0  0
  8 24  2  0  0  0  0
  9  8  1  1  0  0  0
  9 10  1  0  0  0  0
  9 13  1  0  0  0  0
 10 11  1  0  0  0  0
 11 12  1  0  0  0  0
 14 15  1  0  0  0  0
 14 35  1  0  0  0  0
 15 17  1  0  0  0  0
 16 18  1  1  0  0  0
 16 25  1  0  0  0  0
 19 20  1  1  0  0  0
 19 27  1  0  0  0  0
 21 22  1  0  0  0  0
 21 23  1  0  0  0  0
 23 17  1  0  0  0  0
 25 26  1  6  0  0  0
 25 28  1  0  0  0  0
 27  2  1  6  0  0  0
 27 30  1  0  0  0  0
 28 29  1  0  0  0  0
 28 32  1  1  0  0  0
 30 31  1  1  0  0  0
 30 34  1  0  0  0  0
 32 33  2  0  0  0  0
 34 35  1  6  0  0  0
M  END
>  <CHROM.1>
169.58973560,58.97218442,161.94977619,-168.14061278,69.13099783,-85.73563991
-168.30022038,-146.69522119,176.01198833,-91.42772849,171.49895656,-110.76069367
-175.62325968,4.03782144,-8.57442939,29.52648013,-1.73583735,0.17804760,-0.73139936

>  <Name>
2f4t_lig

>  <RI>
0

>  <Rbt.Current_Directory>
/home/itssahil/PROJECTS/Mol_Feturizer/New_Systems/rnas/2f4t

>  <Rbt.Executable>
rbdock ($Id: //depot/dev/client3/rdock/2013.1/src/exe/rbdock.cxx#4 $)

>  <Rbt.Library>
libRbt.so (2013.1, Build901 2013/11/27)

>  <Rbt.Parameter_File>
/export/apps/rDock/src/rDock_2013.1_src/data/scripts/dock_solv.prm

>  <Rbt.Receptor>
prm/pocket_docking_7.prm

>  <SCORE>
-17.9604

>  <SCORE.INTER>
-10.6651

>  <SCORE.INTER.CONST>
1

>  <SCORE.INTER.POLAR>
-2.44416

>  <SCORE.INTER.ROT>
13

>  <SCORE.INTER.SOLV>
15.2907

>  <SCORE.INTER.VDW>
-16.3264

>  <SCORE.INTER.norm>
-0.304718

>  <SCORE.INTRA>
-7.30869

>  <SCORE.INTRA.DIHEDRAL>
-15.947

>  <SCORE.INTRA.DIHEDRAL.0>
23.8882

>  <SCORE.INTRA.POLAR>
0

>  <SCORE.INTRA.POLAR.0>
0

>  <SCORE.INTRA.REPUL>
0

>  <SCORE.INTRA.REPUL.0>
0

>  <SCORE.INTRA.SOLV>
0.198957

>  <SCORE.INTRA.SOLV.lig_0>
-97.6888

>  <SCORE.INTRA.VDW>
0.565344

>  <SCORE.INTRA.VDW.0>
-3.9206

>  <SCORE.INTRA.norm>
-0.20882

>  <SCORE.RESTR>
0.0133762

>  <SCORE.RESTR.CAVITY>
0.0133762

>  <SCORE.RESTR.norm>
0.000382176

>  <SCORE.SYSTEM>
0

>  <SCORE.SYSTEM.CONST>
0

>  <SCORE.SYSTEM.DIHEDRAL>
0

>  <SCORE.SYSTEM.SOLV>
0

>  <SCORE.SYSTEM.norm>
0

>  <SCORE.heavy>
35

>  <SCORE.norm>
-0.513156

>  <RMSD>
8.736

$$$$
2f4t_lig
 OpenBabel11021811433D
libRbt.so/2013.1/901 2013/11/27
 35 36  0  0  0  0  0  0  0  0999 V2000
    7.4703   -4.4094   29.3207 C   0  0  2  0  0  0  0  0  0  0  0  0
    7.7847   -5.1147   28.0754 O   0  0  0  0  0  0  0  0  0  0  0  0
    3.9711   -4.9909   26.0509 C   0  0  2  0  0  0  0  0  0  0  0  0
    2.9751   -5.0758   24.9723 N   0  0  0  0  0  0  0  0  0  0  0  0
    8.7693   -4.4641   30.1805 C   0  0  2  0  0  0  0  0  0  0  0  0
    9.8830   -3.8958   29.4579 N   0  0  0  0  0  0  0  0  0  0  0  0
    5.1552   -4.0630   25.5921 C   0  0  0  0  0  0  0  0  0  0  0  0
    1.3966   -4.5739   25.5848 C   0  0  0  0  0  0  0  0  0  0  0  0
    0.8886   -4.8393   24.1849 C   0  0  1  0  0  0  0  0  0  0  0  0
    0.6144   -6.3405   24.0701 C   0  0  0  0  0  0  0  0  0  0  0  0
    0.3445   -6.8611   22.6484 C   0  0  0  0  0  0  0  0  0  0  0  0
   -0.9002   -6.2575   22.1632 N   0  0  0  0  0  0  0  0  0  0  0  0
   -0.3454   -4.2056   23.9704 O   0  0  0  0  0  0  0  0  0  0  0  0
    2.8366   -8.4374   27.1704 C   0  0  0  0  0  0  0  0  0  0  0  0
    1.3674   -8.1367   27.4240 C   0  0  0  0  0  0  0  0  0  0  0  0
    9.0774   -5.9421   30.5961 C   0  0  1  0  0  0  0  0  0  0  0  0
    1.0776   -7.7388   28.8191 N   0  0  0  0  0  0  0  0  0  0  0  0
   10.2512   -6.0133   31.3819 O   0  0  0  0  0  0  0  0  0  0  0  0
    6.2383   -3.9405   26.6730 C   0  0  2  0  0  0  0  0  0  0  0  0
    7.3441   -3.1087   26.2088 N   0  0  0  0  0  0  0  0  0  0  0  0
    0.6690   -9.7293   30.2691 C   0  0  0  0  0  0  0  0  0  0  0  0
    1.7795   -9.3992   31.3177 N   0  0  0  0  0  0  0  0  0  0  0  0
    0.0417   -8.4688   29.6036 C   0  0  0  0  0  0  0  0  0  0  0  0
    1.0310   -4.2425   26.5311 O   0  0  0  0  0  0  0  0  0  0  0  0
    7.8710   -6.4784   31.3736 C   0  0  2  0  0  0  0  0  0  0  0  0
    8.0903   -7.8156   31.7927 O   0  0  0  0  0  0  0  0  0  0  0  0
    6.7685   -5.3029   27.0439 C   0  0  2  0  0  0  0  0  0  0  0  0
    6.5911   -6.3908   30.4932 C   0  0  2  0  0  0  0  0  0  0  0  0
    6.3501   -5.0359   30.0598 O   0  0  0  0  0  0  0  0  0  0  0  0
    5.5816   -6.2366   27.5385 C   0  0  2  0  0  0  0  0  0  0  0  0
    6.1315   -7.5407   27.8934 O   0  0  0  0  0  0  0  0  0  0  0  0
    5.3887   -6.8723   31.2139 C   0  0  0  0  0  0  0  0  0  0  0  0
    4.6596   -5.8137   31.6305 N   0  0  0  0  0  0  0  0  0  0  0  0
    4.5351   -6.3819   26.3796 C   0  0  1  0  0  0  0  0  0  0  0  0
    3.4944   -7.2188   26.7725 O   0  0  0  0  0  0  0  0  0  0  0  0
  1  2  1  6  0  0  0
  1  5  1  0  0  0  0
  1 29  1  0  0  0  0
  3  4  1  6  0  0  0
  3  7  1  0  0  0  0
  3 34  1  0  0  0  0
  5  6  1  6  0  0  0
  5 16  1  0  0  0  0
  7 19  1  0  0  0  0
  8  4  1  0  0  0  0
  8 24  2  0  0  0  0
  9  8  1  1  0  0  0
  9 10  1  0  0  0  0
  9 13  1  0  0  0  0
 10 11  1  0  0  0  0
 11 12  1  0  0  0  0
 14 15  1  0  0  0  0
 14 35  1  0  0  0  0
 15 17  1  0  0  0  0
 16 18  1  1  0  0  0
 16 25  1  0  0  0  0
 19 20  1  6  0  0  0
 19 27  1  0  0  0  0
 21 22  1  0  0  0  0
 21 23  1  0  0  0  0
 23 17  1  0  0  0  0
 25 26  1  6  0  0  0
 25 28  1  0  0  0  0
 27  2  1  1  0  0  0
 27 30  1  0  0  0  0
 28 29  1  0  0  0  0
 28 32  1  1  0  0  0
 30 31  1  6  0  0  0
 30 34  1  0  0  0  0
 32 33  2  0  0  0  0
 34 35  1  1  0  0  0
M  END
>  <CHROM.1>
177.63970850,-123.89497769,82.54519193,-168.85973024,-64.84086653,-89.64455221
179.22498546,-125.62499481,63.69162705,85.44783140,56.11650865,102.48089161
174.63177803,4.43489265,-6.05245357,27.85169007,-0.47808551,-0.41121013,-1.00045445

>  <Name>
2f4t_lig

>  <RI>
0

>  <Rbt.Current_Directory>
/home/itssahil/PROJECTS/Mol_Feturizer/New_Systems/rnas/2f4t

>  <Rbt.Executable>
rbdock ($Id: //depot/dev/client3/rdock/2013.1/src/exe/rbdock.cxx#4 $)

>  <Rbt.Library>
libRbt.so (2013.1, Build901 2013/11/27)

>  <Rbt.Parameter_File>
/export/apps/rDock/src/rDock_2013.1_src/data/scripts/dock_solv.prm

>  <Rbt.Receptor>
prm/pocket_docking_8.prm

>  <SCORE>
-14.2526

>  <SCORE.INTER>
-8.63614

>  <SCORE.INTER.CONST>
1

>  <SCORE.INTER.POLAR>
-0.91008

>  <SCORE.INTER.ROT>
13

>  <SCORE.INTER.SOLV>
9.57653

>  <SCORE.INTER.VDW>
-18.1827

>  <SCORE.INTER.norm>
-0.246747

>  <SCORE.INTRA>
-5.61647

>  <SCORE.INTRA.DIHEDRAL>
-15.1819

>  <SCORE.INTRA.DIHEDRAL.0>
23.8882

>  <SCORE.INTRA.POLAR>
0

>  <SCORE.INTRA.POLAR.0>
0

>  <SCORE.INTRA.REPUL>
0

>  <SCORE.INTRA.REPUL.0>
0

>  <SCORE.INTRA.SOLV>
3.75154

>  <SCORE.INTRA.SOLV.lig_0>
-97.6888

>  <SCORE.INTRA.VDW>
0.0986907

>  <SCORE.INTRA.VDW.0>
-3.9206

>  <SCORE.INTRA.norm>
-0.160471

>  <SCORE.RESTR>
0

>  <SCORE.RESTR.CAVITY>
0

>  <SCORE.RESTR.norm>
0

>  <SCORE.SYSTEM>
0

>  <SCORE.SYSTEM.CONST>
0

>  <SCORE.SYSTEM.DIHEDRAL>
0

>  <SCORE.SYSTEM.SOLV>
0

>  <SCORE.SYSTEM.norm>
0

>  <SCORE.heavy>
35

>  <SCORE.norm>
-0.407218

>  <RMSD>
8.744

$$$$
2f4t_lig
 OpenBabel11021811433D
libRbt.so/2013.1/901 2013/11/27
 35 36  0  0  0  0  0  0  0  0999 V2000
    4.6037  -12.7527   32.5636 C   0  0  2  0  0  0  0  0  0  0  0  0
    3.6157  -12.7968   31.4823 O   0  0  0  0  0  0  0  0  0  0  0  0
    3.5469  -10.0954   28.1126 C   0  0  2  0  0  0  0  0  0  0  0  0
    3.1708   -8.9572   27.2607 N   0  0  0  0  0  0  0  0  0  0  0  0
    4.4870  -14.1200   33.3029 C   0  0  2  0  0  0  0  0  0  0  0  0
    4.6837  -15.2153   32.3826 N   0  0  0  0  0  0  0  0  0  0  0  0
    2.2483  -10.8668   28.5510 C   0  0  0  0  0  0  0  0  0  0  0  0
    1.9184   -8.0061   28.0643 C   0  0  0  0  0  0  0  0  0  0  0  0
    1.9719   -7.1071   26.8489 C   0  0  1  0  0  0  0  0  0  0  0  0
    0.9839   -7.6622   25.8204 C   0  0  0  0  0  0  0  0  0  0  0  0
    0.7615   -6.7905   24.5731 C   0  0  0  0  0  0  0  0  0  0  0  0
    2.0520   -6.6031   23.9034 N   0  0  0  0  0  0  0  0  0  0  0  0
    1.5183   -5.8157   27.1597 O   0  0  0  0  0  0  0  0  0  0  0  0
    6.2174   -7.8628   28.4101 C   0  0  0  0  0  0  0  0  0  0  0  0
    7.6880   -8.1801   28.6344 C   0  0  0  0  0  0  0  0  0  0  0  0
    3.0925  -14.2339   34.0063 C   0  0  1  0  0  0  0  0  0  0  0  0
    8.0466   -8.3437   30.0603 N   0  0  0  0  0  0  0  0  0  0  0  0
    2.9679  -15.4669   34.6878 O   0  0  0  0  0  0  0  0  0  0  0  0
    2.5719  -12.0648   29.4546 C   0  0  2  0  0  0  0  0  0  0  0  0
    1.3498  -12.7394   29.8808 N   0  0  0  0  0  0  0  0  0  0  0  0
    9.7461   -6.6157   30.6580 C   0  0  0  0  0  0  0  0  0  0  0  0
    9.9787   -6.0865   29.2062 N   0  0  0  0  0  0  0  0  0  0  0  0
    8.3028   -7.1448   30.9078 C   0  0  0  0  0  0  0  0  0  0  0  0
    1.3984   -8.0845   28.9931 O   0  0  0  0  0  0  0  0  0  0  0  0
    2.9545  -13.0595   34.9807 C   0  0  2  0  0  0  0  0  0  0  0  0
    1.7126  -13.1095   35.6640 O   0  0  0  0  0  0  0  0  0  0  0  0
    3.3364  -11.6134   30.6739 C   0  0  2  0  0  0  0  0  0  0  0  0
    3.0953  -11.7137   34.2126 C   0  0  2  0  0  0  0  0  0  0  0  0
    4.3553  -11.6436   33.5133 O   0  0  0  0  0  0  0  0  0  0  0  0
    4.6662  -10.8602   30.2388 C   0  0  2  0  0  0  0  0  0  0  0  0
    5.3809  -10.4444   31.4411 O   0  0  0  0  0  0  0  0  0  0  0  0
    2.9978  -10.5452   35.1193 C   0  0  0  0  0  0  0  0  0  0  0  0
    4.2211   -9.9928   35.2747 N   0  0  0  0  0  0  0  0  0  0  0  0
    4.2803   -9.6109   29.3730 C   0  0  1  0  0  0  0  0  0  0  0  0
    5.4247   -8.9121   28.9988 O   0  0  0  0  0  0  0  0  0  0  0  0
  1  2  1  6  0  0  0
  1  5  1  0  0  0  0
  1 29  1  0  0  0  0
  3  4  1  6  0  0  0
  3  7  1  0  0  0  0
  3 34  1  0  0  0  0
  5  6  1  6  0  0  0
  5 16  1  0  0  0  0
  7 19  1  0  0  0  0
  8  4  1  0  0  0  0
  8 24  2  0  0  0  0
  9  8  1  1  0  0  0
  9 10  1  0  0  0  0
  9 13  1  0  0  0  0
 10 11  1  0  0  0  0
 11 12  1  0  0  0  0
 14 15  1  0  0  0  0
 14 35  1  0  0  0  0
 15 17  1  0  0  0  0
 16 18  1  1  0  0  0
 16 25  1  0  0  0  0
 19 20  1  1  0  0  0
 19 27  1  0  0  0  0
 21 22  1  0  0  0  0
 21 23  1  0  0  0  0
 23 17  1  0  0  0  0
 25 26  1  6  0  0  0
 25 28  1  0  0  0  0
 27  2  1  1  0  0  0
 27 30  1  0  0  0  0
 28 29  1  0  0  0  0
 28 32  1  1  0  0  0
 30 31  1  1  0  0  0
 30 34  1  0  0  0  0
 32 33  2  0  0  0  0
 34 35  1  6  0  0  0
M  END
>  <CHROM.1>
172.73975614,51.10148827,88.67278540,172.87564464,58.70486756,-57.34229630
-179.89476605,-81.45437773,64.71714986,-80.20158459,165.54852428,106.90062771
64.96541797,3.98025095,-10.14275461,30.42776803,-1.59745825,-0.40404454,-0.87406143

>  <Name>
2f4t_lig

>  <RI>
0

>  <Rbt.Current_Directory>
/home/itssahil/PROJECTS/Mol_Feturizer/New_Systems/rnas/2f4t

>  <Rbt.Executable>
rbdock ($Id: //depot/dev/client3/rdock/2013.1/src/exe/rbdock.cxx#4 $)

>  <Rbt.Library>
libRbt.so (2013.1, Build901 2013/11/27)

>  <Rbt.Parameter_File>
/export/apps/rDock/src/rDock_2013.1_src/data/scripts/dock_solv.prm

>  <Rbt.Receptor>
prm/pocket_docking_5.prm

>  <SCORE>
-20.0413

>  <SCORE.INTER>
-15.1145

>  <SCORE.INTER.CONST>
1

>  <SCORE.INTER.POLAR>
-2.22122

>  <SCORE.INTER.ROT>
13

>  <SCORE.INTER.SOLV>
16.0824

>  <SCORE.INTER.VDW>
-20.2997

>  <SCORE.INTER.norm>
-0.431842

>  <SCORE.INTRA>
-4.92682

>  <SCORE.INTRA.DIHEDRAL>
-18.9918

>  <SCORE.INTRA.DIHEDRAL.0>
23.8882

>  <SCORE.INTRA.POLAR>
0

>  <SCORE.INTRA.POLAR.0>
0

>  <SCORE.INTRA.REPUL>
0

>  <SCORE.INTRA.REPUL.0>
0

>  <SCORE.INTRA.SOLV>
3.88961

>  <SCORE.INTRA.SOLV.lig_0>
-97.6888

>  <SCORE.INTRA.VDW>
2.62428

>  <SCORE.INTRA.VDW.0>
-3.9206

>  <SCORE.INTRA.norm>
-0.140766

>  <SCORE.RESTR>
0

>  <SCORE.RESTR.CAVITY>
0

>  <SCORE.RESTR.norm>
0

>  <SCORE.SYSTEM>
0

>  <SCORE.SYSTEM.CONST>
0

>  <SCORE.SYSTEM.DIHEDRAL>
0

>  <SCORE.SYSTEM.SOLV>
0

>  <SCORE.SYSTEM.norm>
0

>  <SCORE.heavy>
35

>  <SCORE.norm>
-0.572608

>  <RMSD>
8.746

$$$$
2f4t_lig
 OpenBabel11021811433D
libRbt.so/2013.1/901 2013/11/27
 35 36  0  0  0  0  0  0  0  0999 V2000
    1.3062  -12.2389   30.4677 C   0  0  2  0  0  0  0  0  0  0  0  0
    2.1330  -11.4218   31.3599 O   0  0  0  0  0  0  0  0  0  0  0  0
    4.5738   -8.0118   30.3248 C   0  0  2  0  0  0  0  0  0  0  0  0
    5.7431   -7.2253   29.9044 N   0  0  0  0  0  0  0  0  0  0  0  0
    0.3133  -13.0068   31.3919 C   0  0  2  0  0  0  0  0  0  0  0  0
   -0.4462  -12.0838   32.2022 N   0  0  0  0  0  0  0  0  0  0  0  0
    4.9885   -8.9696   31.5014 C   0  0  0  0  0  0  0  0  0  0  0  0
    6.9978   -8.3101   29.2980 C   0  0  0  0  0  0  0  0  0  0  0  0
    7.8105   -7.0583   29.0513 C   0  0  1  0  0  0  0  0  0  0  0  0
    9.1676   -7.2473   29.7328 C   0  0  0  0  0  0  0  0  0  0  0  0
   10.0678   -6.0013   29.7808 C   0  0  0  0  0  0  0  0  0  0  0  0
    9.4619   -5.0275   30.6939 N   0  0  0  0  0  0  0  0  0  0  0  0
    8.0857   -6.9001   27.6840 O   0  0  0  0  0  0  0  0  0  0  0  0
    3.0739   -6.9127   27.4322 C   0  0  0  0  0  0  0  0  0  0  0  0
    2.8397   -7.2906   25.9776 C   0  0  0  0  0  0  0  0  0  0  0  0
    1.0935  -14.0209   32.2948 C   0  0  1  0  0  0  0  0  0  0  0  0
    2.0519   -6.2890   25.2261 N   0  0  0  0  0  0  0  0  0  0  0  0
    0.2093  -14.7323   33.1388 O   0  0  0  0  0  0  0  0  0  0  0  0
    3.8110   -9.8296   31.9813 C   0  0  2  0  0  0  0  0  0  0  0  0
    4.2299  -10.7377   33.0444 N   0  0  0  0  0  0  0  0  0  0  0  0
    0.3698   -5.5178   23.5506 C   0  0  0  0  0  0  0  0  0  0  0  0
   -0.6927   -5.9221   22.4784 N   0  0  0  0  0  0  0  0  0  0  0  0
    1.2440   -6.7077   24.0456 C   0  0  0  0  0  0  0  0  0  0  0  0
    7.0825   -9.3678   29.1834 O   0  0  0  0  0  0  0  0  0  0  0  0
    1.8591  -14.9813   31.3787 C   0  0  2  0  0  0  0  0  0  0  0  0
    2.5811  -15.9388   32.1361 O   0  0  0  0  0  0  0  0  0  0  0  0
    3.2475  -10.6360   30.8380 C   0  0  2  0  0  0  0  0  0  0  0  0
    2.8247  -14.1800   30.4586 C   0  0  2  0  0  0  0  0  0  0  0  0
    2.1067  -13.2023   29.6774 O   0  0  0  0  0  0  0  0  0  0  0  0
    2.7973   -9.6723   29.6575 C   0  0  2  0  0  0  0  0  0  0  0  0
    2.2533  -10.4847   28.5745 O   0  0  0  0  0  0  0  0  0  0  0  0
    3.5685  -15.0652   29.5312 C   0  0  0  0  0  0  0  0  0  0  0  0
    4.8931  -14.8225   29.6425 N   0  0  0  0  0  0  0  0  0  0  0  0
    4.0454   -8.8636   29.1601 C   0  0  1  0  0  0  0  0  0  0  0  0
    3.6891   -8.0286   28.1048 O   0  0  0  0  0  0  0  0  0  0  0  0
  1  2  1  1  0  0  0
  1  5  1  0  0  0  0
  1 29  1  0  0  0  0
  3  4  1  6  0  0  0
  3  7  1  0  0  0  0
  3 34  1  0  0  0  0
  5  6  1  1  0  0  0
  5 16  1  0  0  0  0
  7 19  1  0  0  0  0
  8  4  1  0  0  0  0
  8 24  2  0  0  0  0
  9  8  1  6  0  0  0
  9 10  1  0  0  0  0
  9 13  1  0  0  0  0
 10 11  1  0  0  0  0
 11 12  1  0  0  0  0
 14 15  1  0  0  0  0
 14 35  1  0  0  0  0
 15 17  1  0  0  0  0
 16 18  1  6  0  0  0
 16 25  1  0  0  0  0
 19 20  1  1  0  0  0
 19 27  1  0  0  0  0
 21 22  1  0  0  0  0
 21 23  1  0  0  0  0
 23 17  1  0  0  0  0
 25 26  1  1  0  0  0
 25 28  1  0  0  0  0
 27  2  1  1  0  0  0
 27 30  1  0  0  0  0
 28 29  1  0  0  0  0
 28 32  1  6  0  0  0
 30 31  1  6  0  0  0
 30 34  1  0  0  0  0
 32 33  2  0  0  0  0
 34 35  1  6  0  0  0
M  END
>  <CHROM.1>
175.48943461,62.20019802,127.14550950,-171.16272929,68.90911738,172.46350586
-154.30703175,-153.57576234,-169.94288853,172.58397599,175.30710564,-127.10719355
-48.19320366,3.69193701,-9.91783682,29.44535052,2.00530461,0.45423944,2.42455388

>  <Name>
2f4t_lig

>  <RI>
0

>  <Rbt.Current_Directory>
/home/itssahil/PROJECTS/Mol_Feturizer/New_Systems/rnas/2f4t

>  <Rbt.Executable>
rbdock ($Id: //depot/dev/client3/rdock/2013.1/src/exe/rbdock.cxx#4 $)

>  <Rbt.Library>
libRbt.so (2013.1, Build901 2013/11/27)

>  <Rbt.Parameter_File>
/export/apps/rDock/src/rDock_2013.1_src/data/scripts/dock_solv.prm

>  <Rbt.Receptor>
prm/pocket_docking_5.prm

>  <SCORE>
-20.3291

>  <SCORE.INTER>
-12.8029

>  <SCORE.INTER.CONST>
1

>  <SCORE.INTER.POLAR>
-2.42869

>  <SCORE.INTER.ROT>
13

>  <SCORE.INTER.SOLV>
11.4176

>  <SCORE.INTER.VDW>
-16.5122

>  <SCORE.INTER.norm>
-0.365798

>  <SCORE.INTRA>
-7.52613

>  <SCORE.INTRA.DIHEDRAL>
-15.2786

>  <SCORE.INTRA.DIHEDRAL.0>
23.8882

>  <SCORE.INTRA.POLAR>
0

>  <SCORE.INTRA.POLAR.0>
0

>  <SCORE.INTRA.REPUL>
0

>  <SCORE.INTRA.REPUL.0>
0

>  <SCORE.INTRA.SOLV>
-0.320868

>  <SCORE.INTRA.SOLV.lig_0>
-97.6888

>  <SCORE.INTRA.VDW>
0.273601

>  <SCORE.INTRA.VDW.0>
-3.9206

>  <SCORE.INTRA.norm>
-0.215032

>  <SCORE.RESTR>
0

>  <SCORE.RESTR.CAVITY>
0

>  <SCORE.RESTR.norm>
0

>  <SCORE.SYSTEM>
0

>  <SCORE.SYSTEM.CONST>
0

>  <SCORE.SYSTEM.DIHEDRAL>
0

>  <SCORE.SYSTEM.SOLV>
0

>  <SCORE.SYSTEM.norm>
0

>  <SCORE.heavy>
35

>  <SCORE.norm>
-0.58083

>  <RMSD>
8.765

$$$$
2f4t_lig
 OpenBabel11021811433D
libRbt.so/2013.1/901 2013/11/27
 35 36  0  0  0  0  0  0  0  0999 V2000
    6.2736   -5.5687   30.5018 C   0  0  2  0  0  0  0  0  0  0  0  0
    6.7942   -6.3038   29.3460 O   0  0  0  0  0  0  0  0  0  0  0  0
    3.5187   -5.9535   26.5521 C   0  0  2  0  0  0  0  0  0  0  0  0
    2.7421   -6.0789   25.3096 N   0  0  0  0  0  0  0  0  0  0  0  0
    7.5145   -5.2188   31.3778 C   0  0  2  0  0  0  0  0  0  0  0  0
    8.4876   -4.4778   30.6102 N   0  0  0  0  0  0  0  0  0  0  0  0
    4.9249   -5.3299   26.2244 C   0  0  0  0  0  0  0  0  0  0  0  0
    1.3130   -5.0453   25.3993 C   0  0  0  0  0  0  0  0  0  0  0  0
    0.9926   -5.5501   24.0098 C   0  0  1  0  0  0  0  0  0  0  0  0
    0.3391   -6.9259   24.1578 C   0  0  0  0  0  0  0  0  0  0  0  0
   -0.1749   -7.5623   22.8556 C   0  0  0  0  0  0  0  0  0  0  0  0
    0.9550   -7.7041   21.9324 N   0  0  0  0  0  0  0  0  0  0  0  0
    0.0345   -4.7342   23.3881 O   0  0  0  0  0  0  0  0  0  0  0  0
    1.1897   -8.4615   27.2267 C   0  0  0  0  0  0  0  0  0  0  0  0
    0.5169   -8.7559   28.5587 C   0  0  0  0  0  0  0  0  0  0  0  0
    8.1496   -6.5274   31.9581 C   0  0  1  0  0  0  0  0  0  0  0  0
    1.1229   -9.8908   29.2890 N   0  0  0  0  0  0  0  0  0  0  0  0
    9.2757   -6.2313   32.7609 O   0  0  0  0  0  0  0  0  0  0  0  0
    5.7924   -5.1816   27.4821 C   0  0  2  0  0  0  0  0  0  0  0  0
    7.1054   -4.6396   27.1470 N   0  0  0  0  0  0  0  0  0  0  0  0
    1.3386  -11.5205   31.1676 C   0  0  0  0  0  0  0  0  0  0  0  0
    1.7664  -12.7250   30.2687 N   0  0  0  0  0  0  0  0  0  0  0  0
    0.4087  -10.5003   30.4465 C   0  0  0  0  0  0  0  0  0  0  0  0
    0.9117   -4.3838   26.1346 O   0  0  0  0  0  0  0  0  0  0  0  0
    7.0767   -7.2541   32.7757 C   0  0  2  0  0  0  0  0  0  0  0  0
    7.5919   -8.4478   33.3427 O   0  0  0  0  0  0  0  0  0  0  0  0
    5.9692   -6.5172   28.1603 C   0  0  2  0  0  0  0  0  0  0  0  0
    5.8473   -7.5698   31.8757 C   0  0  2  0  0  0  0  0  0  0  0  0
    5.3074   -6.3658   31.2922 O   0  0  0  0  0  0  0  0  0  0  0  0
    4.5526   -7.1393   28.5228 C   0  0  2  0  0  0  0  0  0  0  0  0
    4.7627   -8.4245   29.1810 O   0  0  0  0  0  0  0  0  0  0  0  0
    4.7675   -8.2487   32.6308 C   0  0  0  0  0  0  0  0  0  0  0  0
    5.1386   -9.5191   32.9027 N   0  0  0  0  0  0  0  0  0  0  0  0
    3.7303   -7.3301   27.2012 C   0  0  1  0  0  0  0  0  0  0  0  0
    2.4921   -7.9008   27.4824 O   0  0  0  0  0  0  0  0  0  0  0  0
  1  2  1  6  0  0  0
  1  5  1  0  0  0  0
  1 29  1  0  0  0  0
  3  4  1  6  0  0  0
  3  7  1  0  0  0  0
  3 34  1  0  0  0  0
  5  6  1  6  0  0  0
  5 16  1  0  0  0  0
  7 19  1  0  0  0  0
  8  4  1  0  0  0  0
  8 24  2  0  0  0  0
  9  8  1  1  0  0  0
  9 10  1  0  0  0  0
  9 13  1  0  0  0  0
 10 11  1  0  0  0  0
 11 12  1  0  0  0  0
 14 15  1  0  0  0  0
 14 35  1  0  0  0  0
 15 17  1  0  0  0  0
 16 18  1  1  0  0  0
 16 25  1  0  0  0  0
 19 20  1  6  0  0  0
 19 27  1  0  0  0  0
 21 22  1  0  0  0  0
 21 23  1  0  0  0  0
 23 17  1  0  0  0  0
 25 26  1  6  0  0  0
 25 28  1  0  0  0  0
 27  2  1  1  0  0  0
 27 30  1  0  0  0  0
 28 29  1  0  0  0  0
 28 32  1  1  0  0  0
 30 31  1  6  0  0  0
 30 34  1  0  0  0  0
 32 33  2  0  0  0  0
 34 35  1  1  0  0  0
M  END
>  <CHROM.1>
-165.34820527,-116.11987314,80.65573638,174.96432899,59.05915274,-70.69126515
-176.34967701,-166.36312388,-62.31245577,-171.54472425,69.53330773,-72.21112837
63.52352871,3.95671850,-7.14914236,28.56608140,-0.66912455,-0.60520191,-0.89442293

>  <Name>
2f4t_lig

>  <RI>
0

>  <Rbt.Current_Directory>
/home/itssahil/PROJECTS/Mol_Feturizer/New_Systems/rnas/2f4t

>  <Rbt.Executable>
rbdock ($Id: //depot/dev/client3/rdock/2013.1/src/exe/rbdock.cxx#4 $)

>  <Rbt.Library>
libRbt.so (2013.1, Build901 2013/11/27)

>  <Rbt.Parameter_File>
/export/apps/rDock/src/rDock_2013.1_src/data/scripts/dock_solv.prm

>  <Rbt.Receptor>
prm/pocket_docking_3.prm

>  <SCORE>
-13.9832

>  <SCORE.INTER>
-7.74615

>  <SCORE.INTER.CONST>
1

>  <SCORE.INTER.POLAR>
-1.46446

>  <SCORE.INTER.ROT>
13

>  <SCORE.INTER.SOLV>
13.1552

>  <SCORE.INTER.VDW>
-16.9343

>  <SCORE.INTER.norm>
-0.221319

>  <SCORE.INTRA>
-7.16638

>  <SCORE.INTRA.DIHEDRAL>
-17.413

>  <SCORE.INTRA.DIHEDRAL.0>
23.8882

>  <SCORE.INTRA.POLAR>
0

>  <SCORE.INTRA.POLAR.0>
0

>  <SCORE.INTRA.REPUL>
0

>  <SCORE.INTRA.REPUL.0>
0

>  <SCORE.INTRA.SOLV>
3.7732

>  <SCORE.INTRA.SOLV.lig_0>
-97.6888

>  <SCORE.INTRA.VDW>
-0.346483

>  <SCORE.INTRA.VDW.0>
-3.9206

>  <SCORE.INTRA.norm>
-0.204754

>  <SCORE.RESTR>
0.929358

>  <SCORE.RESTR.CAVITY>
0.929358

>  <SCORE.RESTR.norm>
0.0265531

>  <SCORE.SYSTEM>
0

>  <SCORE.SYSTEM.CONST>
0

>  <SCORE.SYSTEM.DIHEDRAL>
0

>  <SCORE.SYSTEM.SOLV>
0

>  <SCORE.SYSTEM.norm>
0

>  <SCORE.heavy>
35

>  <SCORE.norm>
-0.399519

>  <RMSD>
8.777

$$$$
2f4t_lig
 OpenBabel11021811433D
libRbt.so/2013.1/901 2013/11/27
 35 36  0  0  0  0  0  0  0  0999 V2000
    1.6237  -11.0232   32.8847 C   0  0  2  0  0  0  0  0  0  0  0  0
    2.3551  -10.9276   31.6185 O   0  0  0  0  0  0  0  0  0  0  0  0
    1.9146   -8.2662   28.2451 C   0  0  2  0  0  0  0  0  0  0  0  0
    1.3718   -7.6732   27.0137 N   0  0  0  0  0  0  0  0  0  0  0  0
    2.5944  -11.7203   33.8854 C   0  0  2  0  0  0  0  0  0  0  0  0
    3.8347  -10.9876   33.9865 N   0  0  0  0  0  0  0  0  0  0  0  0
    2.1246   -9.8098   28.0290 C   0  0  0  0  0  0  0  0  0  0  0  0
    2.6924   -7.0176   26.0416 C   0  0  0  0  0  0  0  0  0  0  0  0
    1.6220   -6.6196   25.0497 C   0  0  1  0  0  0  0  0  0  0  0  0
    1.0934   -5.2456   25.4676 C   0  0  0  0  0  0  0  0  0  0  0  0
   -0.0157   -4.6601   24.5775 C   0  0  0  0  0  0  0  0  0  0  0  0
   -0.4520   -3.3871   25.1590 N   0  0  0  0  0  0  0  0  0  0  0  0
    2.1653   -6.4487   23.7668 O   0  0  0  0  0  0  0  0  0  0  0  0
    0.3636   -5.3445   29.2896 C   0  0  0  0  0  0  0  0  0  0  0  0
    0.5525   -4.4804   30.5270 C   0  0  0  0  0  0  0  0  0  0  0  0
    2.8606  -13.1968   33.4365 C   0  0  1  0  0  0  0  0  0  0  0  0
    1.9496   -4.4395   31.0118 N   0  0  0  0  0  0  0  0  0  0  0  0
    3.7365  -13.8495   34.3349 O   0  0  0  0  0  0  0  0  0  0  0  0
    2.6814  -10.4931   29.2858 C   0  0  2  0  0  0  0  0  0  0  0  0
    2.8291  -11.9296   29.0741 N   0  0  0  0  0  0  0  0  0  0  0  0
    4.3365   -3.7090   31.0280 C   0  0  0  0  0  0  0  0  0  0  0  0
    4.9747   -5.1297   30.9007 N   0  0  0  0  0  0  0  0  0  0  0  0
    2.9534   -3.5785   30.3243 C   0  0  0  0  0  0  0  0  0  0  0  0
    3.7518   -6.9601   26.1585 O   0  0  0  0  0  0  0  0  0  0  0  0
    1.5131  -13.9231   33.3688 C   0  0  2  0  0  0  0  0  0  0  0  0
    1.6842  -15.2758   32.9783 O   0  0  0  0  0  0  0  0  0  0  0  0
    1.7658  -10.2598   30.4615 C   0  0  2  0  0  0  0  0  0  0  0  0
    0.5646  -13.1898   32.3770 C   0  0  2  0  0  0  0  0  0  0  0  0
    0.3763  -11.8118   32.7605 O   0  0  0  0  0  0  0  0  0  0  0  0
    1.5738   -8.7014   30.7054 C   0  0  2  0  0  0  0  0  0  0  0  0
    0.6894   -8.5145   31.8509 O   0  0  0  0  0  0  0  0  0  0  0  0
   -0.7652  -13.8397   32.2989 C   0  0  0  0  0  0  0  0  0  0  0  0
   -0.9017  -14.4424   31.0973 N   0  0  0  0  0  0  0  0  0  0  0  0
    0.9448   -8.0613   29.4193 C   0  0  1  0  0  0  0  0  0  0  0  0
    0.7374   -6.6983   29.6117 O   0  0  0  0  0  0  0  0  0  0  0  0
  1  2  1  6  0  0  0
  1  5  1  0  0  0  0
  1 29  1  0  0  0  0
  3  4  1  6  0  0  0
  3  7  1  0  0  0  0
  3 34  1  0  0  0  0
  5  6  1  6  0  0  0
  5 16  1  0  0  0  0
  7 19  1  0  0  0  0
  8  4  1  0  0  0  0
  8 24  2  0  0  0  0
  9  8  1  1  0  0  0
  9 10  1  0  0  0  0
  9 13  1  0  0  0  0
 10 11  1  0  0  0  0
 11 12  1  0  0  0  0
 14 15  1  0  0  0  0
 14 35  1  0  0  0  0
 15 17  1  0  0  0  0
 16 18  1  1  0  0  0
 16 25  1  0  0  0  0
 19 20  1  6  0  0  0
 19 27  1  0  0  0  0
 21 22  1  0  0  0  0
 21 23  1  0  0  0  0
 23 17  1  0  0  0  0
 25 26  1  6  0  0  0
 25 28  1  0  0  0  0
 27  2  1  1  0  0  0
 27 30  1  0  0  0  0
 28 29  1  0  0  0  0
 28 32  1  1  0  0  0
 30 31  1  1  0  0  0
 30 34  1  0  0  0  0
 32 33  2  0  0  0  0
 34 35  1  1  0  0  0
M  END
>  <CHROM.1>
-176.91091797,-95.05984307,86.74614276,-179.89865980,176.93622386,61.07559083
178.34954693,78.10723236,66.01984523,179.74352758,-172.62421899,-109.62364505
57.74093651,1.78050434,-8.90232100,29.94901451,-1.55093993,-1.24394268,-0.63090354

>  <Name>
2f4t_lig

>  <RI>
0

>  <Rbt.Current_Directory>
/home/itssahil/PROJECTS/Mol_Feturizer/New_Systems/rnas/2f4t

>  <Rbt.Executable>
rbdock ($Id: //depot/dev/client3/rdock/2013.1/src/exe/rbdock.cxx#4 $)

>  <Rbt.Library>
libRbt.so (2013.1, Build901 2013/11/27)

>  <Rbt.Parameter_File>
/export/apps/rDock/src/rDock_2013.1_src/data/scripts/dock_solv.prm

>  <Rbt.Receptor>
prm/pocket_docking_6.prm

>  <SCORE>
-13.8429

>  <SCORE.INTER>
-3.47342

>  <SCORE.INTER.CONST>
1

>  <SCORE.INTER.POLAR>
-1.73808

>  <SCORE.INTER.ROT>
13

>  <SCORE.INTER.SOLV>
16.0463

>  <SCORE.INTER.VDW>
-14.1374

>  <SCORE.INTER.norm>
-0.0992407

>  <SCORE.INTRA>
-10.3695

>  <SCORE.INTRA.DIHEDRAL>
-20.0193

>  <SCORE.INTRA.DIHEDRAL.0>
23.8882

>  <SCORE.INTRA.POLAR>
0

>  <SCORE.INTRA.POLAR.0>
0

>  <SCORE.INTRA.REPUL>
0

>  <SCORE.INTRA.REPUL.0>
0

>  <SCORE.INTRA.SOLV>
-0.0356758

>  <SCORE.INTRA.SOLV.lig_0>
-97.6888

>  <SCORE.INTRA.VDW>
-0.342026

>  <SCORE.INTRA.VDW.0>
-3.9206

>  <SCORE.INTRA.norm>
-0.296271

>  <SCORE.RESTR>
0

>  <SCORE.RESTR.CAVITY>
0

>  <SCORE.RESTR.norm>
0

>  <SCORE.SYSTEM>
0

>  <SCORE.SYSTEM.CONST>
0

>  <SCORE.SYSTEM.DIHEDRAL>
0

>  <SCORE.SYSTEM.SOLV>
0

>  <SCORE.SYSTEM.norm>
0

>  <SCORE.heavy>
35

>  <SCORE.norm>
-0.395512

>  <RMSD>
8.798

$$$$
2f4t_lig
 OpenBabel11021811433D
libRbt.so/2013.1/901 2013/11/27
 35 36  0  0  0  0  0  0  0  0999 V2000
    4.5141  -11.4564   31.8022 C   0  0  2  0  0  0  0  0  0  0  0  0
    3.3522  -11.4271   30.9098 O   0  0  0  0  0  0  0  0  0  0  0  0
    2.2830   -8.4055   28.0143 C   0  0  2  0  0  0  0  0  0  0  0  0
    1.6917   -7.1865   27.4424 N   0  0  0  0  0  0  0  0  0  0  0  0
    4.7288  -12.9552   32.1723 C   0  0  2  0  0  0  0  0  0  0  0  0
    4.8922  -13.7558   30.9816 N   0  0  0  0  0  0  0  0  0  0  0  0
    1.1722   -9.2086   28.7854 C   0  0  0  0  0  0  0  0  0  0  0  0
    2.4264   -6.8545   25.8712 C   0  0  0  0  0  0  0  0  0  0  0  0
    1.5082   -5.6537   25.8156 C   0  0  1  0  0  0  0  0  0  0  0  0
    2.2601   -4.4689   26.4261 C   0  0  0  0  0  0  0  0  0  0  0  0
    1.4218   -3.2030   26.6708 C   0  0  0  0  0  0  0  0  0  0  0  0
    2.2636   -2.2151   27.3524 N   0  0  0  0  0  0  0  0  0  0  0  0
    1.2348   -5.2922   24.4871 O   0  0  0  0  0  0  0  0  0  0  0  0
    5.6001   -6.5622   28.1569 C   0  0  0  0  0  0  0  0  0  0  0  0
    6.7814   -7.4092   28.6048 C   0  0  0  0  0  0  0  0  0  0  0  0
    3.5243  -13.4762   33.0267 C   0  0  1  0  0  0  0  0  0  0  0  0
    7.9979   -6.6197   28.8970 N   0  0  0  0  0  0  0  0  0  0  0  0
    3.7020  -14.8347   33.3776 O   0  0  0  0  0  0  0  0  0  0  0  0
    1.7286  -10.4920   29.4177 C   0  0  2  0  0  0  0  0  0  0  0  0
    0.6896  -11.1980   30.1609 N   0  0  0  0  0  0  0  0  0  0  0  0
   10.3266   -5.8307   28.4656 C   0  0  0  0  0  0  0  0  0  0  0  0
   11.4417   -5.5120   27.4183 N   0  0  0  0  0  0  0  0  0  0  0  0
    9.0258   -6.4129   27.8377 C   0  0  0  0  0  0  0  0  0  0  0  0
    3.1783   -7.3287   25.2804 O   0  0  0  0  0  0  0  0  0  0  0  0
    3.4177  -12.6018   34.2804 C   0  0  2  0  0  0  0  0  0  0  0  0
    2.3488  -13.0297   35.1088 O   0  0  0  0  0  0  0  0  0  0  0  0
    2.8682  -10.1679   30.3510 C   0  0  2  0  0  0  0  0  0  0  0  0
    3.2237  -11.1126   33.8735 C   0  0  2  0  0  0  0  0  0  0  0  0
    4.3044  -10.6586   33.0322 O   0  0  0  0  0  0  0  0  0  0  0  0
    4.0089   -9.3834   29.5710 C   0  0  2  0  0  0  0  0  0  0  0  0
    5.0946   -9.0928   30.5016 O   0  0  0  0  0  0  0  0  0  0  0  0
    3.1443  -10.2211   35.0550 C   0  0  0  0  0  0  0  0  0  0  0  0
    4.3920   -9.8865   35.4510 N   0  0  0  0  0  0  0  0  0  0  0  0
    3.4081   -8.0524   28.9994 C   0  0  1  0  0  0  0  0  0  0  0  0
    4.3917   -7.3270   28.3330 O   0  0  0  0  0  0  0  0  0  0  0  0
  1  2  1  6  0  0  0
  1  5  1  0  0  0  0
  1 29  1  0  0  0  0
  3  4  1  1  0  0  0
  3  7  1  0  0  0  0
  3 34  1  0  0  0  0
  5  6  1  6  0  0  0
  5 16  1  0  0  0  0
  7 19  1  0  0  0  0
  8  4  1  0  0  0  0
  8 24  2  0  0  0  0
  9  8  1  6  0  0  0
  9 10  1  0  0  0  0
  9 13  1  0  0  0  0
 10 11  1  0  0  0  0
 11 12  1  0  0  0  0
 14 15  1  0  0  0  0
 14 35  1  0  0  0  0
 15 17  1  0  0  0  0
 16 18  1  1  0  0  0
 16 25  1  0  0  0  0
 19 20  1  1  0  0  0
 19 27  1  0  0  0  0
 21 22  1  0  0  0  0
 21 23  1  0  0  0  0
 23 17  1  0  0  0  0
 25 26  1  1  0  0  0
 25 28  1  0  0  0  0
 27  2  1  6  0  0  0
 27 30  1  0  0  0  0
 28 29  1  0  0  0  0
 28 32  1  1  0  0  0
 30 31  1  1  0  0  0
 30 34  1  0  0  0  0
 32 33  2  0  0  0  0
 34 35  1  6  0  0  0
M  END
>  <CHROM.1>
-179.43074008,-143.56313561,90.98209057,-170.59410093,175.49497968,-160.94758494
59.60847411,-93.54228628,-177.10877459,-167.74556402,176.50464651,84.79501680
175.55463311,3.96129114,-8.84179365,29.76598226,-1.63449072,-0.16383021,-0.76749405

>  <Name>
2f4t_lig

>  <RI>
0

>  <Rbt.Current_Directory>
/home/itssahil/PROJECTS/Mol_Feturizer/New_Systems/rnas/2f4t

>  <Rbt.Executable>
rbdock ($Id: //depot/dev/client3/rdock/2013.1/src/exe/rbdock.cxx#4 $)

>  <Rbt.Library>
libRbt.so (2013.1, Build901 2013/11/27)

>  <Rbt.Parameter_File>
/export/apps/rDock/src/rDock_2013.1_src/data/scripts/dock_solv.prm

>  <Rbt.Receptor>
prm/pocket_docking_7.prm

>  <SCORE>
-21.6357

>  <SCORE.INTER>
-12.6655

>  <SCORE.INTER.CONST>
1

>  <SCORE.INTER.POLAR>
-2.45667

>  <SCORE.INTER.ROT>
13

>  <SCORE.INTER.SOLV>
17.2337

>  <SCORE.INTER.VDW>
-18.266

>  <SCORE.INTER.norm>
-0.361872

>  <SCORE.INTRA>
-8.97014

>  <SCORE.INTRA.DIHEDRAL>
-17.2171

>  <SCORE.INTRA.DIHEDRAL.0>
23.8882

>  <SCORE.INTRA.POLAR>
0

>  <SCORE.INTRA.POLAR.0>
0

>  <SCORE.INTRA.REPUL>
0

>  <SCORE.INTRA.REPUL.0>
0

>  <SCORE.INTRA.SOLV>
-1.24781

>  <SCORE.INTRA.SOLV.lig_0>
-97.6888

>  <SCORE.INTRA.VDW>
0.262309

>  <SCORE.INTRA.VDW.0>
-3.9206

>  <SCORE.INTRA.norm>
-0.25629

>  <SCORE.RESTR>
0

>  <SCORE.RESTR.CAVITY>
0

>  <SCORE.RESTR.norm>
0

>  <SCORE.SYSTEM>
0

>  <SCORE.SYSTEM.CONST>
0

>  <SCORE.SYSTEM.DIHEDRAL>
0

>  <SCORE.SYSTEM.SOLV>
0

>  <SCORE.SYSTEM.norm>
0

>  <SCORE.heavy>
35

>  <SCORE.norm>
-0.618161

>  <RMSD>
8.799

$$$$
2f4t_lig
 OpenBabel11021811433D
libRbt.so/2013.1/901 2013/11/27
 35 36  0  0  0  0  0  0  0  0999 V2000
    0.5073  -13.1018   30.7411 C   0  0  2  0  0  0  0  0  0  0  0  0
    0.9696  -11.7164   30.8608 O   0  0  0  0  0  0  0  0  0  0  0  0
    1.6478   -8.3646   28.2222 C   0  0  2  0  0  0  0  0  0  0  0  0
    1.5263   -7.4759   27.0568 N   0  0  0  0  0  0  0  0  0  0  0  0
    0.3618  -13.6296   32.2005 C   0  0  2  0  0  0  0  0  0  0  0  0
   -0.5289  -12.7852   32.9614 N   0  0  0  0  0  0  0  0  0  0  0  0
    1.8894   -9.8381   27.7283 C   0  0  0  0  0  0  0  0  0  0  0  0
    2.4098   -5.9775   27.3618 C   0  0  0  0  0  0  0  0  0  0  0  0
    1.9647   -5.5592   25.9780 C   0  0  1  0  0  0  0  0  0  0  0  0
    1.8066   -4.0371   25.9843 C   0  0  0  0  0  0  0  0  0  0  0  0
    0.4715   -3.5087   26.5351 C   0  0  0  0  0  0  0  0  0  0  0  0
   -0.6091   -3.9895   25.6691 N   0  0  0  0  0  0  0  0  0  0  0  0
    2.9573   -5.8387   25.0257 O   0  0  0  0  0  0  0  0  0  0  0  0
   -0.5424   -5.9431   30.1627 C   0  0  0  0  0  0  0  0  0  0  0  0
    0.2586   -4.6689   29.9427 C   0  0  0  0  0  0  0  0  0  0  0  0
    1.7674  -13.7090   32.8864 C   0  0  1  0  0  0  0  0  0  0  0  0
    1.6478   -4.7499   30.4448 N   0  0  0  0  0  0  0  0  0  0  0  0
    1.6580  -14.1908   34.2117 O   0  0  0  0  0  0  0  0  0  0  0  0
    2.0149  -10.8213   28.9004 C   0  0  2  0  0  0  0  0  0  0  0  0
    2.1977  -12.1861   28.4167 N   0  0  0  0  0  0  0  0  0  0  0  0
    2.5832   -2.9749   31.9301 C   0  0  0  0  0  0  0  0  0  0  0  0
    2.9734   -2.5309   33.3766 N   0  0  0  0  0  0  0  0  0  0  0  0
    1.9515   -4.3967   31.8606 C   0  0  0  0  0  0  0  0  0  0  0  0
    2.9821   -5.5982   28.1790 O   0  0  0  0  0  0  0  0  0  0  0  0
    2.6551  -14.6321   32.0454 C   0  0  2  0  0  0  0  0  0  0  0  0
    3.9454  -14.7585   32.6205 O   0  0  0  0  0  0  0  0  0  0  0  0
    0.7820  -10.7669   29.7676 C   0  0  2  0  0  0  0  0  0  0  0  0
    2.7619  -14.0859   30.5923 C   0  0  2  0  0  0  0  0  0  0  0  0
    1.4578  -13.9535   29.9896 O   0  0  0  0  0  0  0  0  0  0  0  0
    0.5490   -9.2865   30.2961 C   0  0  2  0  0  0  0  0  0  0  0  0
   -0.6455   -9.2735   31.1340 O   0  0  0  0  0  0  0  0  0  0  0  0
    3.5891  -14.9629   29.7300 C   0  0  0  0  0  0  0  0  0  0  0  0
    4.8282  -14.4375   29.6107 N   0  0  0  0  0  0  0  0  0  0  0  0
    0.3635   -8.3327   29.0652 C   0  0  1  0  0  0  0  0  0  0  0  0
    0.1288   -7.0301   29.4963 O   0  0  0  0  0  0  0  0  0  0  0  0
  1  2  1  1  0  0  0
  1  5  1  0  0  0  0
  1 29  1  0  0  0  0
  3  4  1  6  0  0  0
  3  7  1  0  0  0  0
  3 34  1  0  0  0  0
  5  6  1  1  0  0  0
  5 16  1  0  0  0  0
  7 19  1  0  0  0  0
  8  4  1  0  0  0  0
  8 24  2  0  0  0  0
  9  8  1  1  0  0  0
  9 10  1  0  0  0  0
  9 13  1  0  0  0  0
 10 11  1  0  0  0  0
 11 12  1  0  0  0  0
 14 15  1  0  0  0  0
 14 35  1  0  0  0  0
 15 17  1  0  0  0  0
 16 18  1  1  0  0  0
 16 25  1  0  0  0  0
 19 20  1  6  0  0  0
 19 27  1  0  0  0  0
 21 22  1  0  0  0  0
 21 23  1  0  0  0  0
 23 17  1  0  0  0  0
 25 26  1  1  0  0  0
 25 28  1  0  0  0  0
 27  2  1  1  0  0  0
 27 30  1  0  0  0  0
 28 29  1  0  0  0  0
 28 32  1  6  0  0  0
 30 31  1  1  0  0  0
 30 34  1  0  0  0  0
 32 33  2  0  0  0  0
 34 35  1  1  0  0  0
M  END
>  <CHROM.1>
-158.66367384,-138.07864325,148.89093579,-82.79855088,-62.93308486,-58.83038550
179.23639797,-87.71110241,-178.41965654,-102.43010884,-91.52856536,-100.36549279
179.75204173,1.57929378,-9.11132273,29.75934012,-1.12858823,1.41953424,-0.76647710

>  <Name>
2f4t_lig

>  <RI>
0

>  <Rbt.Current_Directory>
/home/itssahil/PROJECTS/Mol_Feturizer/New_Systems/rnas/2f4t

>  <Rbt.Executable>
rbdock ($Id: //depot/dev/client3/rdock/2013.1/src/exe/rbdock.cxx#4 $)

>  <Rbt.Library>
libRbt.so (2013.1, Build901 2013/11/27)

>  <Rbt.Parameter_File>
/export/apps/rDock/src/rDock_2013.1_src/data/scripts/dock_solv.prm

>  <Rbt.Receptor>
prm/pocket_docking_5.prm

>  <SCORE>
-13.1413

>  <SCORE.INTER>
-9.19591

>  <SCORE.INTER.CONST>
1

>  <SCORE.INTER.POLAR>
-1.8468

>  <SCORE.INTER.ROT>
13

>  <SCORE.INTER.SOLV>
12.7594

>  <SCORE.INTER.VDW>
-16.4944

>  <SCORE.INTER.norm>
-0.26274

>  <SCORE.INTRA>
-3.94541

>  <SCORE.INTRA.DIHEDRAL>
-11.1784

>  <SCORE.INTRA.DIHEDRAL.0>
23.8882

>  <SCORE.INTRA.POLAR>
0

>  <SCORE.INTRA.POLAR.0>
0

>  <SCORE.INTRA.REPUL>
0

>  <SCORE.INTRA.REPUL.0>
0

>  <SCORE.INTRA.SOLV>
6.19485

>  <SCORE.INTRA.SOLV.lig_0>
-97.6888

>  <SCORE.INTRA.VDW>
-1.45364

>  <SCORE.INTRA.VDW.0>
-3.9206

>  <SCORE.INTRA.norm>
-0.112726

>  <SCORE.RESTR>
0

>  <SCORE.RESTR.CAVITY>
0

>  <SCORE.RESTR.norm>
0

>  <SCORE.SYSTEM>
0

>  <SCORE.SYSTEM.CONST>
0

>  <SCORE.SYSTEM.DIHEDRAL>
0

>  <SCORE.SYSTEM.SOLV>
0

>  <SCORE.SYSTEM.norm>
0

>  <SCORE.heavy>
35

>  <SCORE.norm>
-0.375466

>  <RMSD>
8.801

$$$$
2f4t_lig
 OpenBabel11021811433D
libRbt.so/2013.1/901 2013/11/27
 35 36  0  0  0  0  0  0  0  0999 V2000
    2.6355  -13.8864   31.4836 C   0  0  2  0  0  0  0  0  0  0  0  0
    3.2503  -12.6042   31.1297 O   0  0  0  0  0  0  0  0  0  0  0  0
    2.5699   -9.5770   28.1247 C   0  0  2  0  0  0  0  0  0  0  0  0
    1.8595   -8.7001   27.1818 N   0  0  0  0  0  0  0  0  0  0  0  0
    3.2678  -14.2998   32.8470 C   0  0  2  0  0  0  0  0  0  0  0  0
    3.0656  -13.2675   33.8364 N   0  0  0  0  0  0  0  0  0  0  0  0
    2.1322  -11.0673   27.8778 C   0  0  0  0  0  0  0  0  0  0  0  0
    2.9386   -7.4074   26.6495 C   0  0  0  0  0  0  0  0  0  0  0  0
    1.7757   -6.9288   25.8087 C   0  0  1  0  0  0  0  0  0  0  0  0
    1.3492   -5.5612   26.3467 C   0  0  0  0  0  0  0  0  0  0  0  0
    2.3408   -4.4112   26.1032 C   0  0  0  0  0  0  0  0  0  0  0  0
    1.7774   -3.1851   26.6763 N   0  0  0  0  0  0  0  0  0  0  0  0
    2.1728   -6.7124   24.4799 O   0  0  0  0  0  0  0  0  0  0  0  0
    2.7813   -6.6451   30.5300 C   0  0  0  0  0  0  0  0  0  0  0  0
    3.4514   -5.6330   29.6134 C   0  0  0  0  0  0  0  0  0  0  0  0
    4.7943  -14.5974   32.6637 C   0  0  1  0  0  0  0  0  0  0  0  0
    3.7708   -4.3519   30.2805 N   0  0  0  0  0  0  0  0  0  0  0  0
    5.3868  -14.9794   33.8898 O   0  0  0  0  0  0  0  0  0  0  0  0
    2.8324  -12.0364   28.8407 C   0  0  2  0  0  0  0  0  0  0  0  0
    2.3800  -13.4063   28.6194 N   0  0  0  0  0  0  0  0  0  0  0  0
    4.7046   -4.3251   32.5955 C   0  0  0  0  0  0  0  0  0  0  0  0
    3.7335   -3.2160   33.1140 N   0  0  0  0  0  0  0  0  0  0  0  0
    5.0244   -4.2164   31.0752 C   0  0  0  0  0  0  0  0  0  0  0  0
    3.9493   -7.1396   26.8634 O   0  0  0  0  0  0  0  0  0  0  0  0
    4.9395  -15.7107   31.6211 C   0  0  2  0  0  0  0  0  0  0  0  0
    6.3039  -16.0393   31.4155 O   0  0  0  0  0  0  0  0  0  0  0  0
    2.5532  -11.6504   30.2717 C   0  0  2  0  0  0  0  0  0  0  0  0
    4.2813  -15.2717   30.2813 C   0  0  2  0  0  0  0  0  0  0  0  0
    2.8910  -14.9362   30.4706 O   0  0  0  0  0  0  0  0  0  0  0  0
    3.0217  -10.1554   30.5371 C   0  0  2  0  0  0  0  0  0  0  0  0
    2.7422   -9.8196   31.9294 O   0  0  0  0  0  0  0  0  0  0  0  0
    4.3707  -16.3298   29.2471 C   0  0  0  0  0  0  0  0  0  0  0  0
    3.3524  -17.2033   29.4078 N   0  0  0  0  0  0  0  0  0  0  0  0
    2.2335   -9.1995   29.5757 C   0  0  1  0  0  0  0  0  0  0  0  0
    2.6016   -7.8765   29.8035 O   0  0  0  0  0  0  0  0  0  0  0  0
  1  2  1  6  0  0  0
  1  5  1  0  0  0  0
  1 29  1  0  0  0  0
  3  4  1  6  0  0  0
  3  7  1  0  0  0  0
  3 34  1  0  0  0  0
  5  6  1  1  0  0  0
  5 16  1  0  0  0  0
  7 19  1  0  0  0  0
  8  4  1  0  0  0  0
  8 24  2  0  0  0  0
  9  8  1  1  0  0  0
  9 10  1  0  0  0  0
  9 13  1  0  0  0  0
 10 11  1  0  0  0  0
 11 12  1  0  0  0  0
 14 15  1  0  0  0  0
 14 35  1  0  0  0  0
 15 17  1  0  0  0  0
 16 18  1  1  0  0  0
 16 25  1  0  0  0  0
 19 20  1  6  0  0  0
 19 27  1  0  0  0  0
 21 22  1  0  0  0  0
 21 23  1  0  0  0  0
 23 17  1  0  0  0  0
 25 26  1  6  0  0  0
 25 28  1  0  0  0  0
 27  2  1  1  0  0  0
 27 30  1  0  0  0  0
 28 29  1  0  0  0  0
 28 32  1  6  0  0  0
 30 31  1  1  0  0  0
 30 34  1  0  0  0  0
 32 33  2  0  0  0  0
 34 35  1  1  0  0  0
M  END
>  <CHROM.1>
-153.79551223,-142.52020250,114.81883512,69.45429189,179.91034037,-176.13070764
178.45465835,83.45734456,-60.90679119,-101.66562147,-84.94263700,84.05782171
-179.91886614,3.24937797,-10.05756482,29.76013453,-1.17320294,-1.26694452
0.08284282

>  <Name>
2f4t_lig

>  <RI>
0

>  <Rbt.Current_Directory>
/home/itssahil/PROJECTS/Mol_Feturizer/New_Systems/rnas/2f4t

>  <Rbt.Executable>
rbdock ($Id: //depot/dev/client3/rdock/2013.1/src/exe/rbdock.cxx#4 $)

>  <Rbt.Library>
libRbt.so (2013.1, Build901 2013/11/27)

>  <Rbt.Parameter_File>
/export/apps/rDock/src/rDock_2013.1_src/data/scripts/dock_solv.prm

>  <Rbt.Receptor>
prm/pocket_docking_6.prm

>  <SCORE>
-9.62048

>  <SCORE.INTER>
-6.33262

>  <SCORE.INTER.CONST>
1

>  <SCORE.INTER.POLAR>
-0.938083

>  <SCORE.INTER.ROT>
13

>  <SCORE.INTER.SOLV>
11.531

>  <SCORE.INTER.VDW>
-17.2051

>  <SCORE.INTER.norm>
-0.180932

>  <SCORE.INTRA>
-3.28785

>  <SCORE.INTRA.DIHEDRAL>
-11.814

>  <SCORE.INTRA.DIHEDRAL.0>
23.8882

>  <SCORE.INTRA.POLAR>
0

>  <SCORE.INTRA.POLAR.0>
0

>  <SCORE.INTRA.REPUL>
0

>  <SCORE.INTRA.REPUL.0>
0

>  <SCORE.INTRA.SOLV>
5.05489

>  <SCORE.INTRA.SOLV.lig_0>
-97.6888

>  <SCORE.INTRA.VDW>
0.0916967

>  <SCORE.INTRA.VDW.0>
-3.9206

>  <SCORE.INTRA.norm>
-0.0939387

>  <SCORE.RESTR>
0

>  <SCORE.RESTR.CAVITY>
0

>  <SCORE.RESTR.norm>
0

>  <SCORE.SYSTEM>
0

>  <SCORE.SYSTEM.CONST>
0

>  <SCORE.SYSTEM.DIHEDRAL>
0

>  <SCORE.SYSTEM.SOLV>
0

>  <SCORE.SYSTEM.norm>
0

>  <SCORE.heavy>
35

>  <SCORE.norm>
-0.274871

>  <RMSD>
8.806

$$$$
2f4t_lig
 OpenBabel11021811433D
libRbt.so/2013.1/901 2013/11/27
 35 36  0  0  0  0  0  0  0  0999 V2000
    3.0865  -13.7747   31.3672 C   0  0  2  0  0  0  0  0  0  0  0  0
    3.7751  -12.5891   30.8500 O   0  0  0  0  0  0  0  0  0  0  0  0
    2.6467   -9.6119   27.9311 C   0  0  2  0  0  0  0  0  0  0  0  0
    1.8380   -8.6117   27.2182 N   0  0  0  0  0  0  0  0  0  0  0  0
    3.6794  -14.0260   32.7867 C   0  0  2  0  0  0  0  0  0  0  0  0
    3.5233  -12.8560   33.6187 N   0  0  0  0  0  0  0  0  0  0  0  0
    1.8107  -10.9339   28.0953 C   0  0  0  0  0  0  0  0  0  0  0  0
    2.9007   -7.4097   26.4803 C   0  0  0  0  0  0  0  0  0  0  0  0
    1.6341   -6.7638   25.9639 C   0  0  1  0  0  0  0  0  0  0  0  0
    2.0267   -5.4391   25.3058 C   0  0  0  0  0  0  0  0  0  0  0  0
    2.3692   -4.2920   26.2712 C   0  0  0  0  0  0  0  0  0  0  0  0
    1.1361   -3.8662   26.9399 N   0  0  0  0  0  0  0  0  0  0  0  0
    1.0529   -7.5399   24.9489 O   0  0  0  0  0  0  0  0  0  0  0  0
    4.4973   -6.7499   29.6074 C   0  0  0  0  0  0  0  0  0  0  0  0
    3.5719   -5.8567   30.4193 C   0  0  0  0  0  0  0  0  0  0  0  0
    5.1892  -14.4268   32.6757 C   0  0  1  0  0  0  0  0  0  0  0  0
    4.0470   -4.4602   30.5319 N   0  0  0  0  0  0  0  0  0  0  0  0
    5.7458  -14.6641   33.9541 O   0  0  0  0  0  0  0  0  0  0  0  0
    2.5971  -12.0191   28.8440 C   0  0  2  0  0  0  0  0  0  0  0  0
    1.7869  -13.2203   29.0194 N   0  0  0  0  0  0  0  0  0  0  0  0
    5.0656   -2.4406   29.4759 C   0  0  0  0  0  0  0  0  0  0  0  0
    5.0955   -1.4543   28.2641 N   0  0  0  0  0  0  0  0  0  0  0  0
    3.9819   -3.5522   29.3518 C   0  0  0  0  0  0  0  0  0  0  0  0
    3.9573   -7.2618   26.4497 O   0  0  0  0  0  0  0  0  0  0  0  0
    5.2847  -15.6813   31.8013 C   0  0  2  0  0  0  0  0  0  0  0  0
    6.6312  -16.1074   31.6695 O   0  0  0  0  0  0  0  0  0  0  0  0
    3.0310  -11.5154   30.1979 C   0  0  2  0  0  0  0  0  0  0  0  0
    4.6671  -15.4001   30.4011 C   0  0  2  0  0  0  0  0  0  0  0  0
    3.2953  -14.9681   30.5154 O   0  0  0  0  0  0  0  0  0  0  0  0
    3.9029  -10.1966   30.0380 C   0  0  2  0  0  0  0  0  0  0  0  0
    4.3088   -9.7427   31.3640 O   0  0  0  0  0  0  0  0  0  0  0  0
    4.7097  -16.5959   29.5264 C   0  0  0  0  0  0  0  0  0  0  0  0
    4.7939  -16.2063   28.2353 N   0  0  0  0  0  0  0  0  0  0  0  0
    3.0365   -9.0999   29.3265 C   0  0  1  0  0  0  0  0  0  0  0  0
    3.7643   -7.9204   29.1966 O   0  0  0  0  0  0  0  0  0  0  0  0
  1  2  1  6  0  0  0
  1  5  1  0  0  0  0
  1 29  1  0  0  0  0
  3  4  1  1  0  0  0
  3  7  1  0  0  0  0
  3 34  1  0  0  0  0
  5  6  1  1  0  0  0
  5 16  1  0  0  0  0
  7 19  1  0  0  0  0
  8  4  1  0  0  0  0
  8 24  2  0  0  0  0
  9  8  1  6  0  0  0
  9 10  1  0  0  0  0
  9 13  1  0  0  0  0
 10 11  1  0  0  0  0
 11 12  1  0  0  0  0
 14 15  1  0  0  0  0
 14 35  1  0  0  0  0
 15 17  1  0  0  0  0
 16 18  1  1  0  0  0
 16 25  1  0  0  0  0
 19 20  1  1  0  0  0
 19 27  1  0  0  0  0
 21 22  1  0  0  0  0
 21 23  1  0  0  0  0
 23 17  1  0  0  0  0
 25 26  1  6  0  0  0
 25 28  1  0  0  0  0
 27  2  1  6  0  0  0
 27 30  1  0  0  0  0
 28 29  1  0  0  0  0
 28 32  1  6  0  0  0
 30 31  1  1  0  0  0
 30 34  1  0  0  0  0
 32 33  2  0  0  0  0
 34 35  1  6  0  0  0
M  END
>  <CHROM.1>
-134.52946583,-158.06875756,173.28028258,-75.66162841,-69.67141413,-161.59321482
-61.85527246,72.51369591,178.72558459,-154.17979227,-72.68711186,-150.70310733
178.49890270,3.57296405,-9.91642456,29.40037556,1.29862002,1.07521066,3.03324039

>  <Name>
2f4t_lig

>  <RI>
0

>  <Rbt.Current_Directory>
/home/itssahil/PROJECTS/Mol_Feturizer/New_Systems/rnas/2f4t

>  <Rbt.Executable>
rbdock ($Id: //depot/dev/client3/rdock/2013.1/src/exe/rbdock.cxx#4 $)

>  <Rbt.Library>
libRbt.so (2013.1, Build901 2013/11/27)

>  <Rbt.Parameter_File>
/export/apps/rDock/src/rDock_2013.1_src/data/scripts/dock_solv.prm

>  <Rbt.Receptor>
prm/pocket_docking_4.prm

>  <SCORE>
-7.96642

>  <SCORE.INTER>
-3.90393

>  <SCORE.INTER.CONST>
1

>  <SCORE.INTER.POLAR>
0

>  <SCORE.INTER.ROT>
13

>  <SCORE.INTER.SOLV>
11.8226

>  <SCORE.INTER.VDW>
-18.8102

>  <SCORE.INTER.norm>
-0.111541

>  <SCORE.INTRA>
-4.06821

>  <SCORE.INTRA.DIHEDRAL>
-11.3103

>  <SCORE.INTRA.DIHEDRAL.0>
23.8882

>  <SCORE.INTRA.POLAR>
0

>  <SCORE.INTRA.POLAR.0>
0

>  <SCORE.INTRA.REPUL>
0

>  <SCORE.INTRA.REPUL.0>
0

>  <SCORE.INTRA.SOLV>
3.78819

>  <SCORE.INTRA.SOLV.lig_0>
-97.6888

>  <SCORE.INTRA.VDW>
-0.307133

>  <SCORE.INTRA.VDW.0>
-3.9206

>  <SCORE.INTRA.norm>
-0.116235

>  <SCORE.RESTR>
0.00572637

>  <SCORE.RESTR.CAVITY>
0.00572637

>  <SCORE.RESTR.norm>
0.000163611

>  <SCORE.SYSTEM>
0

>  <SCORE.SYSTEM.CONST>
0

>  <SCORE.SYSTEM.DIHEDRAL>
0

>  <SCORE.SYSTEM.SOLV>
0

>  <SCORE.SYSTEM.norm>
0

>  <SCORE.heavy>
35

>  <SCORE.norm>
-0.227612

>  <RMSD>
8.821

$$$$
2f4t_lig
 OpenBabel11021811433D
libRbt.so/2013.1/901 2013/11/27
 35 36  0  0  0  0  0  0  0  0999 V2000
    3.7085  -11.8267   29.8535 C   0  0  2  0  0  0  0  0  0  0  0  0
    3.9457  -10.5169   30.4662 O   0  0  0  0  0  0  0  0  0  0  0  0
    6.5106   -7.1011   29.8251 C   0  0  2  0  0  0  0  0  0  0  0  0
    7.7280   -6.3126   29.5825 N   0  0  0  0  0  0  0  0  0  0  0  0
    2.1926  -12.1250   30.0600 C   0  0  2  0  0  0  0  0  0  0  0  0
    1.3842  -11.0679   29.4991 N   0  0  0  0  0  0  0  0  0  0  0  0
    6.7550   -8.0737   31.0367 C   0  0  0  0  0  0  0  0  0  0  0  0
    8.1684   -5.4383   31.0524 C   0  0  0  0  0  0  0  0  0  0  0  0
    9.3394   -4.9059   30.2566 C   0  0  1  0  0  0  0  0  0  0  0  0
    9.9335   -3.7323   31.0386 C   0  0  0  0  0  0  0  0  0  0  0  0
   10.9427   -2.8629   30.2700 C   0  0  0  0  0  0  0  0  0  0  0  0
   10.2279   -2.1607   29.1999 N   0  0  0  0  0  0  0  0  0  0  0  0
   10.3613   -5.8639   30.1656 O   0  0  0  0  0  0  0  0  0  0  0  0
    5.2676   -6.1413   26.6566 C   0  0  0  0  0  0  0  0  0  0  0  0
    3.9152   -6.7181   26.2670 C   0  0  0  0  0  0  0  0  0  0  0  0
    1.8830  -12.3071   31.5842 C   0  0  1  0  0  0  0  0  0  0  0  0
    3.1129   -5.8174   25.4106 N   0  0  0  0  0  0  0  0  0  0  0  0
    0.5118  -12.5836   31.7932 O   0  0  0  0  0  0  0  0  0  0  0  0
    5.5211   -8.9363   31.3362 C   0  0  2  0  0  0  0  0  0  0  0  0
    5.7858   -9.8579   32.4365 N   0  0  0  0  0  0  0  0  0  0  0  0
    1.0502   -4.4686   25.0134 C   0  0  0  0  0  0  0  0  0  0  0  0
    1.3217   -3.2853   25.9973 N   0  0  0  0  0  0  0  0  0  0  0  0
    1.6252   -5.8318   25.4997 C   0  0  0  0  0  0  0  0  0  0  0  0
    7.7519   -5.3624   32.0322 O   0  0  0  0  0  0  0  0  0  0  0  0
    2.7537  -13.4519   32.1124 C   0  0  2  0  0  0  0  0  0  0  0  0
    2.5123  -13.6790   33.4916 O   0  0  0  0  0  0  0  0  0  0  0  0
    5.1231   -9.7278   30.1155 C   0  0  2  0  0  0  0  0  0  0  0  0
    4.2568  -13.1292   31.8725 C   0  0  2  0  0  0  0  0  0  0  0  0
    4.5219  -12.8980   30.4733 O   0  0  0  0  0  0  0  0  0  0  0  0
    4.8440   -8.7491   28.8951 C   0  0  2  0  0  0  0  0  0  0  0  0
    4.4568   -9.5474   27.7367 O   0  0  0  0  0  0  0  0  0  0  0  0
    5.1402  -14.2230   32.3416 C   0  0  0  0  0  0  0  0  0  0  0  0
    6.2410  -13.6955   32.9208 N   0  0  0  0  0  0  0  0  0  0  0  0
    6.1503   -7.9377   28.5877 C   0  0  1  0  0  0  0  0  0  0  0  0
    5.9464   -7.0895   27.5028 O   0  0  0  0  0  0  0  0  0  0  0  0
  1  2  1  1  0  0  0
  1  5  1  0  0  0  0
  1 29  1  0  0  0  0
  3  4  1  6  0  0  0
  3  7  1  0  0  0  0
  3 34  1  0  0  0  0
  5  6  1  1  0  0  0
  5 16  1  0  0  0  0
  7 19  1  0  0  0  0
  8  4  1  0  0  0  0
  8 24  2  0  0  0  0
  9  8  1  1  0  0  0
  9 10  1  0  0  0  0
  9 13  1  0  0  0  0
 10 11  1  0  0  0  0
 11 12  1  0  0  0  0
 14 15  1  0  0  0  0
 14 35  1  0  0  0  0
 15 17  1  0  0  0  0
 16 18  1  6  0  0  0
 16 25  1  0  0  0  0
 19 20  1  1  0  0  0
 19 27  1  0  0  0  0
 21 22  1  0  0  0  0
 21 23  1  0  0  0  0
 23 17  1  0  0  0  0
 25 26  1  1  0  0  0
 25 28  1  0  0  0  0
 27  2  1  1  0  0  0
 27 30  1  0  0  0  0
 28 29  1  0  0  0  0
 28 32  1  6  0  0  0
 30 31  1  6  0  0  0
 30 34  1  0  0  0  0
 32 33  2  0  0  0  0
 34 35  1  6  0  0  0
M  END
>  <CHROM.1>
-160.71353709,-57.02490854,166.07337449,-167.58683813,67.18765459,179.04324808
-55.98973669,-148.39218057,-70.99394453,155.96182508,-148.17447659,-140.77099102
-76.68506360,5.16008475,-8.50303627,29.77961803,2.13639319,0.52605797,2.52711237

>  <Name>
2f4t_lig

>  <RI>
0

>  <Rbt.Current_Directory>
/home/itssahil/PROJECTS/Mol_Feturizer/New_Systems/rnas/2f4t

>  <Rbt.Executable>
rbdock ($Id: //depot/dev/client3/rdock/2013.1/src/exe/rbdock.cxx#4 $)

>  <Rbt.Library>
libRbt.so (2013.1, Build901 2013/11/27)

>  <Rbt.Parameter_File>
/export/apps/rDock/src/rDock_2013.1_src/data/scripts/dock_solv.prm

>  <Rbt.Receptor>
prm/pocket_docking_8.prm

>  <SCORE>
-15.7946

>  <SCORE.INTER>
-10.6886

>  <SCORE.INTER.CONST>
1

>  <SCORE.INTER.POLAR>
-2.87532

>  <SCORE.INTER.ROT>
13

>  <SCORE.INTER.SOLV>
17.679

>  <SCORE.INTER.VDW>
-15.701

>  <SCORE.INTER.norm>
-0.305388

>  <SCORE.INTRA>
-5.10605

>  <SCORE.INTRA.DIHEDRAL>
-12.5113

>  <SCORE.INTRA.DIHEDRAL.0>
23.8882

>  <SCORE.INTRA.POLAR>
0

>  <SCORE.INTRA.POLAR.0>
0

>  <SCORE.INTRA.REPUL>
0

>  <SCORE.INTRA.REPUL.0>
0

>  <SCORE.INTRA.SOLV>
2.34992

>  <SCORE.INTRA.SOLV.lig_0>
-97.6888

>  <SCORE.INTRA.VDW>
-0.0253339

>  <SCORE.INTRA.VDW.0>
-3.9206

>  <SCORE.INTRA.norm>
-0.145887

>  <SCORE.RESTR>
0

>  <SCORE.RESTR.CAVITY>
0

>  <SCORE.RESTR.norm>
0

>  <SCORE.SYSTEM>
0

>  <SCORE.SYSTEM.CONST>
0

>  <SCORE.SYSTEM.DIHEDRAL>
0

>  <SCORE.SYSTEM.SOLV>
0

>  <SCORE.SYSTEM.norm>
0

>  <SCORE.heavy>
35

>  <SCORE.norm>
-0.451276

>  <RMSD>
8.827

$$$$
2f4t_lig
 OpenBabel11021811433D
libRbt.so/2013.1/901 2013/11/27
 35 36  0  0  0  0  0  0  0  0999 V2000
    1.9151  -13.2376   29.5294 C   0  0  2  0  0  0  0  0  0  0  0  0
    2.6624  -12.4060   30.4765 O   0  0  0  0  0  0  0  0  0  0  0  0
    4.4132   -8.5116   29.8238 C   0  0  2  0  0  0  0  0  0  0  0  0
    5.3936   -7.4821   29.4474 N   0  0  0  0  0  0  0  0  0  0  0  0
    0.8895  -14.0408   30.3854 C   0  0  2  0  0  0  0  0  0  0  0  0
    0.0561  -13.1463   31.1542 N   0  0  0  0  0  0  0  0  0  0  0  0
    5.0937   -9.5466   30.7929 C   0  0  0  0  0  0  0  0  0  0  0  0
    6.7873   -8.2466   28.6781 C   0  0  0  0  0  0  0  0  0  0  0  0
    7.3431   -6.8466   28.5389 C   0  0  1  0  0  0  0  0  0  0  0  0
    8.7993   -6.8794   29.0083 C   0  0  0  0  0  0  0  0  0  0  0  0
    9.0082   -7.1022   30.5156 C   0  0  0  0  0  0  0  0  0  0  0  0
   10.4079   -6.8082   30.8372 N   0  0  0  0  0  0  0  0  0  0  0  0
    7.3821   -6.4538   27.1920 O   0  0  0  0  0  0  0  0  0  0  0  0
    2.6500   -7.8804   26.5195 C   0  0  0  0  0  0  0  0  0  0  0  0
    2.3425   -6.4007   26.6909 C   0  0  0  0  0  0  0  0  0  0  0  0
    1.6412  -15.0409   31.3272 C   0  0  1  0  0  0  0  0  0  0  0  0
    1.1776   -5.9437   25.9017 N   0  0  0  0  0  0  0  0  0  0  0  0
    0.7273  -15.7839   32.1102 O   0  0  0  0  0  0  0  0  0  0  0  0
    4.1231  -10.6579   31.2165 C   0  0  2  0  0  0  0  0  0  0  0  0
    4.7882  -11.6270   32.0818 N   0  0  0  0  0  0  0  0  0  0  0  0
    0.6490   -4.8635   23.7142 C   0  0  0  0  0  0  0  0  0  0  0  0
   -0.7879   -4.4227   24.1419 N   0  0  0  0  0  0  0  0  0  0  0  0
    1.1455   -6.1562   24.4269 C   0  0  0  0  0  0  0  0  0  0  0  0
    7.0561   -9.2529   28.4451 O   0  0  0  0  0  0  0  0  0  0  0  0
    2.4880  -15.9717   30.4529 C   0  0  2  0  0  0  0  0  0  0  0  0
    3.1889  -16.9156   31.2464 O   0  0  0  0  0  0  0  0  0  0  0  0
    3.5786  -11.3716   30.0045 C   0  0  2  0  0  0  0  0  0  0  0  0
    3.4852  -15.1359   29.5996 C   0  0  2  0  0  0  0  0  0  0  0  0
    2.7891  -14.1716   28.7829 O   0  0  0  0  0  0  0  0  0  0  0  0
    2.8618  -10.3364   29.0352 C   0  0  2  0  0  0  0  0  0  0  0  0
    2.3436  -11.0616   27.8799 O   0  0  0  0  0  0  0  0  0  0  0  0
    4.3089  -15.9920   28.7133 C   0  0  0  0  0  0  0  0  0  0  0  0
    5.1225  -16.7662   29.4646 N   0  0  0  0  0  0  0  0  0  0  0  0
    3.9081   -9.2603   28.5806 C   0  0  1  0  0  0  0  0  0  0  0  0
    3.3169   -8.3528   27.7062 O   0  0  0  0  0  0  0  0  0  0  0  0
  1  2  1  1  0  0  0
  1  5  1  0  0  0  0
  1 29  1  0  0  0  0
  3  4  1  6  0  0  0
  3  7  1  0  0  0  0
  3 34  1  0  0  0  0
  5  6  1  1  0  0  0
  5 16  1  0  0  0  0
  7 19  1  0  0  0  0
  8  4  1  0  0  0  0
  8 24  2  0  0  0  0
  9  8  1  6  0  0  0
  9 10  1  0  0  0  0
  9 13  1  0  0  0  0
 10 11  1  0  0  0  0
 11 12  1  0  0  0  0
 14 15  1  0  0  0  0
 14 35  1  0  0  0  0
 15 17  1  0  0  0  0
 16 18  1  6  0  0  0
 16 25  1  0  0  0  0
 19 20  1  1  0  0  0
 19 27  1  0  0  0  0
 21 22  1  0  0  0  0
 21 23  1  0  0  0  0
 23 17  1  0  0  0  0
 25 26  1  1  0  0  0
 25 28  1  0  0  0  0
 27  2  1  1  0  0  0
 27 30  1  0  0  0  0
 28 29  1  0  0  0  0
 28 32  1  6  0  0  0
 30 31  1  6  0  0  0
 30 34  1  0  0  0  0
 32 33  2  0  0  0  0
 34 35  1  6  0  0  0
M  END
>  <CHROM.1>
-170.87819705,58.23716867,132.94387893,-69.22419849,-167.44769825,-153.49817304
175.49521619,-55.80456762,-60.14038420,-135.52906217,177.01888793,-66.31414092
179.01045062,3.79514112,-10.41182494,28.97336666,1.76932206,0.39516724,2.67615455

>  <Name>
2f4t_lig

>  <RI>
0

>  <Rbt.Current_Directory>
/home/itssahil/PROJECTS/Mol_Feturizer/New_Systems/rnas/2f4t

>  <Rbt.Executable>
rbdock ($Id: //depot/dev/client3/rdock/2013.1/src/exe/rbdock.cxx#4 $)

>  <Rbt.Library>
libRbt.so (2013.1, Build901 2013/11/27)

>  <Rbt.Parameter_File>
/export/apps/rDock/src/rDock_2013.1_src/data/scripts/dock_solv.prm

>  <Rbt.Receptor>
prm/pocket_docking_5.prm

>  <SCORE>
-16.2464

>  <SCORE.INTER>
-9.92103

>  <SCORE.INTER.CONST>
1

>  <SCORE.INTER.POLAR>
-0.821988

>  <SCORE.INTER.ROT>
13

>  <SCORE.INTER.SOLV>
21.3418

>  <SCORE.INTER.VDW>
-23.2546

>  <SCORE.INTER.norm>
-0.283458

>  <SCORE.INTRA>
-6.32532

>  <SCORE.INTRA.DIHEDRAL>
-15.0792

>  <SCORE.INTRA.DIHEDRAL.0>
23.8882

>  <SCORE.INTRA.POLAR>
0

>  <SCORE.INTRA.POLAR.0>
0

>  <SCORE.INTRA.REPUL>
0

>  <SCORE.INTRA.REPUL.0>
0

>  <SCORE.INTRA.SOLV>
0.0782088

>  <SCORE.INTRA.SOLV.lig_0>
-97.6888

>  <SCORE.INTRA.VDW>
1.17518

>  <SCORE.INTRA.VDW.0>
-3.9206

>  <SCORE.INTRA.norm>
-0.180723

>  <SCORE.RESTR>
0

>  <SCORE.RESTR.CAVITY>
0

>  <SCORE.RESTR.norm>
0

>  <SCORE.SYSTEM>
0

>  <SCORE.SYSTEM.CONST>
0

>  <SCORE.SYSTEM.DIHEDRAL>
0

>  <SCORE.SYSTEM.SOLV>
0

>  <SCORE.SYSTEM.norm>
0

>  <SCORE.heavy>
35

>  <SCORE.norm>
-0.464181

>  <RMSD>
8.833

$$$$
2f4t_lig
 OpenBabel11021811433D
libRbt.so/2013.1/901 2013/11/27
 35 36  0  0  0  0  0  0  0  0999 V2000
    3.2322  -13.1993   30.2155 C   0  0  2  0  0  0  0  0  0  0  0  0
    3.0823  -12.0754   31.1438 O   0  0  0  0  0  0  0  0  0  0  0  0
    4.3926   -7.9596   31.1563 C   0  0  2  0  0  0  0  0  0  0  0  0
    5.2892   -6.7943   31.1847 N   0  0  0  0  0  0  0  0  0  0  0  0
    1.9440  -14.0614   30.3792 C   0  0  2  0  0  0  0  0  0  0  0  0
    0.7637  -13.2648   30.1388 N   0  0  0  0  0  0  0  0  0  0  0  0
    4.7543   -8.9219   32.3465 C   0  0  0  0  0  0  0  0  0  0  0  0
    4.7295   -5.6477   32.4057 C   0  0  0  0  0  0  0  0  0  0  0  0
    5.9152   -4.8008   31.9995 C   0  0  1  0  0  0  0  0  0  0  0  0
    5.4081   -3.7321   31.0287 C   0  0  0  0  0  0  0  0  0  0  0  0
    6.4860   -2.8172   30.4234 C   0  0  0  0  0  0  0  0  0  0  0  0
    7.3782   -3.6368   29.5979 N   0  0  0  0  0  0  0  0  0  0  0  0
    6.4349   -4.1038   33.1014 O   0  0  0  0  0  0  0  0  0  0  0  0
    4.1394   -7.4422   27.4051 C   0  0  0  0  0  0  0  0  0  0  0  0
    3.2587   -6.2029   27.3619 C   0  0  0  0  0  0  0  0  0  0  0  0
    1.8996  -14.6959   31.8102 C   0  0  1  0  0  0  0  0  0  0  0  0
    3.8576   -5.0284   28.0331 N   0  0  0  0  0  0  0  0  0  0  0  0
    0.7392  -15.4870   31.9780 O   0  0  0  0  0  0  0  0  0  0  0  0
    3.8585  -10.1683   32.3674 C   0  0  2  0  0  0  0  0  0  0  0  0
    4.2396  -11.0641   33.4547 N   0  0  0  0  0  0  0  0  0  0  0  0
    2.1532   -3.4459   28.9397 C   0  0  0  0  0  0  0  0  0  0  0  0
    1.4534   -2.0526   28.8348 N   0  0  0  0  0  0  0  0  0  0  0  0
    3.2499   -3.6787   27.8589 C   0  0  0  0  0  0  0  0  0  0  0  0
    3.9118   -5.6230   33.0912 O   0  0  0  0  0  0  0  0  0  0  0  0
    3.1638  -15.5417   31.9944 C   0  0  2  0  0  0  0  0  0  0  0  0
    3.1810  -16.1582   33.2717 O   0  0  0  0  0  0  0  0  0  0  0  0
    3.9593  -10.9111   31.0586 C   0  0  2  0  0  0  0  0  0  0  0  0
    4.4279  -14.6543   31.8052 C   0  0  2  0  0  0  0  0  0  0  0  0
    4.4290  -14.0209   30.5089 O   0  0  0  0  0  0  0  0  0  0  0  0
    3.5648   -9.9536   29.8534 C   0  0  2  0  0  0  0  0  0  0  0  0
    3.6678  -10.7059   28.6074 O   0  0  0  0  0  0  0  0  0  0  0  0
    5.6796  -15.4357   31.9454 C   0  0  0  0  0  0  0  0  0  0  0  0
    6.2253  -15.1976   33.1583 N   0  0  0  0  0  0  0  0  0  0  0  0
    4.5465   -8.7307   29.8361 C   0  0  1  0  0  0  0  0  0  0  0  0
    4.2442   -7.8854   28.7721 O   0  0  0  0  0  0  0  0  0  0  0  0
  1  2  1  1  0  0  0
  1  5  1  0  0  0  0
  1 29  1  0  0  0  0
  3  4  1  6  0  0  0
  3  7  1  0  0  0  0
  3 34  1  0  0  0  0
  5  6  1  1  0  0  0
  5 16  1  0  0  0  0
  7 19  1  0  0  0  0
  8  4  1  0  0  0  0
  8 24  2  0  0  0  0
  9  8  1  1  0  0  0
  9 10  1  0  0  0  0
  9 13  1  0  0  0  0
 10 11  1  0  0  0  0
 11 12  1  0  0  0  0
 14 15  1  0  0  0  0
 14 35  1  0  0  0  0
 15 17  1  0  0  0  0
 16 18  1  6  0  0  0
 16 25  1  0  0  0  0
 19 20  1  1  0  0  0
 19 27  1  0  0  0  0
 21 22  1  0  0  0  0
 21 23  1  0  0  0  0
 23 17  1  0  0  0  0
 25 26  1  1  0  0  0
 25 28  1  0  0  0  0
 27  2  1  1  0  0  0
 27 30  1  0  0  0  0
 28 29  1  0  0  0  0
 28 32  1  6  0  0  0
 30 31  1  6  0  0  0
 30 34  1  0  0  0  0
 32 33  2  0  0  0  0
 34 35  1  6  0  0  0
M  END
>  <CHROM.1>
-166.67024426,-79.40986377,98.53375060,-176.17930184,64.25448683,66.70046165
167.66249822,168.37945381,-179.84758538,88.41841894,-162.25833416,-102.87830459
170.08533951,3.98093976,-9.29220967,30.77337675,1.75788373,0.86535994,2.82960453

>  <Name>
2f4t_lig

>  <RI>
0

>  <Rbt.Current_Directory>
/home/itssahil/PROJECTS/Mol_Feturizer/New_Systems/rnas/2f4t

>  <Rbt.Executable>
rbdock ($Id: //depot/dev/client3/rdock/2013.1/src/exe/rbdock.cxx#4 $)

>  <Rbt.Library>
libRbt.so (2013.1, Build901 2013/11/27)

>  <Rbt.Parameter_File>
/export/apps/rDock/src/rDock_2013.1_src/data/scripts/dock_solv.prm

>  <Rbt.Receptor>
prm/pocket_docking_4.prm

>  <SCORE>
-6.72351

>  <SCORE.INTER>
1.78682

>  <SCORE.INTER.CONST>
1

>  <SCORE.INTER.POLAR>
-1.71448

>  <SCORE.INTER.ROT>
13

>  <SCORE.INTER.SOLV>
8.36641

>  <SCORE.INTER.VDW>
-8.14933

>  <SCORE.INTER.norm>
0.0510521

>  <SCORE.INTRA>
-8.51034

>  <SCORE.INTRA.DIHEDRAL>
-16.2349

>  <SCORE.INTRA.DIHEDRAL.0>
23.8882

>  <SCORE.INTRA.POLAR>
0

>  <SCORE.INTRA.POLAR.0>
0

>  <SCORE.INTRA.REPUL>
0

>  <SCORE.INTRA.REPUL.0>
0

>  <SCORE.INTRA.SOLV>
1.86274

>  <SCORE.INTRA.SOLV.lig_0>
-97.6888

>  <SCORE.INTRA.VDW>
-1.32425

>  <SCORE.INTRA.VDW.0>
-3.9206

>  <SCORE.INTRA.norm>
-0.243153

>  <SCORE.RESTR>
0

>  <SCORE.RESTR.CAVITY>
0

>  <SCORE.RESTR.norm>
0

>  <SCORE.SYSTEM>
0

>  <SCORE.SYSTEM.CONST>
0

>  <SCORE.SYSTEM.DIHEDRAL>
0

>  <SCORE.SYSTEM.SOLV>
0

>  <SCORE.SYSTEM.norm>
0

>  <SCORE.heavy>
35

>  <SCORE.norm>
-0.1921

>  <RMSD>
8.834

$$$$
2f4t_lig
 OpenBabel11021811433D
libRbt.so/2013.1/901 2013/11/27
 35 36  0  0  0  0  0  0  0  0999 V2000
    4.9404   -4.9919   31.0694 C   0  0  2  0  0  0  0  0  0  0  0  0
    5.8317   -4.9117   29.9090 O   0  0  0  0  0  0  0  0  0  0  0  0
    3.2623   -6.2952   26.7244 C   0  0  2  0  0  0  0  0  0  0  0  0
    2.8132   -6.6741   25.3763 N   0  0  0  0  0  0  0  0  0  0  0  0
    5.5188   -3.9963   32.1200 C   0  0  2  0  0  0  0  0  0  0  0  0
    5.6238   -2.6691   31.5606 N   0  0  0  0  0  0  0  0  0  0  0  0
    3.9043   -4.8603   26.6733 C   0  0  0  0  0  0  0  0  0  0  0  0
    1.2607   -5.9055   25.0330 C   0  0  0  0  0  0  0  0  0  0  0  0
    1.3414   -6.5896   23.6862 C   0  0  1  0  0  0  0  0  0  0  0  0
   -0.0603   -6.5674   23.0726 C   0  0  0  0  0  0  0  0  0  0  0  0
   -0.6644   -5.1720   22.8426 C   0  0  0  0  0  0  0  0  0  0  0  0
   -2.0162   -5.3367   22.2997 N   0  0  0  0  0  0  0  0  0  0  0  0
    2.1587   -5.8658   22.8040 O   0  0  0  0  0  0  0  0  0  0  0  0
    2.8996   -9.6364   27.7046 C   0  0  0  0  0  0  0  0  0  0  0  0
    3.1742   -9.9309   29.1713 C   0  0  0  0  0  0  0  0  0  0  0  0
    6.9155   -4.4957   32.6223 C   0  0  1  0  0  0  0  0  0  0  0  0
    2.5097  -11.1580   29.6624 N   0  0  0  0  0  0  0  0  0  0  0  0
    7.4564   -3.6077   33.5811 O   0  0  0  0  0  0  0  0  0  0  0  0
    4.4052   -4.4079   28.0520 C   0  0  2  0  0  0  0  0  0  0  0  0
    5.0325   -3.0926   27.9712 N   0  0  0  0  0  0  0  0  0  0  0  0
    2.3164  -13.6367   29.8857 C   0  0  0  0  0  0  0  0  0  0  0  0
    3.0381  -15.0029   30.1195 N   0  0  0  0  0  0  0  0  0  0  0  0
    3.2871  -12.4215   29.8055 C   0  0  0  0  0  0  0  0  0  0  0  0
    0.6088   -5.2581   25.5762 O   0  0  0  0  0  0  0  0  0  0  0  0
    6.7331   -5.8943   33.2207 C   0  0  2  0  0  0  0  0  0  0  0  0
    7.9641   -6.4027   33.7085 O   0  0  0  0  0  0  0  0  0  0  0  0
    5.4033   -5.3970   28.6002 C   0  0  2  0  0  0  0  0  0  0  0  0
    6.1370   -6.8549   32.1516 C   0  0  2  0  0  0  0  0  0  0  0  0
    4.8817   -6.3549   31.6457 O   0  0  0  0  0  0  0  0  0  0  0  0
    4.7513   -6.8437   28.6842 C   0  0  2  0  0  0  0  0  0  0  0  0
    5.7412   -7.7704   29.2230 O   0  0  0  0  0  0  0  0  0  0  0  0
    5.9143   -8.2167   32.6928 C   0  0  0  0  0  0  0  0  0  0  0  0
    6.9885   -8.9901   32.4215 N   0  0  0  0  0  0  0  0  0  0  0  0
    4.3147   -7.2867   27.2446 C   0  0  1  0  0  0  0  0  0  0  0  0
    3.7641   -8.5647   27.2801 O   0  0  0  0  0  0  0  0  0  0  0  0
  1  2  1  6  0  0  0
  1  5  1  0  0  0  0
  1 29  1  0  0  0  0
  3  4  1  6  0  0  0
  3  7  1  0  0  0  0
  3 34  1  0  0  0  0
  5  6  1  6  0  0  0
  5 16  1  0  0  0  0
  7 19  1  0  0  0  0
  8  4  1  0  0  0  0
  8 24  2  0  0  0  0
  9  8  1  1  0  0  0
  9 10  1  0  0  0  0
  9 13  1  0  0  0  0
 10 11  1  0  0  0  0
 11 12  1  0  0  0  0
 14 15  1  0  0  0  0
 14 35  1  0  0  0  0
 15 17  1  0  0  0  0
 16 18  1  1  0  0  0
 16 25  1  0  0  0  0
 19 20  1  6  0  0  0
 19 27  1  0  0  0  0
 21 22  1  0  0  0  0
 21 23  1  0  0  0  0
 23 17  1  0  0  0  0
 25 26  1  6  0  0  0
 25 28  1  0  0  0  0
 27  2  1  1  0  0  0
 27 30  1  0  0  0  0
 28 29  1  0  0  0  0
 28 32  1  1  0  0  0
 30 31  1  6  0  0  0
 30 34  1  0  0  0  0
 32 33  2  0  0  0  0
 34 35  1  1  0  0  0
M  END
>  <CHROM.1>
-161.99202351,-79.96799940,163.25980053,60.07948370,-177.98169401,-170.43154054
-62.06904902,100.95311027,-176.68713029,-161.90779584,73.40661973,-94.08027343
-67.02282535,3.96055849,-6.88905980,28.69741558,-0.25530061,-0.95199431,-0.32799431

>  <Name>
2f4t_lig

>  <RI>
0

>  <Rbt.Current_Directory>
/home/itssahil/PROJECTS/Mol_Feturizer/New_Systems/rnas/2f4t

>  <Rbt.Executable>
rbdock ($Id: //depot/dev/client3/rdock/2013.1/src/exe/rbdock.cxx#4 $)

>  <Rbt.Library>
libRbt.so (2013.1, Build901 2013/11/27)

>  <Rbt.Parameter_File>
/export/apps/rDock/src/rDock_2013.1_src/data/scripts/dock_solv.prm

>  <Rbt.Receptor>
prm/pocket_docking_3.prm

>  <SCORE>
-14.0167

>  <SCORE.INTER>
-6.11879

>  <SCORE.INTER.CONST>
1

>  <SCORE.INTER.POLAR>
-0.730258

>  <SCORE.INTER.ROT>
13

>  <SCORE.INTER.SOLV>
10.6962

>  <SCORE.INTER.VDW>
-17.4771

>  <SCORE.INTER.norm>
-0.174823

>  <SCORE.INTRA>
-7.89792

>  <SCORE.INTRA.DIHEDRAL>
-17.155

>  <SCORE.INTRA.DIHEDRAL.0>
23.8882

>  <SCORE.INTRA.POLAR>
0

>  <SCORE.INTRA.POLAR.0>
0

>  <SCORE.INTRA.REPUL>
0

>  <SCORE.INTRA.REPUL.0>
0

>  <SCORE.INTRA.SOLV>
0.960607

>  <SCORE.INTRA.SOLV.lig_0>
-97.6888

>  <SCORE.INTRA.VDW>
0.199258

>  <SCORE.INTRA.VDW.0>
-3.9206

>  <SCORE.INTRA.norm>
-0.225655

>  <SCORE.RESTR>
0

>  <SCORE.RESTR.CAVITY>
0

>  <SCORE.RESTR.norm>
0

>  <SCORE.SYSTEM>
0

>  <SCORE.SYSTEM.CONST>
0

>  <SCORE.SYSTEM.DIHEDRAL>
0

>  <SCORE.SYSTEM.SOLV>
0

>  <SCORE.SYSTEM.norm>
0

>  <SCORE.heavy>
35

>  <SCORE.norm>
-0.400477

>  <RMSD>
8.838

$$$$
2f4t_lig
 OpenBabel11021811433D
libRbt.so/2013.1/901 2013/11/27
 35 36  0  0  0  0  0  0  0  0999 V2000
    1.7225  -13.1440   29.2827 C   0  0  2  0  0  0  0  0  0  0  0  0
    2.4542  -12.3086   30.2388 O   0  0  0  0  0  0  0  0  0  0  0  0
    5.2752   -9.0409   30.0944 C   0  0  2  0  0  0  0  0  0  0  0  0
    6.4649   -8.2566   29.7307 N   0  0  0  0  0  0  0  0  0  0  0  0
    0.6424  -13.8982   30.1159 C   0  0  2  0  0  0  0  0  0  0  0  0
   -0.1960  -12.9632   30.8288 N   0  0  0  0  0  0  0  0  0  0  0  0
    5.7231  -10.4686   30.5790 C   0  0  0  0  0  0  0  0  0  0  0  0
    7.5014   -8.0639   31.1475 C   0  0  0  0  0  0  0  0  0  0  0  0
    8.4245   -7.2888   30.2336 C   0  0  1  0  0  0  0  0  0  0  0  0
    8.0383   -5.8113   30.3324 C   0  0  0  0  0  0  0  0  0  0  0  0
    8.7764   -4.8645   29.3712 C   0  0  0  0  0  0  0  0  0  0  0  0
    8.3322   -3.4936   29.6403 N   0  0  0  0  0  0  0  0  0  0  0  0
    9.7537   -7.3692   30.6775 O   0  0  0  0  0  0  0  0  0  0  0  0
    3.2134   -6.9659   27.6762 C   0  0  0  0  0  0  0  0  0  0  0  0
    3.4610   -7.2127   26.1959 C   0  0  0  0  0  0  0  0  0  0  0  0
    1.3289  -14.8938   31.1109 C   0  0  1  0  0  0  0  0  0  0  0  0
    2.7690   -6.2491   25.3121 N   0  0  0  0  0  0  0  0  0  0  0  0
    0.3649  -15.5927   31.8742 O   0  0  0  0  0  0  0  0  0  0  0  0
    4.5230  -11.3445   30.9650 C   0  0  2  0  0  0  0  0  0  0  0  0
    4.9609  -12.6760   31.3719 N   0  0  0  0  0  0  0  0  0  0  0  0
    1.1028   -6.0130   23.4683 C   0  0  0  0  0  0  0  0  0  0  0  0
   -0.3552   -6.2612   22.9638 N   0  0  0  0  0  0  0  0  0  0  0  0
    1.3436   -6.4707   24.9372 C   0  0  0  0  0  0  0  0  0  0  0  0
    7.4445   -8.3785   32.1658 O   0  0  0  0  0  0  0  0  0  0  0  0
    2.1840  -15.8680   30.2940 C   0  0  2  0  0  0  0  0  0  0  0  0
    2.8271  -16.8097   31.1374 O   0  0  0  0  0  0  0  0  0  0  0  0
    3.5695  -11.4730   29.8034 C   0  0  2  0  0  0  0  0  0  0  0  0
    3.2365  -15.0804   29.4616 C   0  0  2  0  0  0  0  0  0  0  0  0
    2.5997  -14.1189   28.5946 O   0  0  0  0  0  0  0  0  0  0  0  0
    3.0882  -10.0351   29.3282 C   0  0  2  0  0  0  0  0  0  0  0  0
    2.1650  -10.1986   28.2102 O   0  0  0  0  0  0  0  0  0  0  0  0
    4.0710  -15.9797   28.6299 C   0  0  0  0  0  0  0  0  0  0  0  0
    4.9409  -16.6456   29.4208 N   0  0  0  0  0  0  0  0  0  0  0  0
    4.3411   -9.2025   28.8851 C   0  0  1  0  0  0  0  0  0  0  0  0
    3.9492   -7.9446   28.4358 O   0  0  0  0  0  0  0  0  0  0  0  0
  1  2  1  1  0  0  0
  1  5  1  0  0  0  0
  1 29  1  0  0  0  0
  3  4  1  6  0  0  0
  3  7  1  0  0  0  0
  3 34  1  0  0  0  0
  5  6  1  1  0  0  0
  5 16  1  0  0  0  0
  7 19  1  0  0  0  0
  8  4  1  0  0  0  0
  8 24  2  0  0  0  0
  9  8  1  1  0  0  0
  9 10  1  0  0  0  0
  9 13  1  0  0  0  0
 10 11  1  0  0  0  0
 11 12  1  0  0  0  0
 14 15  1  0  0  0  0
 14 35  1  0  0  0  0
 15 17  1  0  0  0  0
 16 18  1  6  0  0  0
 16 25  1  0  0  0  0
 19 20  1  6  0  0  0
 19 27  1  0  0  0  0
 21 22  1  0  0  0  0
 21 23  1  0  0  0  0
 23 17  1  0  0  0  0
 25 26  1  1  0  0  0
 25 28  1  0  0  0  0
 27  2  1  1  0  0  0
 27 30  1  0  0  0  0
 28 29  1  0  0  0  0
 28 32  1  6  0  0  0
 30 31  1  6  0  0  0
 30 34  1  0  0  0  0
 32 33  2  0  0  0  0
 34 35  1  1  0  0  0
M  END
>  <CHROM.1>
178.84173285,-61.42048326,91.83096862,-174.41752515,-177.50648128,-179.08948208
-60.37374194,-83.70925020,177.63964738,-143.77377139,-150.43907922,-73.27804676
-170.51378301,3.99657354,-10.35602699,29.22191894,2.04761573,0.59187875,2.64145874

>  <Name>
2f4t_lig

>  <RI>
0

>  <Rbt.Current_Directory>
/home/itssahil/PROJECTS/Mol_Feturizer/New_Systems/rnas/2f4t

>  <Rbt.Executable>
rbdock ($Id: //depot/dev/client3/rdock/2013.1/src/exe/rbdock.cxx#4 $)

>  <Rbt.Library>
libRbt.so (2013.1, Build901 2013/11/27)

>  <Rbt.Parameter_File>
/export/apps/rDock/src/rDock_2013.1_src/data/scripts/dock_solv.prm

>  <Rbt.Receptor>
prm/pocket_docking_6.prm

>  <SCORE>
-20.2465

>  <SCORE.INTER>
-12.62

>  <SCORE.INTER.CONST>
1

>  <SCORE.INTER.POLAR>
-1.53426

>  <SCORE.INTER.ROT>
13

>  <SCORE.INTER.SOLV>
15.6604

>  <SCORE.INTER.VDW>
-20.7859

>  <SCORE.INTER.norm>
-0.36057

>  <SCORE.INTRA>
-7.62658

>  <SCORE.INTRA.DIHEDRAL>
-15.16

>  <SCORE.INTRA.DIHEDRAL.0>
23.8882

>  <SCORE.INTRA.POLAR>
0

>  <SCORE.INTRA.POLAR.0>
0

>  <SCORE.INTRA.REPUL>
0

>  <SCORE.INTRA.REPUL.0>
0

>  <SCORE.INTRA.SOLV>
-0.503831

>  <SCORE.INTRA.SOLV.lig_0>
-97.6888

>  <SCORE.INTRA.VDW>
0.205321

>  <SCORE.INTRA.VDW.0>
-3.9206

>  <SCORE.INTRA.norm>
-0.217902

>  <SCORE.RESTR>
0

>  <SCORE.RESTR.CAVITY>
0

>  <SCORE.RESTR.norm>
0

>  <SCORE.SYSTEM>
0

>  <SCORE.SYSTEM.CONST>
0

>  <SCORE.SYSTEM.DIHEDRAL>
0

>  <SCORE.SYSTEM.SOLV>
0

>  <SCORE.SYSTEM.norm>
0

>  <SCORE.heavy>
35

>  <SCORE.norm>
-0.578472

>  <RMSD>
8.863

$$$$
2f4t_lig
 OpenBabel11021811433D
libRbt.so/2013.1/901 2013/11/27
 35 36  0  0  0  0  0  0  0  0999 V2000
    8.7975   -3.8898   27.6703 C   0  0  2  0  0  0  0  0  0  0  0  0
    8.2263   -4.6955   26.5878 O   0  0  0  0  0  0  0  0  0  0  0  0
    4.0308   -3.7216   26.9145 C   0  0  2  0  0  0  0  0  0  0  0  0
    2.6180   -3.5521   26.5432 N   0  0  0  0  0  0  0  0  0  0  0  0
   10.3150   -4.2440   27.7094 C   0  0  2  0  0  0  0  0  0  0  0  0
   10.9274   -4.0047   26.4236 N   0  0  0  0  0  0  0  0  0  0  0  0
    4.9379   -3.0182   25.8393 C   0  0  0  0  0  0  0  0  0  0  0  0
    2.2716   -4.4949   25.0906 C   0  0  0  0  0  0  0  0  0  0  0  0
    0.8568   -3.9755   25.2208 C   0  0  1  0  0  0  0  0  0  0  0  0
    0.0612   -4.4981   24.0225 C   0  0  0  0  0  0  0  0  0  0  0  0
   -1.3951   -4.0130   23.9277 C   0  0  0  0  0  0  0  0  0  0  0  0
   -2.0290   -4.6731   22.7825 N   0  0  0  0  0  0  0  0  0  0  0  0
    0.2303   -4.5060   26.3592 O   0  0  0  0  0  0  0  0  0  0  0  0
    2.3826   -6.3170   28.5330 C   0  0  0  0  0  0  0  0  0  0  0  0
    2.7505   -7.1220   29.7700 C   0  0  0  0  0  0  0  0  0  0  0  0
   10.5080   -5.7362   28.1435 C   0  0  1  0  0  0  0  0  0  0  0  0
    3.4746   -6.3361   30.7930 N   0  0  0  0  0  0  0  0  0  0  0  0
   11.8799   -6.0770   28.1900 O   0  0  0  0  0  0  0  0  0  0  0  0
    6.4308   -3.1680   26.1636 C   0  0  2  0  0  0  0  0  0  0  0  0
    7.2521   -2.5431   25.1315 N   0  0  0  0  0  0  0  0  0  0  0  0
    4.1461   -8.1000   32.4267 C   0  0  0  0  0  0  0  0  0  0  0  0
    3.2146   -7.6362   33.5924 N   0  0  0  0  0  0  0  0  0  0  0  0
    4.6331   -6.9363   31.5135 C   0  0  0  0  0  0  0  0  0  0  0  0
    2.8479   -5.1278   24.4531 O   0  0  0  0  0  0  0  0  0  0  0  0
    9.8571   -5.9190   29.5185 C   0  0  2  0  0  0  0  0  0  0  0  0
   10.0074   -7.2522   29.9785 O   0  0  0  0  0  0  0  0  0  0  0  0
    6.8021   -4.6257   26.2732 C   0  0  2  0  0  0  0  0  0  0  0  0
    8.3500   -5.5385   29.4466 C   0  0  2  0  0  0  0  0  0  0  0  0
    8.1777   -4.1832   28.9830 O   0  0  0  0  0  0  0  0  0  0  0  0
    5.9108   -5.3363   27.3803 C   0  0  2  0  0  0  0  0  0  0  0  0
    6.3010   -6.7399   27.4626 O   0  0  0  0  0  0  0  0  0  0  0  0
    7.6815   -5.6714   30.7628 C   0  0  0  0  0  0  0  0  0  0  0  0
    8.1672   -4.7380   31.6105 N   0  0  0  0  0  0  0  0  0  0  0  0
    4.4018   -5.2116   26.9722 C   0  0  1  0  0  0  0  0  0  0  0  0
    3.5948   -5.8502   27.9096 O   0  0  0  0  0  0  0  0  0  0  0  0
  1  2  1  6  0  0  0
  1  5  1  0  0  0  0
  1 29  1  0  0  0  0
  3  4  1  6  0  0  0
  3  7  1  0  0  0  0
  3 34  1  0  0  0  0
  5  6  1  6  0  0  0
  5 16  1  0  0  0  0
  7 19  1  0  0  0  0
  8  4  1  0  0  0  0
  8 24  2  0  0  0  0
  9  8  1  6  0  0  0
  9 10  1  0  0  0  0
  9 13  1  0  0  0  0
 10 11  1  0  0  0  0
 11 12  1  0  0  0  0
 14 15  1  0  0  0  0
 14 35  1  0  0  0  0
 15 17  1  0  0  0  0
 16 18  1  1  0  0  0
 16 25  1  0  0  0  0
 19 20  1  6  0  0  0
 19 27  1  0  0  0  0
 21 22  1  0  0  0  0
 21 23  1  0  0  0  0
 23 17  1  0  0  0  0
 25 26  1  6  0  0  0
 25 28  1  0  0  0  0
 27  2  1  1  0  0  0
 27 30  1  0  0  0  0
 28 29  1  0  0  0  0
 28 32  1  1  0  0  0
 30 31  1  6  0  0  0
 30 34  1  0  0  0  0
 32 33  2  0  0  0  0
 34 35  1  1  0  0  0
M  END
>  <CHROM.1>
179.38214819,68.86076704,176.85412703,-176.72795416,-176.34057375,61.64192793
178.25678099,-138.49310339,-65.31173995,-67.18053512,49.01640943,67.63558606
59.47077906,5.39529170,-5.15275445,27.72137762,-0.40967425,-0.09912898,-1.11441723

>  <Name>
2f4t_lig

>  <RI>
0

>  <Rbt.Current_Directory>
/home/itssahil/PROJECTS/Mol_Feturizer/New_Systems/rnas/2f4t

>  <Rbt.Executable>
rbdock ($Id: //depot/dev/client3/rdock/2013.1/src/exe/rbdock.cxx#4 $)

>  <Rbt.Library>
libRbt.so (2013.1, Build901 2013/11/27)

>  <Rbt.Parameter_File>
/export/apps/rDock/src/rDock_2013.1_src/data/scripts/dock_solv.prm

>  <Rbt.Receptor>
prm/pocket_docking_7.prm

>  <SCORE>
-17.1362

>  <SCORE.INTER>
-9.15261

>  <SCORE.INTER.CONST>
1

>  <SCORE.INTER.POLAR>
-1.49378

>  <SCORE.INTER.ROT>
13

>  <SCORE.INTER.SOLV>
10.6457

>  <SCORE.INTER.VDW>
-16.9377

>  <SCORE.INTER.norm>
-0.261503

>  <SCORE.INTRA>
-7.9836

>  <SCORE.INTRA.DIHEDRAL>
-19.3728

>  <SCORE.INTRA.DIHEDRAL.0>
23.8882

>  <SCORE.INTRA.POLAR>
0

>  <SCORE.INTRA.POLAR.0>
0

>  <SCORE.INTRA.REPUL>
0

>  <SCORE.INTRA.REPUL.0>
0

>  <SCORE.INTRA.SOLV>
3.12022

>  <SCORE.INTRA.SOLV.lig_0>
-97.6888

>  <SCORE.INTRA.VDW>
0.142679

>  <SCORE.INTRA.VDW.0>
-3.9206

>  <SCORE.INTRA.norm>
-0.228103

>  <SCORE.RESTR>
0

>  <SCORE.RESTR.CAVITY>
0

>  <SCORE.RESTR.norm>
0

>  <SCORE.SYSTEM>
0

>  <SCORE.SYSTEM.CONST>
0

>  <SCORE.SYSTEM.DIHEDRAL>
0

>  <SCORE.SYSTEM.SOLV>
0

>  <SCORE.SYSTEM.norm>
0

>  <SCORE.heavy>
35

>  <SCORE.norm>
-0.489606

>  <RMSD>
8.881

$$$$
2f4t_lig
 OpenBabel11021811433D
libRbt.so/2013.1/901 2013/11/27
 35 36  0  0  0  0  0  0  0  0999 V2000
    4.5435  -11.6995   31.5150 C   0  0  2  0  0  0  0  0  0  0  0  0
    3.9513  -12.4930   32.5952 O   0  0  0  0  0  0  0  0  0  0  0  0
    4.8915  -16.2759   34.4560 C   0  0  2  0  0  0  0  0  0  0  0  0
    5.6818  -17.3835   35.0141 N   0  0  0  0  0  0  0  0  0  0  0  0
    4.1189  -10.2248   31.7881 C   0  0  2  0  0  0  0  0  0  0  0  0
    4.5359   -9.8104   33.1071 N   0  0  0  0  0  0  0  0  0  0  0  0
    5.4206  -15.9357   33.0145 C   0  0  0  0  0  0  0  0  0  0  0  0
    5.2525  -18.8875   34.1941 C   0  0  0  0  0  0  0  0  0  0  0  0
    6.2764  -19.5445   35.0930 C   0  0  1  0  0  0  0  0  0  0  0  0
    5.7897  -20.9655   35.3856 C   0  0  0  0  0  0  0  0  0  0  0  0
    6.5283  -21.7029   36.5151 C   0  0  0  0  0  0  0  0  0  0  0  0
    6.2157  -21.0380   37.7837 N   0  0  0  0  0  0  0  0  0  0  0  0
    7.5062  -19.6879   34.4318 O   0  0  0  0  0  0  0  0  0  0  0  0
    4.2217  -15.0835   37.9992 C   0  0  0  0  0  0  0  0  0  0  0  0
    3.1222  -14.0340   38.0564 C   0  0  0  0  0  0  0  0  0  0  0  0
    2.5688  -10.0724   31.6260 C   0  0  1  0  0  0  0  0  0  0  0  0
    1.9140  -14.4011   37.2857 N   0  0  0  0  0  0  0  0  0  0  0  0
    2.1629   -8.7389   31.8652 O   0  0  0  0  0  0  0  0  0  0  0  0
    4.6418  -14.7761   32.3779 C   0  0  2  0  0  0  0  0  0  0  0  0
    5.1770  -14.4527   31.0591 N   0  0  0  0  0  0  0  0  0  0  0  0
   -0.0272  -13.9485   35.7829 C   0  0  0  0  0  0  0  0  0  0  0  0
   -0.9592  -12.8879   35.1132 N   0  0  0  0  0  0  0  0  0  0  0  0
    0.9960  -13.3385   36.7859 C   0  0  0  0  0  0  0  0  0  0  0  0
    4.5676  -19.1487   33.4183 O   0  0  0  0  0  0  0  0  0  0  0  0
    2.1948  -10.5064   30.2049 C   0  0  2  0  0  0  0  0  0  0  0  0
    0.7990  -10.3806   29.9861 O   0  0  0  0  0  0  0  0  0  0  0  0
    4.7140  -13.5500   33.2532 C   0  0  2  0  0  0  0  0  0  0  0  0
    2.6500  -11.9743   29.9615 C   0  0  2  0  0  0  0  0  0  0  0  0
    4.0691  -12.1208   30.1767 O   0  0  0  0  0  0  0  0  0  0  0  0
    4.1518  -13.8779   34.7028 C   0  0  2  0  0  0  0  0  0  0  0  0
    4.2315  -12.6702   35.5178 O   0  0  0  0  0  0  0  0  0  0  0  0
    2.3355  -12.4314   28.5871 C   0  0  0  0  0  0  0  0  0  0  0  0
    1.7147  -13.6302   28.6425 N   0  0  0  0  0  0  0  0  0  0  0  0
    5.0181  -15.0220   35.3351 C   0  0  1  0  0  0  0  0  0  0  0  0
    4.5675  -15.3137   36.6195 O   0  0  0  0  0  0  0  0  0  0  0  0
  1  2  1  1  0  0  0
  1  5  1  0  0  0  0
  1 29  1  0  0  0  0
  3  4  1  1  0  0  0
  3  7  1  0  0  0  0
  3 34  1  0  0  0  0
  5  6  1  1  0  0  0
  5 16  1  0  0  0  0
  7 19  1  0  0  0  0
  8  4  1  0  0  0  0
  8 24  2  0  0  0  0
  9  8  1  6  0  0  0
  9 10  1  0  0  0  0
  9 13  1  0  0  0  0
 10 11  1  0  0  0  0
 11 12  1  0  0  0  0
 14 15  1  0  0  0  0
 14 35  1  0  0  0  0
 15 17  1  0  0  0  0
 16 18  1  6  0  0  0
 16 25  1  0  0  0  0
 19 20  1  6  0  0  0
 19 27  1  0  0  0  0
 21 22  1  0  0  0  0
 21 23  1  0  0  0  0
 23 17  1  0  0  0  0
 25 26  1  1  0  0  0
 25 28  1  0  0  0  0
 27  2  1  6  0  0  0
 27 30  1  0  0  0  0
 28 29  1  0  0  0  0
 28 32  1  6  0  0  0
 30 31  1  1  0  0  0
 30 34  1  0  0  0  0
 32 33  2  0  0  0  0
 34 35  1  1  0  0  0
M  END
>  <CHROM.1>
-137.42980797,-72.33431233,147.34008156,-167.55099994,67.70059781,57.22124299
60.81723726,-155.91166817,-175.22722994,168.91898387,-81.33831538,-130.81581180
-177.59544049,3.86730997,-14.50337067,33.70252257,-2.23634662,-1.01980370
2.03450542

>  <Name>
2f4t_lig

>  <RI>
0

>  <Rbt.Current_Directory>
/home/itssahil/PROJECTS/Mol_Feturizer/New_Systems/rnas/2f4t

>  <Rbt.Executable>
rbdock ($Id: //depot/dev/client3/rdock/2013.1/src/exe/rbdock.cxx#4 $)

>  <Rbt.Library>
libRbt.so (2013.1, Build901 2013/11/27)

>  <Rbt.Parameter_File>
/export/apps/rDock/src/rDock_2013.1_src/data/scripts/dock_solv.prm

>  <Rbt.Receptor>
prm/pocket_docking_8.prm

>  <SCORE>
-10.445

>  <SCORE.INTER>
-5.6499

>  <SCORE.INTER.CONST>
1

>  <SCORE.INTER.POLAR>
-2.43587

>  <SCORE.INTER.ROT>
13

>  <SCORE.INTER.SOLV>
10.7835

>  <SCORE.INTER.VDW>
-11.5082

>  <SCORE.INTER.norm>
-0.161426

>  <SCORE.INTRA>
-4.79505

>  <SCORE.INTRA.DIHEDRAL>
-11.8812

>  <SCORE.INTRA.DIHEDRAL.0>
23.8882

>  <SCORE.INTRA.POLAR>
0

>  <SCORE.INTRA.POLAR.0>
0

>  <SCORE.INTRA.REPUL>
0

>  <SCORE.INTRA.REPUL.0>
0

>  <SCORE.INTRA.SOLV>
3.84541

>  <SCORE.INTRA.SOLV.lig_0>
-97.6888

>  <SCORE.INTRA.VDW>
-0.777133

>  <SCORE.INTRA.VDW.0>
-3.9206

>  <SCORE.INTRA.norm>
-0.137002

>  <SCORE.RESTR>
0

>  <SCORE.RESTR.CAVITY>
0

>  <SCORE.RESTR.norm>
0

>  <SCORE.SYSTEM>
0

>  <SCORE.SYSTEM.CONST>
0

>  <SCORE.SYSTEM.DIHEDRAL>
0

>  <SCORE.SYSTEM.SOLV>
0

>  <SCORE.SYSTEM.norm>
0

>  <SCORE.heavy>
35

>  <SCORE.norm>
-0.298427

>  <RMSD>
8.882

$$$$
2f4t_lig
 OpenBabel11021811433D
libRbt.so/2013.1/901 2013/11/27
 35 36  0  0  0  0  0  0  0  0999 V2000
    3.1609  -12.2726   33.5176 C   0  0  2  0  0  0  0  0  0  0  0  0
    4.1316  -11.1970   33.2982 O   0  0  0  0  0  0  0  0  0  0  0  0
    4.3578   -7.7906   30.6520 C   0  0  2  0  0  0  0  0  0  0  0  0
    3.9361   -6.6295   29.8540 N   0  0  0  0  0  0  0  0  0  0  0  0
    3.6425  -13.0268   34.7939 C   0  0  2  0  0  0  0  0  0  0  0  0
    3.7613  -12.1170   35.9091 N   0  0  0  0  0  0  0  0  0  0  0  0
    3.4424   -9.0207   30.3022 C   0  0  0  0  0  0  0  0  0  0  0  0
    4.2727   -6.9322   28.1470 C   0  0  0  0  0  0  0  0  0  0  0  0
    3.6818   -5.5621   27.8980 C   0  0  1  0  0  0  0  0  0  0  0  0
    4.7915   -4.6782   27.3243 C   0  0  0  0  0  0  0  0  0  0  0  0
    4.4292   -3.1960   27.1314 C   0  0  0  0  0  0  0  0  0  0  0  0
    5.6012   -2.4996   26.5923 N   0  0  0  0  0  0  0  0  0  0  0  0
    2.6853   -5.6173   26.9111 O   0  0  0  0  0  0  0  0  0  0  0  0
    5.4380   -5.0165   32.5296 C   0  0  0  0  0  0  0  0  0  0  0  0
    6.7406   -4.9320   33.3105 C   0  0  0  0  0  0  0  0  0  0  0  0
    5.0090  -13.7388   34.5144 C   0  0  1  0  0  0  0  0  0  0  0  0
    7.8303   -5.7489   32.7327 N   0  0  0  0  0  0  0  0  0  0  0  0
    5.4619  -14.4338   35.6599 O   0  0  0  0  0  0  0  0  0  0  0  0
    3.8248  -10.2674   31.1122 C   0  0  2  0  0  0  0  0  0  0  0  0
    2.9364  -11.3826   30.8003 N   0  0  0  0  0  0  0  0  0  0  0  0
    9.8981   -6.1575   31.3952 C   0  0  0  0  0  0  0  0  0  0  0  0
    9.1955   -6.9663   30.2577 N   0  0  0  0  0  0  0  0  0  0  0  0
    8.9829   -5.0864   32.0589 C   0  0  0  0  0  0  0  0  0  0  0  0
    4.7029   -7.7416   27.6002 O   0  0  0  0  0  0  0  0  0  0  0  0
    4.8115  -14.7015   33.3389 C   0  0  2  0  0  0  0  0  0  0  0  0
    6.0140  -15.3918   33.0400 O   0  0  0  0  0  0  0  0  0  0  0  0
    3.7515   -9.9776   32.5906 C   0  0  2  0  0  0  0  0  0  0  0  0
    4.3129  -13.9185   32.0902 C   0  0  2  0  0  0  0  0  0  0  0  0
    3.0877  -13.2118   32.3748 O   0  0  0  0  0  0  0  0  0  0  0  0
    4.6983   -8.7552   32.9568 C   0  0  2  0  0  0  0  0  0  0  0  0
    4.6065   -8.5082   34.3919 O   0  0  0  0  0  0  0  0  0  0  0  0
    4.0786  -14.8134   30.9321 C   0  0  0  0  0  0  0  0  0  0  0  0
    4.9993  -14.5620   29.9756 N   0  0  0  0  0  0  0  0  0  0  0  0
    4.2286   -7.4927   32.1539 C   0  0  1  0  0  0  0  0  0  0  0  0
    5.0224   -6.3950   32.4746 O   0  0  0  0  0  0  0  0  0  0  0  0
  1  2  1  6  0  0  0
  1  5  1  0  0  0  0
  1 29  1  0  0  0  0
  3  4  1  6  0  0  0
  3  7  1  0  0  0  0
  3 34  1  0  0  0  0
  5  6  1  1  0  0  0
  5 16  1  0  0  0  0
  7 19  1  0  0  0  0
  8  4  1  0  0  0  0
  8 24  2  0  0  0  0
  9  8  1  6  0  0  0
  9 10  1  0  0  0  0
  9 13  1  0  0  0  0
 10 11  1  0  0  0  0
 11 12  1  0  0  0  0
 14 15  1  0  0  0  0
 14 35  1  0  0  0  0
 15 17  1  0  0  0  0
 16 18  1  1  0  0  0
 16 25  1  0  0  0  0
 19 20  1  1  0  0  0
 19 27  1  0  0  0  0
 21 22  1  0  0  0  0
 21 23  1  0  0  0  0
 23 17  1  0  0  0  0
 25 26  1  6  0  0  0
 25 28  1  0  0  0  0
 27  2  1  1  0  0  0
 27 30  1  0  0  0  0
 28 29  1  0  0  0  0
 28 32  1  6  0  0  0
 30 31  1  1  0  0  0
 30 34  1  0  0  0  0
 32 33  2  0  0  0  0
 34 35  1  1  0  0  0
M  END
>  <CHROM.1>
-153.84856402,-66.93950828,116.40218263,-174.13275078,179.39239815,58.14005126
179.54534186,108.72922644,63.35364743,-173.36084910,-81.78110619,-111.38225878
72.20763826,4.90808367,-9.13584925,31.45793680,1.75743086,0.94133581,2.52194630

>  <Name>
2f4t_lig

>  <RI>
0

>  <Rbt.Current_Directory>
/home/itssahil/PROJECTS/Mol_Feturizer/New_Systems/rnas/2f4t

>  <Rbt.Executable>
rbdock ($Id: //depot/dev/client3/rdock/2013.1/src/exe/rbdock.cxx#4 $)

>  <Rbt.Library>
libRbt.so (2013.1, Build901 2013/11/27)

>  <Rbt.Parameter_File>
/export/apps/rDock/src/rDock_2013.1_src/data/scripts/dock_solv.prm

>  <Rbt.Receptor>
prm/pocket_docking_4.prm

>  <SCORE>
-8.00871

>  <SCORE.INTER>
-3.38327

>  <SCORE.INTER.CONST>
1

>  <SCORE.INTER.POLAR>
-1.97359

>  <SCORE.INTER.ROT>
13

>  <SCORE.INTER.SOLV>
13.3809

>  <SCORE.INTER.VDW>
-12.4038

>  <SCORE.INTER.norm>
-0.0966648

>  <SCORE.INTRA>
-4.63135

>  <SCORE.INTRA.DIHEDRAL>
-13.5856

>  <SCORE.INTRA.DIHEDRAL.0>
23.8882

>  <SCORE.INTRA.POLAR>
0

>  <SCORE.INTRA.POLAR.0>
0

>  <SCORE.INTRA.REPUL>
0

>  <SCORE.INTRA.REPUL.0>
0

>  <SCORE.INTRA.SOLV>
3.3819

>  <SCORE.INTRA.SOLV.lig_0>
-97.6888

>  <SCORE.INTRA.VDW>
0.470512

>  <SCORE.INTRA.VDW.0>
-3.9206

>  <SCORE.INTRA.norm>
-0.132324

>  <SCORE.RESTR>
0.00590734

>  <SCORE.RESTR.CAVITY>
0.00590734

>  <SCORE.RESTR.norm>
0.000168781

>  <SCORE.SYSTEM>
0

>  <SCORE.SYSTEM.CONST>
0

>  <SCORE.SYSTEM.DIHEDRAL>
0

>  <SCORE.SYSTEM.SOLV>
0

>  <SCORE.SYSTEM.norm>
0

>  <SCORE.heavy>
35

>  <SCORE.norm>
-0.22882

>  <RMSD>
8.907

$$$$
2f4t_lig
 OpenBabel11021811433D
libRbt.so/2013.1/901 2013/11/27
 35 36  0  0  0  0  0  0  0  0999 V2000
    3.0896   -9.9372   31.7778 C   0  0  2  0  0  0  0  0  0  0  0  0
    4.3818   -9.2467   31.7535 O   0  0  0  0  0  0  0  0  0  0  0  0
    5.2484   -5.2367   30.4021 C   0  0  2  0  0  0  0  0  0  0  0  0
    5.5912   -4.1247   29.5029 N   0  0  0  0  0  0  0  0  0  0  0  0
    3.3187  -11.2402   32.6021 C   0  0  2  0  0  0  0  0  0  0  0  0
    3.8342  -10.9288   33.9146 N   0  0  0  0  0  0  0  0  0  0  0  0
    6.3041   -6.3894   30.2279 C   0  0  0  0  0  0  0  0  0  0  0  0
    4.9967   -2.6083   30.1854 C   0  0  0  0  0  0  0  0  0  0  0  0
    5.5951   -1.9479   28.9631 C   0  0  1  0  0  0  0  0  0  0  0  0
    4.4671   -1.2108   28.2378 C   0  0  0  0  0  0  0  0  0  0  0  0
    4.8725   -0.4769   26.9485 C   0  0  0  0  0  0  0  0  0  0  0  0
    5.5662   -1.4269   26.0739 N   0  0  0  0  0  0  0  0  0  0  0  0
    6.5249   -0.9624   29.3298 O   0  0  0  0  0  0  0  0  0  0  0  0
    1.6355   -4.1158   30.1022 C   0  0  0  0  0  0  0  0  0  0  0  0
    1.2971   -3.9407   28.6297 C   0  0  0  0  0  0  0  0  0  0  0  0
    4.2960  -12.1955   31.8376 C   0  0  1  0  0  0  0  0  0  0  0  0
    1.4248   -5.1862   27.8416 N   0  0  0  0  0  0  0  0  0  0  0  0
    4.5137  -13.3874   32.5673 O   0  0  0  0  0  0  0  0  0  0  0  0
    5.9963   -7.5893   31.1345 C   0  0  2  0  0  0  0  0  0  0  0  0
    6.9651   -8.6607   30.9255 N   0  0  0  0  0  0  0  0  0  0  0  0
    1.5896   -6.5432   25.7528 C   0  0  0  0  0  0  0  0  0  0  0  0
    1.9395   -6.5877   24.2305 N   0  0  0  0  0  0  0  0  0  0  0  0
    1.6821   -5.1185   26.3751 C   0  0  0  0  0  0  0  0  0  0  0  0
    4.4612   -2.3438   31.0700 O   0  0  0  0  0  0  0  0  0  0  0  0
    3.6844  -12.5030   30.4668 C   0  0  2  0  0  0  0  0  0  0  0  0
    4.5173  -13.3781   29.7236 O   0  0  0  0  0  0  0  0  0  0  0  0
    4.6107   -8.1168   30.8574 C   0  0  2  0  0  0  0  0  0  0  0  0
    3.4520  -11.1804   29.6809 C   0  0  2  0  0  0  0  0  0  0  0  0
    2.6035  -10.2782   30.4210 O   0  0  0  0  0  0  0  0  0  0  0  0
    3.5351   -6.9653   31.0619 C   0  0  2  0  0  0  0  0  0  0  0  0
    2.2096   -7.5123   30.7917 O   0  0  0  0  0  0  0  0  0  0  0  0
    2.8331  -11.4241   28.3564 C   0  0  0  0  0  0  0  0  0  0  0  0
    3.1924  -10.4395   27.5036 N   0  0  0  0  0  0  0  0  0  0  0  0
    3.8544   -5.7923   30.0713 C   0  0  1  0  0  0  0  0  0  0  0  0
    2.9112   -4.7774   30.2063 O   0  0  0  0  0  0  0  0  0  0  0  0
  1  2  1  6  0  0  0
  1  5  1  0  0  0  0
  1 29  1  0  0  0  0
  3  4  1  6  0  0  0
  3  7  1  0  0  0  0
  3 34  1  0  0  0  0
  5  6  1  1  0  0  0
  5 16  1  0  0  0  0
  7 19  1  0  0  0  0
  8  4  1  0  0  0  0
  8 24  2  0  0  0  0
  9  8  1  1  0  0  0
  9 10  1  0  0  0  0
  9 13  1  0  0  0  0
 10 11  1  0  0  0  0
 11 12  1  0  0  0  0
 14 15  1  0  0  0  0
 14 35  1  0  0  0  0
 15 17  1  0  0  0  0
 16 18  1  1  0  0  0
 16 25  1  0  0  0  0
 19 20  1  6  0  0  0
 19 27  1  0  0  0  0
 21 22  1  0  0  0  0
 21 23  1  0  0  0  0
 23 17  1  0  0  0  0
 25 26  1  6  0  0  0
 25 28  1  0  0  0  0
 27  2  1  1  0  0  0
 27 30  1  0  0  0  0
 28 29  1  0  0  0  0
 28 32  1  6  0  0  0
 30 31  1  6  0  0  0
 30 34  1  0  0  0  0
 32 33  2  0  0  0  0
 34 35  1  1  0  0  0
M  END
>  <CHROM.1>
168.18870068,-152.30821782,121.71060660,-179.48764706,52.99149927,50.51288202
-63.85798069,-155.03097213,-176.13194745,-172.66513116,176.75068567,-152.25134784
169.38655513,3.90771066,-6.96548492,29.71008330,-1.65865960,-0.96788471,-0.37128930

>  <Name>
2f4t_lig

>  <RI>
0

>  <Rbt.Current_Directory>
/home/itssahil/PROJECTS/Mol_Feturizer/New_Systems/rnas/2f4t

>  <Rbt.Executable>
rbdock ($Id: //depot/dev/client3/rdock/2013.1/src/exe/rbdock.cxx#4 $)

>  <Rbt.Library>
libRbt.so (2013.1, Build901 2013/11/27)

>  <Rbt.Parameter_File>
/export/apps/rDock/src/rDock_2013.1_src/data/scripts/dock_solv.prm

>  <Rbt.Receptor>
prm/pocket_docking_5.prm

>  <SCORE>
-14.4262

>  <SCORE.INTER>
-5.59176

>  <SCORE.INTER.CONST>
1

>  <SCORE.INTER.POLAR>
-2.6546

>  <SCORE.INTER.ROT>
13

>  <SCORE.INTER.SOLV>
14.2595

>  <SCORE.INTER.VDW>
-11.899

>  <SCORE.INTER.norm>
-0.159765

>  <SCORE.INTRA>
-8.83448

>  <SCORE.INTRA.DIHEDRAL>
-17.0528

>  <SCORE.INTRA.DIHEDRAL.0>
23.8882

>  <SCORE.INTRA.POLAR>
0

>  <SCORE.INTRA.POLAR.0>
0

>  <SCORE.INTRA.REPUL>
0

>  <SCORE.INTRA.REPUL.0>
0

>  <SCORE.INTRA.SOLV>
1.48944

>  <SCORE.INTRA.SOLV.lig_0>
-97.6888

>  <SCORE.INTRA.VDW>
-1.05279

>  <SCORE.INTRA.VDW.0>
-3.9206

>  <SCORE.INTRA.norm>
-0.252414

>  <SCORE.RESTR>
0

>  <SCORE.RESTR.CAVITY>
0

>  <SCORE.RESTR.norm>
0

>  <SCORE.SYSTEM>
0

>  <SCORE.SYSTEM.CONST>
0

>  <SCORE.SYSTEM.DIHEDRAL>
0

>  <SCORE.SYSTEM.SOLV>
0

>  <SCORE.SYSTEM.norm>
0

>  <SCORE.heavy>
35

>  <SCORE.norm>
-0.412178

>  <RMSD>
8.957

$$$$
2f4t_lig
 OpenBabel11021811433D
libRbt.so/2013.1/901 2013/11/27
 35 36  0  0  0  0  0  0  0  0999 V2000
    2.2412   -9.7254   32.8959 C   0  0  2  0  0  0  0  0  0  0  0  0
    2.7305  -10.0004   31.5423 O   0  0  0  0  0  0  0  0  0  0  0  0
    1.6855   -8.1466   27.7834 C   0  0  2  0  0  0  0  0  0  0  0  0
    0.9452   -7.8462   26.5488 N   0  0  0  0  0  0  0  0  0  0  0  0
    3.2308  -10.4460   33.8608 C   0  0  2  0  0  0  0  0  0  0  0  0
    4.5840   -9.9971   33.6314 N   0  0  0  0  0  0  0  0  0  0  0  0
    1.9393   -9.6962   27.8723 C   0  0  0  0  0  0  0  0  0  0  0  0
    2.0126   -7.0283   25.4040 C   0  0  0  0  0  0  0  0  0  0  0  0
    0.8211   -7.0078   24.4724 C   0  0  1  0  0  0  0  0  0  0  0  0
    1.0300   -5.8610   23.4809 C   0  0  0  0  0  0  0  0  0  0  0  0
   -0.2208   -5.4159   22.7046 C   0  0  0  0  0  0  0  0  0  0  0  0
   -0.7728   -6.5822   22.0088 N   0  0  0  0  0  0  0  0  0  0  0  0
    0.7678   -8.1787   23.7001 O   0  0  0  0  0  0  0  0  0  0  0  0
    0.1141   -5.0531   29.3277 C   0  0  0  0  0  0  0  0  0  0  0  0
    0.3774   -4.0658   28.2010 C   0  0  0  0  0  0  0  0  0  0  0  0
    3.1256  -11.9978   33.6785 C   0  0  1  0  0  0  0  0  0  0  0  0
    1.8015   -3.6884   28.0663 N   0  0  0  0  0  0  0  0  0  0  0  0
    4.0133  -12.6716   34.5495 O   0  0  0  0  0  0  0  0  0  0  0  0
    2.7015  -10.0791   29.1485 C   0  0  2  0  0  0  0  0  0  0  0  0
    2.8890  -11.5243   29.2282 N   0  0  0  0  0  0  0  0  0  0  0  0
    3.6523   -2.1039   27.5232 C   0  0  0  0  0  0  0  0  0  0  0  0
    4.7140   -3.2076   27.2127 N   0  0  0  0  0  0  0  0  0  0  0  0
    2.1899   -2.5350   27.2060 C   0  0  0  0  0  0  0  0  0  0  0  0
    3.0333   -6.7167   25.4226 O   0  0  0  0  0  0  0  0  0  0  0  0
    1.6765  -12.4116   33.9548 C   0  0  2  0  0  0  0  0  0  0  0  0
    1.5138  -13.8140   33.8187 O   0  0  0  0  0  0  0  0  0  0  0  0
    1.9510   -9.6115   30.3704 C   0  0  2  0  0  0  0  0  0  0  0  0
    0.7167  -11.6596   32.9881 C   0  0  2  0  0  0  0  0  0  0  0  0
    0.8662  -10.2302   33.1150 O   0  0  0  0  0  0  0  0  0  0  0  0
    1.7182   -8.0411   30.3026 C   0  0  2  0  0  0  0  0  0  0  0  0
    0.9967   -7.6248   31.5006 O   0  0  0  0  0  0  0  0  0  0  0  0
   -0.7030  -12.0055   33.2365 C   0  0  0  0  0  0  0  0  0  0  0  0
   -1.2580  -11.0756   34.0445 N   0  0  0  0  0  0  0  0  0  0  0  0
    0.8827   -7.7080   29.0180 C   0  0  1  0  0  0  0  0  0  0  0  0
    0.6372   -6.3398   28.9443 O   0  0  0  0  0  0  0  0  0  0  0  0
  1  2  1  6  0  0  0
  1  5  1  0  0  0  0
  1 29  1  0  0  0  0
  3  4  1  6  0  0  0
  3  7  1  0  0  0  0
  3 34  1  0  0  0  0
  5  6  1  6  0  0  0
  5 16  1  0  0  0  0
  7 19  1  0  0  0  0
  8  4  1  0  0  0  0
  8 24  2  0  0  0  0
  9  8  1  1  0  0  0
  9 10  1  0  0  0  0
  9 13  1  0  0  0  0
 10 11  1  0  0  0  0
 11 12  1  0  0  0  0
 14 15  1  0  0  0  0
 14 35  1  0  0  0  0
 15 17  1  0  0  0  0
 16 18  1  1  0  0  0
 16 25  1  0  0  0  0
 19 20  1  1  0  0  0
 19 27  1  0  0  0  0
 21 22  1  0  0  0  0
 21 23  1  0  0  0  0
 23 17  1  0  0  0  0
 25 26  1  6  0  0  0
 25 28  1  0  0  0  0
 27  2  1  1  0  0  0
 27 30  1  0  0  0  0
 28 29  1  0  0  0  0
 28 32  1  1  0  0  0
 30 31  1  1  0  0  0
 30 34  1  0  0  0  0
 32 33  2  0  0  0  0
 34 35  1  6  0  0  0
M  END
>  <CHROM.1>
172.55023574,-108.68666776,156.29918421,-163.69318548,-56.12345936,-71.63850349
-171.66801991,-167.57987923,62.89421036,164.79866300,-177.93389101,95.89936489
177.12552912,1.67772943,-8.29128167,29.34376607,-1.40613637,-1.20764683,-0.76346034

>  <Name>
2f4t_lig

>  <RI>
0

>  <Rbt.Current_Directory>
/home/itssahil/PROJECTS/Mol_Feturizer/New_Systems/rnas/2f4t

>  <Rbt.Executable>
rbdock ($Id: //depot/dev/client3/rdock/2013.1/src/exe/rbdock.cxx#4 $)

>  <Rbt.Library>
libRbt.so (2013.1, Build901 2013/11/27)

>  <Rbt.Parameter_File>
/export/apps/rDock/src/rDock_2013.1_src/data/scripts/dock_solv.prm

>  <Rbt.Receptor>
prm/pocket_docking_8.prm

>  <SCORE>
-14.6651

>  <SCORE.INTER>
-6.99848

>  <SCORE.INTER.CONST>
1

>  <SCORE.INTER.POLAR>
-1.43923

>  <SCORE.INTER.ROT>
13

>  <SCORE.INTER.SOLV>
12.5178

>  <SCORE.INTER.VDW>
-16.3075

>  <SCORE.INTER.norm>
-0.199957

>  <SCORE.INTRA>
-7.66663

>  <SCORE.INTRA.DIHEDRAL>
-17.7678

>  <SCORE.INTRA.DIHEDRAL.0>
23.8882

>  <SCORE.INTRA.POLAR>
0

>  <SCORE.INTRA.POLAR.0>
0

>  <SCORE.INTRA.REPUL>
0

>  <SCORE.INTRA.REPUL.0>
0

>  <SCORE.INTRA.SOLV>
1.97149

>  <SCORE.INTRA.SOLV.lig_0>
-97.6888

>  <SCORE.INTRA.VDW>
0.231507

>  <SCORE.INTRA.VDW.0>
-3.9206

>  <SCORE.INTRA.norm>
-0.219047

>  <SCORE.RESTR>
0

>  <SCORE.RESTR.CAVITY>
0

>  <SCORE.RESTR.norm>
0

>  <SCORE.SYSTEM>
0

>  <SCORE.SYSTEM.CONST>
0

>  <SCORE.SYSTEM.DIHEDRAL>
0

>  <SCORE.SYSTEM.SOLV>
0

>  <SCORE.SYSTEM.norm>
0

>  <SCORE.heavy>
35

>  <SCORE.norm>
-0.419003

>  <RMSD>
8.980

$$$$
2f4t_lig
 OpenBabel11021811433D
libRbt.so/2013.1/901 2013/11/27
 35 36  0  0  0  0  0  0  0  0999 V2000
    3.6956  -13.6813   31.1921 C   0  0  2  0  0  0  0  0  0  0  0  0
    3.5837  -12.5222   32.0817 O   0  0  0  0  0  0  0  0  0  0  0  0
    3.4494   -9.2815   29.2292 C   0  0  2  0  0  0  0  0  0  0  0  0
    3.2659   -7.9295   28.6805 N   0  0  0  0  0  0  0  0  0  0  0  0
    2.6142  -14.6946   31.6753 C   0  0  2  0  0  0  0  0  0  0  0  0
    1.3054  -14.0843   31.6701 N   0  0  0  0  0  0  0  0  0  0  0  0
    2.1669   -9.6897   30.0429 C   0  0  0  0  0  0  0  0  0  0  0  0
    2.0045   -7.9595   27.4449 C   0  0  0  0  0  0  0  0  0  0  0  0
    2.2566   -6.4746   27.3042 C   0  0  1  0  0  0  0  0  0  0  0  0
    3.3956   -6.2930   26.2984 C   0  0  0  0  0  0  0  0  0  0  0  0
    3.9883   -4.8765   26.2124 C   0  0  0  0  0  0  0  0  0  0  0  0
    4.9997   -4.8617   25.1513 N   0  0  0  0  0  0  0  0  0  0  0  0
    1.1434   -5.8274   26.7454 O   0  0  0  0  0  0  0  0  0  0  0  0
    6.8776   -9.0493   28.5097 C   0  0  0  0  0  0  0  0  0  0  0  0
    7.6822   -7.7590   28.5466 C   0  0  0  0  0  0  0  0  0  0  0  0
    2.9719  -15.2216   33.1059 C   0  0  1  0  0  0  0  0  0  0  0  0
    8.0229   -7.3137   29.9156 N   0  0  0  0  0  0  0  0  0  0  0  0
    2.0044  -16.1472   33.5615 O   0  0  0  0  0  0  0  0  0  0  0  0
    2.2987  -11.0920   30.6534 C   0  0  2  0  0  0  0  0  0  0  0  0
    1.1147  -11.4315   31.4363 N   0  0  0  0  0  0  0  0  0  0  0  0
    9.5463   -6.0072   31.4001 C   0  0  0  0  0  0  0  0  0  0  0  0
    8.8285   -6.3894   32.7345 N   0  0  0  0  0  0  0  0  0  0  0  0
    9.4478   -7.1047   30.2995 C   0  0  0  0  0  0  0  0  0  0  0  0
    1.3808   -8.7193   27.0292 O   0  0  0  0  0  0  0  0  0  0  0  0
    4.3570  -15.8733   33.0397 C   0  0  2  0  0  0  0  0  0  0  0  0
    4.7385  -16.3855   34.3062 O   0  0  0  0  0  0  0  0  0  0  0  0
    3.5152  -11.1673   31.5419 C   0  0  2  0  0  0  0  0  0  0  0  0
    5.4058  -14.8401   32.5361 C   0  0  2  0  0  0  0  0  0  0  0  0
    5.0354  -14.3101   31.2463 O   0  0  0  0  0  0  0  0  0  0  0  0
    4.8195  -10.7862   30.7182 C   0  0  2  0  0  0  0  0  0  0  0  0
    5.9740  -10.8756   31.6060 O   0  0  0  0  0  0  0  0  0  0  0  0
    6.7598  -15.4331   32.4270 C   0  0  0  0  0  0  0  0  0  0  0  0
    7.0893  -16.0210   33.5981 N   0  0  0  0  0  0  0  0  0  0  0  0
    4.6635   -9.3252   30.1701 C   0  0  1  0  0  0  0  0  0  0  0  0
    5.8043   -8.9504   29.4660 O   0  0  0  0  0  0  0  0  0  0  0  0
  1  2  1  1  0  0  0
  1  5  1  0  0  0  0
  1 29  1  0  0  0  0
  3  4  1  1  0  0  0
  3  7  1  0  0  0  0
  3 34  1  0  0  0  0
  5  6  1  1  0  0  0
  5 16  1  0  0  0  0
  7 19  1  0  0  0  0
  8  4  1  0  0  0  0
  8 24  2  0  0  0  0
  9  8  1  6  0  0  0
  9 10  1  0  0  0  0
  9 13  1  0  0  0  0
 10 11  1  0  0  0  0
 11 12  1  0  0  0  0
 14 15  1  0  0  0  0
 14 35  1  0  0  0  0
 15 17  1  0  0  0  0
 16 18  1  6  0  0  0
 16 25  1  0  0  0  0
 19 20  1  1  0  0  0
 19 27  1  0  0  0  0
 21 22  1  0  0  0  0
 21 23  1  0  0  0  0
 23 17  1  0  0  0  0
 25 26  1  1  0  0  0
 25 28  1  0  0  0  0
 27  2  1  6  0  0  0
 27 30  1  0  0  0  0
 28 29  1  0  0  0  0
 28 32  1  6  0  0  0
 30 31  1  1  0  0  0
 30 34  1  0  0  0  0
 32 33  2  0  0  0  0
 34 35  1  6  0  0  0
M  END
>  <CHROM.1>
-131.32192742,-67.86185907,86.83728783,-168.75706740,-176.50115233,47.11822291
176.32021901,122.89010921,63.00095449,150.72766739,59.80788498,-52.73098712
-69.71210083,4.46260585,-10.52989199,30.33642844,1.63680197,0.34461665,2.58969981

>  <Name>
2f4t_lig

>  <RI>
0

>  <Rbt.Current_Directory>
/home/itssahil/PROJECTS/Mol_Feturizer/New_Systems/rnas/2f4t

>  <Rbt.Executable>
rbdock ($Id: //depot/dev/client3/rdock/2013.1/src/exe/rbdock.cxx#4 $)

>  <Rbt.Library>
libRbt.so (2013.1, Build901 2013/11/27)

>  <Rbt.Parameter_File>
/export/apps/rDock/src/rDock_2013.1_src/data/scripts/dock_solv.prm

>  <Rbt.Receptor>
prm/pocket_docking_3.prm

>  <SCORE>
-6.46077

>  <SCORE.INTER>
-4.36217

>  <SCORE.INTER.CONST>
1

>  <SCORE.INTER.POLAR>
-1.14558

>  <SCORE.INTER.ROT>
13

>  <SCORE.INTER.SOLV>
16.0647

>  <SCORE.INTER.VDW>
-16.7111

>  <SCORE.INTER.norm>
-0.124633

>  <SCORE.INTRA>
-2.19215

>  <SCORE.INTRA.DIHEDRAL>
-10.4969

>  <SCORE.INTRA.DIHEDRAL.0>
23.8882

>  <SCORE.INTRA.POLAR>
0

>  <SCORE.INTRA.POLAR.0>
0

>  <SCORE.INTRA.REPUL>
0

>  <SCORE.INTRA.REPUL.0>
0

>  <SCORE.INTRA.SOLV>
3.81026

>  <SCORE.INTRA.SOLV.lig_0>
-97.6888

>  <SCORE.INTRA.VDW>
1.15117

>  <SCORE.INTRA.VDW.0>
-3.9206

>  <SCORE.INTRA.norm>
-0.0626329

>  <SCORE.RESTR>
0.0935456

>  <SCORE.RESTR.CAVITY>
0.0935456

>  <SCORE.RESTR.norm>
0.00267273

>  <SCORE.SYSTEM>
0

>  <SCORE.SYSTEM.CONST>
0

>  <SCORE.SYSTEM.DIHEDRAL>
0

>  <SCORE.SYSTEM.SOLV>
0

>  <SCORE.SYSTEM.norm>
0

>  <SCORE.heavy>
35

>  <SCORE.norm>
-0.184593

>  <RMSD>
8.986

$$$$
2f4t_lig
 OpenBabel11021811433D
libRbt.so/2013.1/901 2013/11/27
 35 36  0  0  0  0  0  0  0  0999 V2000
    1.9570  -13.6308   29.2668 C   0  0  2  0  0  0  0  0  0  0  0  0
    2.5292  -12.6397   30.1820 O   0  0  0  0  0  0  0  0  0  0  0  0
    4.5487   -8.8370   29.8384 C   0  0  2  0  0  0  0  0  0  0  0  0
    5.5340   -7.8275   29.4227 N   0  0  0  0  0  0  0  0  0  0  0  0
    0.9126  -14.4299   30.1036 C   0  0  2  0  0  0  0  0  0  0  0  0
   -0.0674  -13.5395   30.6800 N   0  0  0  0  0  0  0  0  0  0  0  0
    5.3028  -10.1002   30.3943 C   0  0  0  0  0  0  0  0  0  0  0  0
    4.7763   -6.2323   29.4103 C   0  0  0  0  0  0  0  0  0  0  0  0
    6.1274   -5.7122   28.9721 C   0  0  1  0  0  0  0  0  0  0  0  0
    5.9310   -4.9795   27.6430 C   0  0  0  0  0  0  0  0  0  0  0  0
    7.2118   -4.4394   26.9850 C   0  0  0  0  0  0  0  0  0  0  0  0
    6.8298   -3.6328   25.8220 N   0  0  0  0  0  0  0  0  0  0  0  0
    6.6113   -4.7510   29.8732 O   0  0  0  0  0  0  0  0  0  0  0  0
    2.2573   -7.3655   27.2000 C   0  0  0  0  0  0  0  0  0  0  0  0
    3.1564   -7.0030   26.0279 C   0  0  0  0  0  0  0  0  0  0  0  0
    1.6360  -15.2531   31.2224 C   0  0  1  0  0  0  0  0  0  0  0  0
    2.4938   -6.1513   25.0159 N   0  0  0  0  0  0  0  0  0  0  0  0
    0.7053  -15.9901   31.9912 O   0  0  0  0  0  0  0  0  0  0  0  0
    4.3278  -11.2000   30.8373 C   0  0  2  0  0  0  0  0  0  0  0  0
    5.0510  -12.3760   31.3106 N   0  0  0  0  0  0  0  0  0  0  0  0
    0.7503   -4.6438   25.9746 C   0  0  0  0  0  0  0  0  0  0  0  0
    0.3294   -3.1918   26.3703 N   0  0  0  0  0  0  0  0  0  0  0  0
    2.1667   -4.7322   25.3332 C   0  0  0  0  0  0  0  0  0  0  0  0
    3.7972   -5.8662   29.6262 O   0  0  0  0  0  0  0  0  0  0  0  0
    2.6436  -16.1892   30.5471 C   0  0  2  0  0  0  0  0  0  0  0  0
    3.3281  -16.9769   31.5078 O   0  0  0  0  0  0  0  0  0  0  0  0
    3.4309  -11.6007   29.6927 C   0  0  2  0  0  0  0  0  0  0  0  0
    3.6570  -15.3602   29.7065 C   0  0  2  0  0  0  0  0  0  0  0  0
    2.9782  -14.5543   28.7209 O   0  0  0  0  0  0  0  0  0  0  0  0
    2.6418  -10.3345   29.1459 C   0  0  2  0  0  0  0  0  0  0  0  0
    1.7821  -10.7602   28.0465 O   0  0  0  0  0  0  0  0  0  0  0  0
    4.6371  -16.2258   29.0085 C   0  0  0  0  0  0  0  0  0  0  0  0
    4.1884  -16.5011   27.7641 N   0  0  0  0  0  0  0  0  0  0  0  0
    3.6781   -9.2682   28.6479 C   0  0  1  0  0  0  0  0  0  0  0  0
    3.0164   -8.1558   28.1357 O   0  0  0  0  0  0  0  0  0  0  0  0
  1  2  1  1  0  0  0
  1  5  1  0  0  0  0
  1 29  1  0  0  0  0
  3  4  1  6  0  0  0
  3  7  1  0  0  0  0
  3 34  1  0  0  0  0
  5  6  1  1  0  0  0
  5 16  1  0  0  0  0
  7 19  1  0  0  0  0
  8  4  1  0  0  0  0
  8 24  2  0  0  0  0
  9  8  1  1  0  0  0
  9 10  1  0  0  0  0
  9 13  1  0  0  0  0
 10 11  1  0  0  0  0
 11 12  1  0  0  0  0
 14 15  1  0  0  0  0
 14 35  1  0  0  0  0
 15 17  1  0  0  0  0
 16 18  1  6  0  0  0
 16 25  1  0  0  0  0
 19 20  1  6  0  0  0
 19 27  1  0  0  0  0
 21 22  1  0  0  0  0
 21 23  1  0  0  0  0
 23 17  1  0  0  0  0
 25 26  1  1  0  0  0
 25 28  1  0  0  0  0
 27  2  1  1  0  0  0
 27 30  1  0  0  0  0
 28 29  1  0  0  0  0
 28 32  1  6  0  0  0
 30 31  1  6  0  0  0
 30 34  1  0  0  0  0
 32 33  2  0  0  0  0
 34 35  1  1  0  0  0
M  END
>  <CHROM.1>
-172.35711845,-157.74566306,122.78404392,-176.69221077,-173.13869792,-178.21728559
-72.96822192,70.33677485,178.81355536,-89.10700850,-153.28165952,93.16063315
165.58162354,3.43865346,-10.01000480,28.87430856,1.73196762,0.38669391,2.78440337

>  <Name>
2f4t_lig

>  <RI>
0

>  <Rbt.Current_Directory>
/home/itssahil/PROJECTS/Mol_Feturizer/New_Systems/rnas/2f4t

>  <Rbt.Executable>
rbdock ($Id: //depot/dev/client3/rdock/2013.1/src/exe/rbdock.cxx#4 $)

>  <Rbt.Library>
libRbt.so (2013.1, Build901 2013/11/27)

>  <Rbt.Parameter_File>
/export/apps/rDock/src/rDock_2013.1_src/data/scripts/dock_solv.prm

>  <Rbt.Receptor>
prm/pocket_docking_5.prm

>  <SCORE>
-17.046

>  <SCORE.INTER>
-9.74537

>  <SCORE.INTER.CONST>
1

>  <SCORE.INTER.POLAR>
-1.46838

>  <SCORE.INTER.ROT>
13

>  <SCORE.INTER.SOLV>
18.2904

>  <SCORE.INTER.VDW>
-19.9658

>  <SCORE.INTER.norm>
-0.278439

>  <SCORE.INTRA>
-7.30061

>  <SCORE.INTRA.DIHEDRAL>
-13.841

>  <SCORE.INTRA.DIHEDRAL.0>
23.8882

>  <SCORE.INTRA.POLAR>
0

>  <SCORE.INTRA.POLAR.0>
0

>  <SCORE.INTRA.REPUL>
0

>  <SCORE.INTRA.REPUL.0>
0

>  <SCORE.INTRA.SOLV>
0.0916136

>  <SCORE.INTRA.SOLV.lig_0>
-97.6888

>  <SCORE.INTRA.VDW>
-0.425924

>  <SCORE.INTRA.VDW.0>
-3.9206

>  <SCORE.INTRA.norm>
-0.208589

>  <SCORE.RESTR>
0

>  <SCORE.RESTR.CAVITY>
0

>  <SCORE.RESTR.norm>
0

>  <SCORE.SYSTEM>
0

>  <SCORE.SYSTEM.CONST>
0

>  <SCORE.SYSTEM.DIHEDRAL>
0

>  <SCORE.SYSTEM.SOLV>
0

>  <SCORE.SYSTEM.norm>
0

>  <SCORE.heavy>
35

>  <SCORE.norm>
-0.487028

>  <RMSD>
8.993

$$$$
2f4t_lig
 OpenBabel11021811433D
libRbt.so/2013.1/901 2013/11/27
 35 36  0  0  0  0  0  0  0  0999 V2000
    4.5345  -12.3981   32.7672 C   0  0  2  0  0  0  0  0  0  0  0  0
    3.4939  -12.0110   31.8109 O   0  0  0  0  0  0  0  0  0  0  0  0
    2.3786   -8.0049   30.6429 C   0  0  2  0  0  0  0  0  0  0  0  0
    1.6791   -6.7113   30.6351 N   0  0  0  0  0  0  0  0  0  0  0  0
    4.6531  -13.9488   32.6626 C   0  0  2  0  0  0  0  0  0  0  0  0
    4.9371  -14.3478   31.3041 N   0  0  0  0  0  0  0  0  0  0  0  0
    1.3196   -9.1676   30.6385 C   0  0  0  0  0  0  0  0  0  0  0  0
    1.2089   -6.3038   28.9824 C   0  0  0  0  0  0  0  0  0  0  0  0
    0.6094   -5.0486   29.5766 C   0  0  1  0  0  0  0  0  0  0  0  0
    0.0287   -4.2246   28.4251 C   0  0  0  0  0  0  0  0  0  0  0  0
    1.0577   -3.6076   27.4630 C   0  0  0  0  0  0  0  0  0  0  0  0
    1.8497   -2.6207   28.2032 N   0  0  0  0  0  0  0  0  0  0  0  0
   -0.4747   -5.3576   30.4130 O   0  0  0  0  0  0  0  0  0  0  0  0
    5.2591   -6.2645   31.4614 C   0  0  0  0  0  0  0  0  0  0  0  0
    5.6408   -5.3067   32.5796 C   0  0  0  0  0  0  0  0  0  0  0  0
    3.3356  -14.6247   33.1723 C   0  0  1  0  0  0  0  0  0  0  0  0
    6.7163   -4.3617   32.2072 N   0  0  0  0  0  0  0  0  0  0  0  0
    3.4244  -16.0338   33.0902 O   0  0  0  0  0  0  0  0  0  0  0  0
    1.9871  -10.5498   30.6571 C   0  0  2  0  0  0  0  0  0  0  0  0
    0.9851  -11.6104   30.6938 N   0  0  0  0  0  0  0  0  0  0  0  0
    9.0091   -3.7033   31.4718 C   0  0  0  0  0  0  0  0  0  0  0  0
   10.4421   -4.1670   31.0555 N   0  0  0  0  0  0  0  0  0  0  0  0
    8.1069   -4.8569   32.0013 C   0  0  0  0  0  0  0  0  0  0  0  0
    1.3257   -6.7758   28.0322 O   0  0  0  0  0  0  0  0  0  0  0  0
    3.1025  -14.1795   34.6198 C   0  0  2  0  0  0  0  0  0  0  0  0
    1.9258  -14.7684   35.1492 O   0  0  0  0  0  0  0  0  0  0  0  0
    2.8895  -10.6827   31.8583 C   0  0  2  0  0  0  0  0  0  0  0  0
    3.0087  -12.6279   34.6889 C   0  0  2  0  0  0  0  0  0  0  0  0
    4.1996  -12.0110   34.1569 O   0  0  0  0  0  0  0  0  0  0  0  0
    3.9822   -9.5291   31.8528 C   0  0  2  0  0  0  0  0  0  0  0  0
    4.8385   -9.6927   33.0228 O   0  0  0  0  0  0  0  0  0  0  0  0
    2.8121  -12.1458   36.0766 C   0  0  0  0  0  0  0  0  0  0  0  0
    2.8644  -10.7958   36.0958 N   0  0  0  0  0  0  0  0  0  0  0  0
    3.2536   -8.1412   31.8987 C   0  0  1  0  0  0  0  0  0  0  0  0
    4.1862   -7.1081   31.9234 O   0  0  0  0  0  0  0  0  0  0  0  0
  1  2  1  6  0  0  0
  1  5  1  0  0  0  0
  1 29  1  0  0  0  0
  3  4  1  1  0  0  0
  3  7  1  0  0  0  0
  3 34  1  0  0  0  0
  5  6  1  6  0  0  0
  5 16  1  0  0  0  0
  7 19  1  0  0  0  0
  8  4  1  0  0  0  0
  8 24  2  0  0  0  0
  9  8  1  6  0  0  0
  9 10  1  0  0  0  0
  9 13  1  0  0  0  0
 10 11  1  0  0  0  0
 11 12  1  0  0  0  0
 14 15  1  0  0  0  0
 14 35  1  0  0  0  0
 15 17  1  0  0  0  0
 16 18  1  1  0  0  0
 16 25  1  0  0  0  0
 19 20  1  1  0  0  0
 19 27  1  0  0  0  0
 21 22  1  0  0  0  0
 21 23  1  0  0  0  0
 23 17  1  0  0  0  0
 25 26  1  6  0  0  0
 25 28  1  0  0  0  0
 27  2  1  6  0  0  0
 27 30  1  0  0  0  0
 28 29  1  0  0  0  0
 28 32  1  1  0  0  0
 30 31  1  1  0  0  0
 30 34  1  0  0  0  0
 32 33  2  0  0  0  0
 34 35  1  6  0  0  0
M  END
>  <CHROM.1>
165.27522499,-82.13763744,178.52925371,-68.96030352,-65.17752243,-178.51711169
-174.05722709,-69.57603904,-172.77070071,173.95876348,173.47915413,174.24674041
-56.15824292,3.44503788,-8.97227704,31.75758241,-1.60580435,-0.39221060,-0.40876627

>  <Name>
2f4t_lig

>  <RI>
0

>  <Rbt.Current_Directory>
/home/itssahil/PROJECTS/Mol_Feturizer/New_Systems/rnas/2f4t

>  <Rbt.Executable>
rbdock ($Id: //depot/dev/client3/rdock/2013.1/src/exe/rbdock.cxx#4 $)

>  <Rbt.Library>
libRbt.so (2013.1, Build901 2013/11/27)

>  <Rbt.Parameter_File>
/export/apps/rDock/src/rDock_2013.1_src/data/scripts/dock_solv.prm

>  <Rbt.Receptor>
prm/pocket_docking_6.prm

>  <SCORE>
-9.99039

>  <SCORE.INTER>
-1.92761

>  <SCORE.INTER.CONST>
1

>  <SCORE.INTER.POLAR>
-2.05575

>  <SCORE.INTER.ROT>
13

>  <SCORE.INTER.SOLV>
8.38318

>  <SCORE.INTER.VDW>
-9.49365

>  <SCORE.INTER.norm>
-0.0550746

>  <SCORE.INTRA>
-8.06278

>  <SCORE.INTRA.DIHEDRAL>
-18.7298

>  <SCORE.INTRA.DIHEDRAL.0>
23.8882

>  <SCORE.INTRA.POLAR>
0

>  <SCORE.INTRA.POLAR.0>
0

>  <SCORE.INTRA.REPUL>
0

>  <SCORE.INTRA.REPUL.0>
0

>  <SCORE.INTRA.SOLV>
-0.258137

>  <SCORE.INTRA.SOLV.lig_0>
-97.6888

>  <SCORE.INTRA.VDW>
1.43119

>  <SCORE.INTRA.VDW.0>
-3.9206

>  <SCORE.INTRA.norm>
-0.230365

>  <SCORE.RESTR>
0

>  <SCORE.RESTR.CAVITY>
0

>  <SCORE.RESTR.norm>
0

>  <SCORE.SYSTEM>
0

>  <SCORE.SYSTEM.CONST>
0

>  <SCORE.SYSTEM.DIHEDRAL>
0

>  <SCORE.SYSTEM.SOLV>
0

>  <SCORE.SYSTEM.norm>
0

>  <SCORE.heavy>
35

>  <SCORE.norm>
-0.28544

>  <RMSD>
8.994

$$$$
2f4t_lig
 OpenBabel11021811433D
libRbt.so/2013.1/901 2013/11/27
 35 36  0  0  0  0  0  0  0  0999 V2000
    7.4977   -4.0914   29.5147 C   0  0  2  0  0  0  0  0  0  0  0  0
    7.8764   -4.3097   28.1161 O   0  0  0  0  0  0  0  0  0  0  0  0
    4.0472   -4.9723   26.2306 C   0  0  2  0  0  0  0  0  0  0  0  0
    3.0519   -5.2722   25.1904 N   0  0  0  0  0  0  0  0  0  0  0  0
    8.6642   -3.2751   30.1491 C   0  0  2  0  0  0  0  0  0  0  0  0
    8.8909   -2.0537   29.4128 N   0  0  0  0  0  0  0  0  0  0  0  0
    5.0120   -3.8421   25.7154 C   0  0  0  0  0  0  0  0  0  0  0  0
    1.5663   -4.3753   25.5180 C   0  0  0  0  0  0  0  0  0  0  0  0
    1.0266   -5.0201   24.2606 C   0  0  1  0  0  0  0  0  0  0  0  0
    0.5322   -6.4192   24.6350 C   0  0  0  0  0  0  0  0  0  0  0  0
    0.1482   -7.3275   23.4549 C   0  0  0  0  0  0  0  0  0  0  0  0
   -0.3231   -8.6080   23.9908 N   0  0  0  0  0  0  0  0  0  0  0  0
   -0.0989   -4.3289   23.7856 O   0  0  0  0  0  0  0  0  0  0  0  0
    2.9465   -8.1745   26.9689 C   0  0  0  0  0  0  0  0  0  0  0  0
    3.0260   -9.0549   28.2067 C   0  0  0  0  0  0  0  0  0  0  0  0
    9.9669   -4.1431   30.1926 C   0  0  1  0  0  0  0  0  0  0  0  0
    2.7958  -10.4894   27.9276 N   0  0  0  0  0  0  0  0  0  0  0  0
   11.0376   -3.4216   30.7699 O   0  0  0  0  0  0  0  0  0  0  0  0
    6.0854   -3.4885   26.7542 C   0  0  2  0  0  0  0  0  0  0  0  0
    6.9919   -2.4677   26.2380 N   0  0  0  0  0  0  0  0  0  0  0  0
    1.8956  -12.7582   28.4511 C   0  0  0  0  0  0  0  0  0  0  0  0
    3.0785  -13.3537   29.2806 N   0  0  0  0  0  0  0  0  0  0  0  0
    1.7103  -11.2232   28.6380 C   0  0  0  0  0  0  0  0  0  0  0  0
    1.2532   -3.6972   26.2805 O   0  0  0  0  0  0  0  0  0  0  0  0
    9.6674   -5.4091   31.0021 C   0  0  2  0  0  0  0  0  0  0  0  0
   10.8147   -6.2382   31.0916 O   0  0  0  0  0  0  0  0  0  0  0  0
    6.8830   -4.7137   27.1252 C   0  0  2  0  0  0  0  0  0  0  0  0
    8.4873   -6.1875   30.3521 C   0  0  2  0  0  0  0  0  0  0  0  0
    7.3094   -5.3600   30.2555 O   0  0  0  0  0  0  0  0  0  0  0  0
    5.9179   -5.8494   27.6762 C   0  0  2  0  0  0  0  0  0  0  0  0
    6.7228   -7.0139   28.0298 O   0  0  0  0  0  0  0  0  0  0  0  0
    8.1400   -7.4082   31.1176 C   0  0  0  0  0  0  0  0  0  0  0  0
    8.3973   -8.5002   30.3645 N   0  0  0  0  0  0  0  0  0  0  0  0
    4.8821   -6.2200   26.5586 C   0  0  1  0  0  0  0  0  0  0  0  0
    4.0380   -7.2345   27.0013 O   0  0  0  0  0  0  0  0  0  0  0  0
  1  2  1  6  0  0  0
  1  5  1  0  0  0  0
  1 29  1  0  0  0  0
  3  4  1  6  0  0  0
  3  7  1  0  0  0  0
  3 34  1  0  0  0  0
  5  6  1  6  0  0  0
  5 16  1  0  0  0  0
  7 19  1  0  0  0  0
  8  4  1  0  0  0  0
  8 24  2  0  0  0  0
  9  8  1  1  0  0  0
  9 10  1  0  0  0  0
  9 13  1  0  0  0  0
 10 11  1  0  0  0  0
 11 12  1  0  0  0  0
 14 15  1  0  0  0  0
 14 35  1  0  0  0  0
 15 17  1  0  0  0  0
 16 18  1  1  0  0  0
 16 25  1  0  0  0  0
 19 20  1  6  0  0  0
 19 27  1  0  0  0  0
 21 22  1  0  0  0  0
 21 23  1  0  0  0  0
 23 17  1  0  0  0  0
 25 26  1  6  0  0  0
 25 28  1  0  0  0  0
 27  2  1  1  0  0  0
 27 30  1  0  0  0  0
 28 29  1  0  0  0  0
 28 32  1  1  0  0  0
 30 31  1  6  0  0  0
 30 34  1  0  0  0  0
 32 33  2  0  0  0  0
 34 35  1  1  0  0  0
M  END
>  <CHROM.1>
-163.13055427,-96.54692722,82.39730005,-170.69250899,-178.94274551,-136.20443063
174.86240175,-123.21885466,73.25941939,-165.84107578,77.45007084,-114.89697622
56.80040043,5.14716854,-6.18314130,27.72803024,0.10263411,-0.58140768,-0.41755922

>  <Name>
2f4t_lig

>  <RI>
0

>  <Rbt.Current_Directory>
/home/itssahil/PROJECTS/Mol_Feturizer/New_Systems/rnas/2f4t

>  <Rbt.Executable>
rbdock ($Id: //depot/dev/client3/rdock/2013.1/src/exe/rbdock.cxx#4 $)

>  <Rbt.Library>
libRbt.so (2013.1, Build901 2013/11/27)

>  <Rbt.Parameter_File>
/export/apps/rDock/src/rDock_2013.1_src/data/scripts/dock_solv.prm

>  <Rbt.Receptor>
prm/pocket_docking_6.prm

>  <SCORE>
-16.5477

>  <SCORE.INTER>
-11.2483

>  <SCORE.INTER.CONST>
1

>  <SCORE.INTER.POLAR>
-0.848885

>  <SCORE.INTER.ROT>
13

>  <SCORE.INTER.SOLV>
17.8656

>  <SCORE.INTER.VDW>
-22.8911

>  <SCORE.INTER.norm>
-0.32138

>  <SCORE.INTRA>
-5.29936

>  <SCORE.INTRA.DIHEDRAL>
-11.2088

>  <SCORE.INTRA.DIHEDRAL.0>
23.8882

>  <SCORE.INTRA.POLAR>
0

>  <SCORE.INTRA.POLAR.0>
0

>  <SCORE.INTRA.REPUL>
0

>  <SCORE.INTRA.REPUL.0>
0

>  <SCORE.INTRA.SOLV>
1.43137

>  <SCORE.INTRA.SOLV.lig_0>
-97.6888

>  <SCORE.INTRA.VDW>
-0.410667

>  <SCORE.INTRA.VDW.0>
-3.9206

>  <SCORE.INTRA.norm>
-0.15141

>  <SCORE.RESTR>
0

>  <SCORE.RESTR.CAVITY>
0

>  <SCORE.RESTR.norm>
0

>  <SCORE.SYSTEM>
0

>  <SCORE.SYSTEM.CONST>
0

>  <SCORE.SYSTEM.DIHEDRAL>
0

>  <SCORE.SYSTEM.SOLV>
0

>  <SCORE.SYSTEM.norm>
0

>  <SCORE.heavy>
35

>  <SCORE.norm>
-0.47279

>  <RMSD>
8.997

$$$$
2f4t_lig
 OpenBabel11021811433D
libRbt.so/2013.1/901 2013/11/27
 35 36  0  0  0  0  0  0  0  0999 V2000
    3.6166  -11.4708   32.3502 C   0  0  2  0  0  0  0  0  0  0  0  0
    3.0952  -10.1197   32.5736 O   0  0  0  0  0  0  0  0  0  0  0  0
    4.8650   -6.2734   31.7186 C   0  0  2  0  0  0  0  0  0  0  0  0
    5.6971   -5.0702   31.8694 N   0  0  0  0  0  0  0  0  0  0  0  0
    2.3741  -12.3616   32.0466 C   0  0  2  0  0  0  0  0  0  0  0  0
    1.6307  -11.8347   30.9263 N   0  0  0  0  0  0  0  0  0  0  0  0
    4.0416   -6.5037   33.0386 C   0  0  0  0  0  0  0  0  0  0  0  0
    6.8113   -5.2882   33.2221 C   0  0  0  0  0  0  0  0  0  0  0  0
    7.3189   -3.9029   32.8878 C   0  0  1  0  0  0  0  0  0  0  0  0
    7.3932   -3.1106   34.1949 C   0  0  0  0  0  0  0  0  0  0  0  0
    6.0411   -2.7517   34.8337 C   0  0  0  0  0  0  0  0  0  0  0  0
    5.3056   -1.8878   33.9053 N   0  0  0  0  0  0  0  0  0  0  0  0
    8.6320   -3.9552   32.3947 O   0  0  0  0  0  0  0  0  0  0  0  0
    6.7507   -7.0945   28.9051 C   0  0  0  0  0  0  0  0  0  0  0  0
    8.2561   -7.0294   28.6979 C   0  0  0  0  0  0  0  0  0  0  0  0
    1.4620  -12.4631   33.3156 C   0  0  1  0  0  0  0  0  0  0  0  0
    8.6475   -6.5826   27.3430 N   0  0  0  0  0  0  0  0  0  0  0  0
    0.3298  -13.2721   33.0624 O   0  0  0  0  0  0  0  0  0  0  0  0
    3.1569   -7.7551   32.9503 C   0  0  2  0  0  0  0  0  0  0  0  0
    2.4345   -7.9701   34.2002 N   0  0  0  0  0  0  0  0  0  0  0  0
   10.1266   -5.4623   25.6731 C   0  0  0  0  0  0  0  0  0  0  0  0
    9.2737   -4.1609   25.5293 N   0  0  0  0  0  0  0  0  0  0  0  0
   10.0390   -6.1156   27.0841 C   0  0  0  0  0  0  0  0  0  0  0  0
    6.9944   -6.0718   33.9231 O   0  0  0  0  0  0  0  0  0  0  0  0
    2.3004  -13.0459   34.4579 C   0  0  2  0  0  0  0  0  0  0  0  0
    1.5273  -13.1768   35.6399 O   0  0  0  0  0  0  0  0  0  0  0  0
    3.9953   -8.9724   32.6500 C   0  0  2  0  0  0  0  0  0  0  0  0
    3.5402  -12.1430   34.7200 C   0  0  2  0  0  0  0  0  0  0  0  0
    4.3409  -12.0008   33.5283 O   0  0  0  0  0  0  0  0  0  0  0  0
    4.8066   -8.7594   31.3005 C   0  0  2  0  0  0  0  0  0  0  0  0
    5.5994   -9.9562   31.0395 O   0  0  0  0  0  0  0  0  0  0  0  0
    4.4003  -12.6823   35.8000 C   0  0  0  0  0  0  0  0  0  0  0  0
    5.0733  -13.7612   35.3429 N   0  0  0  0  0  0  0  0  0  0  0  0
    5.7405   -7.5101   31.4629 C   0  0  1  0  0  0  0  0  0  0  0  0
    6.4873   -7.3130   30.3048 O   0  0  0  0  0  0  0  0  0  0  0  0
  1  2  1  1  0  0  0
  1  5  1  0  0  0  0
  1 29  1  0  0  0  0
  3  4  1  1  0  0  0
  3  7  1  0  0  0  0
  3 34  1  0  0  0  0
  5  6  1  6  0  0  0
  5 16  1  0  0  0  0
  7 19  1  0  0  0  0
  8  4  1  0  0  0  0
  8 24  2  0  0  0  0
  9  8  1  1  0  0  0
  9 10  1  0  0  0  0
  9 13  1  0  0  0  0
 10 11  1  0  0  0  0
 11 12  1  0  0  0  0
 14 15  1  0  0  0  0
 14 35  1  0  0  0  0
 15 17  1  0  0  0  0
 16 18  1  6  0  0  0
 16 25  1  0  0  0  0
 19 20  1  1  0  0  0
 19 27  1  0  0  0  0
 21 22  1  0  0  0  0
 21 23  1  0  0  0  0
 23 17  1  0  0  0  0
 25 26  1  1  0  0  0
 25 28  1  0  0  0  0
 27  2  1  6  0  0  0
 27 30  1  0  0  0  0
 28 29  1  0  0  0  0
 28 32  1  1  0  0  0
 30 31  1  1  0  0  0
 30 34  1  0  0  0  0
 32 33  2  0  0  0  0
 34 35  1  6  0  0  0
M  END
>  <CHROM.1>
-168.97941703,60.28283662,132.48303258,-69.31197057,-62.35837223,-170.25813143
-179.52324345,163.56012852,64.54154559,-169.67119025,-177.32688887,73.52780468
-62.52738649,5.20826561,-8.23814340,32.07962763,-2.84651264,0.96832942,0.72266430

>  <Name>
2f4t_lig

>  <RI>
0

>  <Rbt.Current_Directory>
/home/itssahil/PROJECTS/Mol_Feturizer/New_Systems/rnas/2f4t

>  <Rbt.Executable>
rbdock ($Id: //depot/dev/client3/rdock/2013.1/src/exe/rbdock.cxx#4 $)

>  <Rbt.Library>
libRbt.so (2013.1, Build901 2013/11/27)

>  <Rbt.Parameter_File>
/export/apps/rDock/src/rDock_2013.1_src/data/scripts/dock_solv.prm

>  <Rbt.Receptor>
prm/pocket_docking_8.prm

>  <SCORE>
-10.6039

>  <SCORE.INTER>
-2.55671

>  <SCORE.INTER.CONST>
1

>  <SCORE.INTER.POLAR>
-1.26451

>  <SCORE.INTER.ROT>
13

>  <SCORE.INTER.SOLV>
6.24509

>  <SCORE.INTER.VDW>
-11.8378

>  <SCORE.INTER.norm>
-0.073049

>  <SCORE.INTRA>
-8.04715

>  <SCORE.INTRA.DIHEDRAL>
-18.1205

>  <SCORE.INTRA.DIHEDRAL.0>
23.8882

>  <SCORE.INTRA.POLAR>
0

>  <SCORE.INTRA.POLAR.0>
0

>  <SCORE.INTRA.REPUL>
0

>  <SCORE.INTRA.REPUL.0>
0

>  <SCORE.INTRA.SOLV>
1.8801

>  <SCORE.INTRA.SOLV.lig_0>
-97.6888

>  <SCORE.INTRA.VDW>
0.0730433

>  <SCORE.INTRA.VDW.0>
-3.9206

>  <SCORE.INTRA.norm>
-0.229919

>  <SCORE.RESTR>
0

>  <SCORE.RESTR.CAVITY>
0

>  <SCORE.RESTR.norm>
0

>  <SCORE.SYSTEM>
0

>  <SCORE.SYSTEM.CONST>
0

>  <SCORE.SYSTEM.DIHEDRAL>
0

>  <SCORE.SYSTEM.SOLV>
0

>  <SCORE.SYSTEM.norm>
0

>  <SCORE.heavy>
35

>  <SCORE.norm>
-0.302968

>  <RMSD>
8.998

$$$$
2f4t_lig
 OpenBabel11021811433D
libRbt.so/2013.1/901 2013/11/27
 35 36  0  0  0  0  0  0  0  0999 V2000
    7.6114   -4.5784   28.3898 C   0  0  2  0  0  0  0  0  0  0  0  0
    6.6209   -5.6343   28.6158 O   0  0  0  0  0  0  0  0  0  0  0  0
    2.4823   -5.9506   27.4201 C   0  0  2  0  0  0  0  0  0  0  0  0
    1.2870   -5.9510   26.5635 N   0  0  0  0  0  0  0  0  0  0  0  0
    8.6553   -5.1789   27.4002 C   0  0  2  0  0  0  0  0  0  0  0  0
    8.0088   -5.6352   26.1922 N   0  0  0  0  0  0  0  0  0  0  0  0
    3.2864   -4.6189   27.1883 C   0  0  0  0  0  0  0  0  0  0  0  0
    1.7751   -5.8723   24.8681 C   0  0  0  0  0  0  0  0  0  0  0  0
    0.2964   -5.9117   24.5518 C   0  0  1  0  0  0  0  0  0  0  0  0
    0.0751   -5.0944   23.2770 C   0  0  0  0  0  0  0  0  0  0  0  0
   -1.3929   -4.8376   22.8973 C   0  0  0  0  0  0  0  0  0  0  0  0
   -1.4264   -4.2309   21.5632 N   0  0  0  0  0  0  0  0  0  0  0  0
   -0.1170   -7.2181   24.2475 O   0  0  0  0  0  0  0  0  0  0  0  0
    1.9902   -9.3696   27.9745 C   0  0  0  0  0  0  0  0  0  0  0  0
    0.8719   -8.7394   28.7904 C   0  0  0  0  0  0  0  0  0  0  0  0
    9.4342   -6.3516   28.0861 C   0  0  1  0  0  0  0  0  0  0  0  0
    0.0696   -9.7219   29.5518 N   0  0  0  0  0  0  0  0  0  0  0  0
   10.3909   -6.9079   27.2055 O   0  0  0  0  0  0  0  0  0  0  0  0
    4.5566   -4.5602   28.0484 C   0  0  2  0  0  0  0  0  0  0  0  0
    5.3058   -3.3355   27.7860 N   0  0  0  0  0  0  0  0  0  0  0  0
   -0.5045   -9.0031   31.8725 C   0  0  0  0  0  0  0  0  0  0  0  0
    0.6368   -7.9378   31.9394 N   0  0  0  0  0  0  0  0  0  0  0  0
   -1.0397   -9.2576   30.4323 C   0  0  0  0  0  0  0  0  0  0  0  0
    2.7122   -5.8217   24.3598 O   0  0  0  0  0  0  0  0  0  0  0  0
   10.1118   -5.7998   29.3447 C   0  0  2  0  0  0  0  0  0  0  0  0
   10.8485   -6.8127   30.0105 O   0  0  0  0  0  0  0  0  0  0  0  0
    5.4403   -5.7490   27.7642 C   0  0  2  0  0  0  0  0  0  0  0  0
    9.0436   -5.1922   30.2991 C   0  0  2  0  0  0  0  0  0  0  0  0
    8.2858   -4.1570   29.6392 O   0  0  0  0  0  0  0  0  0  0  0  0
    4.6439   -7.0988   28.0265 C   0  0  2  0  0  0  0  0  0  0  0  0
    5.5298   -8.2242   27.7478 O   0  0  0  0  0  0  0  0  0  0  0  0
    9.6549   -4.6178   31.5211 C   0  0  0  0  0  0  0  0  0  0  0  0
   10.5250   -3.6440   31.1740 N   0  0  0  0  0  0  0  0  0  0  0  0
    3.3933   -7.1407   27.0812 C   0  0  1  0  0  0  0  0  0  0  0  0
    2.6885   -8.3266   27.2671 O   0  0  0  0  0  0  0  0  0  0  0  0
  1  2  1  1  0  0  0
  1  5  1  0  0  0  0
  1 29  1  0  0  0  0
  3  4  1  6  0  0  0
  3  7  1  0  0  0  0
  3 34  1  0  0  0  0
  5  6  1  6  0  0  0
  5 16  1  0  0  0  0
  7 19  1  0  0  0  0
  8  4  1  0  0  0  0
  8 24  2  0  0  0  0
  9  8  1  6  0  0  0
  9 10  1  0  0  0  0
  9 13  1  0  0  0  0
 10 11  1  0  0  0  0
 11 12  1  0  0  0  0
 14 15  1  0  0  0  0
 14 35  1  0  0  0  0
 15 17  1  0  0  0  0
 16 18  1  6  0  0  0
 16 25  1  0  0  0  0
 19 20  1  6  0  0  0
 19 27  1  0  0  0  0
 21 22  1  0  0  0  0
 21 23  1  0  0  0  0
 23 17  1  0  0  0  0
 25 26  1  1  0  0  0
 25 28  1  0  0  0  0
 27  2  1  1  0  0  0
 27 30  1  0  0  0  0
 28 29  1  0  0  0  0
 28 32  1  1  0  0  0
 30 31  1  6  0  0  0
 30 34  1  0  0  0  0
 32 33  2  0  0  0  0
 34 35  1  1  0  0  0
M  END
>  <CHROM.1>
-90.05985155,61.02921961,147.80375288,-171.40785761,-171.40604312,179.29599593
54.44281908,178.22728826,59.00259421,-90.71307169,-68.66160857,59.58710126
-66.36965097,4.34797780,-6.27052213,27.67872110,-0.23790962,-0.29243552,-1.08968537

>  <Name>
2f4t_lig

>  <RI>
0

>  <Rbt.Current_Directory>
/home/itssahil/PROJECTS/Mol_Feturizer/New_Systems/rnas/2f4t

>  <Rbt.Executable>
rbdock ($Id: //depot/dev/client3/rdock/2013.1/src/exe/rbdock.cxx#4 $)

>  <Rbt.Library>
libRbt.so (2013.1, Build901 2013/11/27)

>  <Rbt.Parameter_File>
/export/apps/rDock/src/rDock_2013.1_src/data/scripts/dock_solv.prm

>  <Rbt.Receptor>
prm/pocket_docking_8.prm

>  <SCORE>
-14.4328

>  <SCORE.INTER>
-10.287

>  <SCORE.INTER.CONST>
1

>  <SCORE.INTER.POLAR>
-1.78066

>  <SCORE.INTER.ROT>
13

>  <SCORE.INTER.SOLV>
15.6595

>  <SCORE.INTER.VDW>
-18.409

>  <SCORE.INTER.norm>
-0.293914

>  <SCORE.INTRA>
-4.18236

>  <SCORE.INTRA.DIHEDRAL>
-14.8084

>  <SCORE.INTRA.DIHEDRAL.0>
23.8882

>  <SCORE.INTRA.POLAR>
0

>  <SCORE.INTRA.POLAR.0>
0

>  <SCORE.INTRA.REPUL>
0

>  <SCORE.INTRA.REPUL.0>
0

>  <SCORE.INTRA.SOLV>
4.80707

>  <SCORE.INTRA.SOLV.lig_0>
-97.6888

>  <SCORE.INTRA.VDW>
0.818288

>  <SCORE.INTRA.VDW.0>
-3.9206

>  <SCORE.INTRA.norm>
-0.119496

>  <SCORE.RESTR>
0.0365356

>  <SCORE.RESTR.CAVITY>
0.0365356

>  <SCORE.RESTR.norm>
0.00104388

>  <SCORE.SYSTEM>
0

>  <SCORE.SYSTEM.CONST>
0

>  <SCORE.SYSTEM.DIHEDRAL>
0

>  <SCORE.SYSTEM.SOLV>
0

>  <SCORE.SYSTEM.norm>
0

>  <SCORE.heavy>
35

>  <SCORE.norm>
-0.412366

>  <RMSD>
9.003

$$$$
2f4t_lig
 OpenBabel11021811433D
libRbt.so/2013.1/901 2013/11/27
 35 36  0  0  0  0  0  0  0  0999 V2000
    1.2305  -12.2804   30.6992 C   0  0  2  0  0  0  0  0  0  0  0  0
    2.1254  -11.3623   31.4089 O   0  0  0  0  0  0  0  0  0  0  0  0
    4.6238   -8.1790   29.8984 C   0  0  2  0  0  0  0  0  0  0  0  0
    5.7747   -7.4953   29.2895 N   0  0  0  0  0  0  0  0  0  0  0  0
    0.4214  -13.0251   31.8039 C   0  0  2  0  0  0  0  0  0  0  0  0
   -0.2694  -12.0825   32.6524 N   0  0  0  0  0  0  0  0  0  0  0  0
    5.1300   -9.1189   31.0533 C   0  0  0  0  0  0  0  0  0  0  0  0
    6.5329   -6.4376   30.4833 C   0  0  0  0  0  0  0  0  0  0  0  0
    7.5162   -6.0858   29.3890 C   0  0  1  0  0  0  0  0  0  0  0  0
    8.0469   -4.6802   29.6797 C   0  0  0  0  0  0  0  0  0  0  0  0
    7.0633   -3.5287   29.4121 C   0  0  0  0  0  0  0  0  0  0  0  0
    5.9773   -3.6102   30.3934 N   0  0  0  0  0  0  0  0  0  0  0  0
    8.6338   -6.9342   29.4270 O   0  0  0  0  0  0  0  0  0  0  0  0
    3.5319   -7.2882   26.7200 C   0  0  0  0  0  0  0  0  0  0  0  0
    2.1564   -7.1599   26.0836 C   0  0  0  0  0  0  0  0  0  0  0  0
    1.3763  -13.9328   32.6504 C   0  0  1  0  0  0  0  0  0  0  0  0
    2.1891   -6.6089   24.7110 N   0  0  0  0  0  0  0  0  0  0  0  0
    0.6602  -14.6220   33.6567 O   0  0  0  0  0  0  0  0  0  0  0  0
    3.9743   -9.8730   31.7257 C   0  0  2  0  0  0  0  0  0  0  0  0
    4.4726  -10.7680   32.7653 N   0  0  0  0  0  0  0  0  0  0  0  0
    0.6438   -6.0015   22.8471 C   0  0  0  0  0  0  0  0  0  0  0  0
   -0.2955   -6.4867   21.6963 N   0  0  0  0  0  0  0  0  0  0  0  0
    1.2858   -7.1624   23.6627 C   0  0  0  0  0  0  0  0  0  0  0  0
    6.3361   -6.1984   31.5047 O   0  0  0  0  0  0  0  0  0  0  0  0
    2.0604  -14.9200   31.6990 C   0  0  2  0  0  0  0  0  0  0  0  0
    2.9343  -15.7847   32.4064 O   0  0  0  0  0  0  0  0  0  0  0  0
    3.2083  -10.6793   30.7069 C   0  0  2  0  0  0  0  0  0  0  0  0
    2.8412  -14.1430   30.6001 C   0  0  2  0  0  0  0  0  0  0  0  0
    1.9669  -13.2598   29.8673 O   0  0  0  0  0  0  0  0  0  0  0  0
    2.6667   -9.7310   29.5526 C   0  0  2  0  0  0  0  0  0  0  0  0
    1.9278  -10.5425   28.5911 O   0  0  0  0  0  0  0  0  0  0  0  0
    3.4980  -15.0572   29.6358 C   0  0  0  0  0  0  0  0  0  0  0  0
    4.8207  -14.7854   29.5873 N   0  0  0  0  0  0  0  0  0  0  0  0
    3.8865   -9.0339   28.8559 C   0  0  1  0  0  0  0  0  0  0  0  0
    3.4463   -8.2160   27.8191 O   0  0  0  0  0  0  0  0  0  0  0  0
  1  2  1  1  0  0  0
  1  5  1  0  0  0  0
  1 29  1  0  0  0  0
  3  4  1  6  0  0  0
  3  7  1  0  0  0  0
  3 34  1  0  0  0  0
  5  6  1  1  0  0  0
  5 16  1  0  0  0  0
  7 19  1  0  0  0  0
  8  4  1  0  0  0  0
  8 24  2  0  0  0  0
  9  8  1  1  0  0  0
  9 10  1  0  0  0  0
  9 13  1  0  0  0  0
 10 11  1  0  0  0  0
 11 12  1  0  0  0  0
 14 15  1  0  0  0  0
 14 35  1  0  0  0  0
 15 17  1  0  0  0  0
 16 18  1  1  0  0  0
 16 25  1  0  0  0  0
 19 20  1  1  0  0  0
 19 27  1  0  0  0  0
 21 22  1  0  0  0  0
 21 23  1  0  0  0  0
 23 17  1  0  0  0  0
 25 26  1  1  0  0  0
 25 28  1  0  0  0  0
 27  2  1  1  0  0  0
 27 30  1  0  0  0  0
 28 29  1  0  0  0  0
 28 32  1  6  0  0  0
 30 31  1  6  0  0  0
 30 34  1  0  0  0  0
 32 33  2  0  0  0  0
 34 35  1  6  0  0  0
M  END
>  <CHROM.1>
168.48970507,-64.21248113,153.17699033,-73.34622231,68.21357969,-160.96961235
172.31006398,140.35213484,178.53844601,135.82559352,-177.20519662,-124.27139320
60.13498919,3.49439651,-9.63982165,29.51630945,1.94686174,0.73590876,2.37861561

>  <Name>
2f4t_lig

>  <RI>
0

>  <Rbt.Current_Directory>
/home/itssahil/PROJECTS/Mol_Feturizer/New_Systems/rnas/2f4t

>  <Rbt.Executable>
rbdock ($Id: //depot/dev/client3/rdock/2013.1/src/exe/rbdock.cxx#4 $)

>  <Rbt.Library>
libRbt.so (2013.1, Build901 2013/11/27)

>  <Rbt.Parameter_File>
/export/apps/rDock/src/rDock_2013.1_src/data/scripts/dock_solv.prm

>  <Rbt.Receptor>
prm/pocket_docking_5.prm

>  <SCORE>
-15.5385

>  <SCORE.INTER>
-8.20102

>  <SCORE.INTER.CONST>
1

>  <SCORE.INTER.POLAR>
-2.42061

>  <SCORE.INTER.ROT>
13

>  <SCORE.INTER.SOLV>
10.8189

>  <SCORE.INTER.VDW>
-13.2716

>  <SCORE.INTER.norm>
-0.234315

>  <SCORE.INTRA>
-7.3375

>  <SCORE.INTRA.DIHEDRAL>
-16.5717

>  <SCORE.INTRA.DIHEDRAL.0>
23.8882

>  <SCORE.INTRA.POLAR>
0

>  <SCORE.INTRA.POLAR.0>
0

>  <SCORE.INTRA.REPUL>
0

>  <SCORE.INTRA.REPUL.0>
0

>  <SCORE.INTRA.SOLV>
1.59042

>  <SCORE.INTRA.SOLV.lig_0>
-97.6888

>  <SCORE.INTRA.VDW>
0.153127

>  <SCORE.INTRA.VDW.0>
-3.9206

>  <SCORE.INTRA.norm>
-0.209643

>  <SCORE.RESTR>
0

>  <SCORE.RESTR.CAVITY>
0

>  <SCORE.RESTR.norm>
0

>  <SCORE.SYSTEM>
0

>  <SCORE.SYSTEM.CONST>
0

>  <SCORE.SYSTEM.DIHEDRAL>
0

>  <SCORE.SYSTEM.SOLV>
0

>  <SCORE.SYSTEM.norm>
0

>  <SCORE.heavy>
35

>  <SCORE.norm>
-0.443958

>  <RMSD>
9.026

$$$$
2f4t_lig
 OpenBabel11021811433D
libRbt.so/2013.1/901 2013/11/27
 35 36  0  0  0  0  0  0  0  0999 V2000
    1.6461  -13.2844   34.0608 C   0  0  2  0  0  0  0  0  0  0  0  0
    1.7236  -11.8846   34.4872 O   0  0  0  0  0  0  0  0  0  0  0  0
    2.0037   -9.8489   30.6879 C   0  0  2  0  0  0  0  0  0  0  0  0
    1.9386   -8.7722   29.6883 N   0  0  0  0  0  0  0  0  0  0  0  0
    1.7034  -14.1314   35.3681 C   0  0  2  0  0  0  0  0  0  0  0  0
    0.6482  -13.7423   36.2740 N   0  0  0  0  0  0  0  0  0  0  0  0
    0.6365   -9.9219   31.4618 C   0  0  0  0  0  0  0  0  0  0  0  0
    2.0025   -9.4674   28.0661 C   0  0  0  0  0  0  0  0  0  0  0  0
    1.8981   -8.0430   27.5679 C   0  0  1  0  0  0  0  0  0  0  0  0
    3.3053   -7.5866   27.1764 C   0  0  0  0  0  0  0  0  0  0  0  0
    3.4132   -6.1510   26.6355 C   0  0  0  0  0  0  0  0  0  0  0  0
    2.8088   -6.1128   25.3005 N   0  0  0  0  0  0  0  0  0  0  0  0
    1.1320   -7.9771   26.3936 O   0  0  0  0  0  0  0  0  0  0  0  0
    5.7651   -9.6035   30.8158 C   0  0  0  0  0  0  0  0  0  0  0  0
    6.4796   -9.0604   32.0439 C   0  0  0  0  0  0  0  0  0  0  0  0
    3.1036  -13.9726   36.0510 C   0  0  1  0  0  0  0  0  0  0  0  0
    6.5100   -7.5826   32.1048 N   0  0  0  0  0  0  0  0  0  0  0  0
    3.1782  -14.7379   37.2381 O   0  0  0  0  0  0  0  0  0  0  0  0
    0.6423  -11.0230   32.5314 C   0  0  2  0  0  0  0  0  0  0  0  0
   -0.6208  -11.0442   33.2624 N   0  0  0  0  0  0  0  0  0  0  0  0
    7.0064   -5.8580   33.8400 C   0  0  0  0  0  0  0  0  0  0  0  0
    6.1960   -4.7121   33.1531 N   0  0  0  0  0  0  0  0  0  0  0  0
    7.6063   -6.8882   32.8379 C   0  0  0  0  0  0  0  0  0  0  0  0
    2.0802  -10.4587   27.6784 O   0  0  0  0  0  0  0  0  0  0  0  0
    4.1740  -14.4193   35.0498 C   0  0  2  0  0  0  0  0  0  0  0  0
    5.4718  -14.3121   35.6119 O   0  0  0  0  0  0  0  0  0  0  0  0
    1.7722  -10.8042   33.5062 C   0  0  2  0  0  0  0  0  0  0  0  0
    4.0748  -13.5669   33.7518 C   0  0  2  0  0  0  0  0  0  0  0  0
    2.7611  -13.6663   33.1638 O   0  0  0  0  0  0  0  0  0  0  0  0
    3.1606  -10.7606   32.7346 C   0  0  2  0  0  0  0  0  0  0  0  0
    4.2282  -10.5541   33.7075 O   0  0  0  0  0  0  0  0  0  0  0  0
    5.0736  -13.9820   32.7385 C   0  0  0  0  0  0  0  0  0  0  0  0
    4.7357  -15.1929   32.2432 N   0  0  0  0  0  0  0  0  0  0  0  0
    3.1284   -9.5822   31.7004 C   0  0  1  0  0  0  0  0  0  0  0  0
    4.3435   -9.4994   31.0263 O   0  0  0  0  0  0  0  0  0  0  0  0
  1  2  1  1  0  0  0
  1  5  1  0  0  0  0
  1 29  1  0  0  0  0
  3  4  1  6  0  0  0
  3  7  1  0  0  0  0
  3 34  1  0  0  0  0
  5  6  1  1  0  0  0
  5 16  1  0  0  0  0
  7 19  1  0  0  0  0
  8  4  1  0  0  0  0
  8 24  2  0  0  0  0
  9  8  1  6  0  0  0
  9 10  1  0  0  0  0
  9 13  1  0  0  0  0
 10 11  1  0  0  0  0
 11 12  1  0  0  0  0
 14 15  1  0  0  0  0
 14 35  1  0  0  0  0
 15 17  1  0  0  0  0
 16 18  1  1  0  0  0
 16 25  1  0  0  0  0
 19 20  1  1  0  0  0
 19 27  1  0  0  0  0
 21 22  1  0  0  0  0
 21 23  1  0  0  0  0
 23 17  1  0  0  0  0
 25 26  1  1  0  0  0
 25 28  1  0  0  0  0
 27  2  1  1  0  0  0
 27 30  1  0  0  0  0
 28 29  1  0  0  0  0
 28 32  1  6  0  0  0
 30 31  1  1  0  0  0
 30 34  1  0  0  0  0
 32 33  2  0  0  0  0
 34 35  1  6  0  0  0
M  END
>  <CHROM.1>
176.53439139,-113.50496183,100.42936360,179.83122419,-71.24322256,-77.65572656
-43.57427594,-153.30122824,-62.80879211,-128.67831546,50.43701801,70.37022933
-150.60897070,3.32076410,-10.52532912,32.00421606,1.61212400,0.64813162,2.29957227

>  <Name>
2f4t_lig

>  <RI>
0

>  <Rbt.Current_Directory>
/home/itssahil/PROJECTS/Mol_Feturizer/New_Systems/rnas/2f4t

>  <Rbt.Executable>
rbdock ($Id: //depot/dev/client3/rdock/2013.1/src/exe/rbdock.cxx#4 $)

>  <Rbt.Library>
libRbt.so (2013.1, Build901 2013/11/27)

>  <Rbt.Parameter_File>
/export/apps/rDock/src/rDock_2013.1_src/data/scripts/dock_solv.prm

>  <Rbt.Receptor>
prm/pocket_docking_7.prm

>  <SCORE>
-11.6451

>  <SCORE.INTER>
-7.65386

>  <SCORE.INTER.CONST>
1

>  <SCORE.INTER.POLAR>
-2.10675

>  <SCORE.INTER.ROT>
13

>  <SCORE.INTER.SOLV>
10.0398

>  <SCORE.INTER.VDW>
-13.6933

>  <SCORE.INTER.norm>
-0.218682

>  <SCORE.INTRA>
-3.99125

>  <SCORE.INTRA.DIHEDRAL>
-10.3721

>  <SCORE.INTRA.DIHEDRAL.0>
23.8882

>  <SCORE.INTRA.POLAR>
0

>  <SCORE.INTRA.POLAR.0>
0

>  <SCORE.INTRA.REPUL>
0

>  <SCORE.INTRA.REPUL.0>
0

>  <SCORE.INTRA.SOLV>
3.15447

>  <SCORE.INTRA.SOLV.lig_0>
-97.6888

>  <SCORE.INTRA.VDW>
-0.382419

>  <SCORE.INTRA.VDW.0>
-3.9206

>  <SCORE.INTRA.norm>
-0.114036

>  <SCORE.RESTR>
0

>  <SCORE.RESTR.CAVITY>
0

>  <SCORE.RESTR.norm>
0

>  <SCORE.SYSTEM>
0

>  <SCORE.SYSTEM.CONST>
0

>  <SCORE.SYSTEM.DIHEDRAL>
0

>  <SCORE.SYSTEM.SOLV>
0

>  <SCORE.SYSTEM.norm>
0

>  <SCORE.heavy>
35

>  <SCORE.norm>
-0.332717

>  <RMSD>
9.037

$$$$
2f4t_lig
 OpenBabel11021811433D
libRbt.so/2013.1/901 2013/11/27
 35 36  0  0  0  0  0  0  0  0999 V2000
    4.1752  -13.1905   33.2335 C   0  0  2  0  0  0  0  0  0  0  0  0
    3.2661  -12.8822   32.1264 O   0  0  0  0  0  0  0  0  0  0  0  0
    3.4699   -9.5761   29.3540 C   0  0  2  0  0  0  0  0  0  0  0  0
    3.2643   -8.2371   28.7818 N   0  0  0  0  0  0  0  0  0  0  0  0
    3.5918  -14.4614   33.9220 C   0  0  2  0  0  0  0  0  0  0  0  0
    3.4521  -15.5381   32.9698 N   0  0  0  0  0  0  0  0  0  0  0  0
    2.0823  -10.1705   29.7956 C   0  0  0  0  0  0  0  0  0  0  0  0
    2.0191   -8.3137   27.5318 C   0  0  0  0  0  0  0  0  0  0  0  0
    2.2409   -6.8261   27.3705 C   0  0  1  0  0  0  0  0  0  0  0  0
    1.7152   -6.4281   25.9896 C   0  0  0  0  0  0  0  0  0  0  0  0
    1.9556   -4.9647   25.5821 C   0  0  0  0  0  0  0  0  0  0  0  0
    1.1764   -4.1018   26.4750 N   0  0  0  0  0  0  0  0  0  0  0  0
    1.4752   -6.1013   28.2971 O   0  0  0  0  0  0  0  0  0  0  0  0
    6.5536   -7.9828   29.7299 C   0  0  0  0  0  0  0  0  0  0  0  0
    6.2214   -7.6610   28.2809 C   0  0  0  0  0  0  0  0  0  0  0  0
    2.2127  -14.1288   34.5853 C   0  0  1  0  0  0  0  0  0  0  0  0
    7.2263   -6.7986   27.6214 N   0  0  0  0  0  0  0  0  0  0  0  0
    1.6678  -15.2689   35.2204 O   0  0  0  0  0  0  0  0  0  0  0  0
    2.2289  -11.5680   30.4135 C   0  0  2  0  0  0  0  0  0  0  0  0
    0.9346  -12.0808   30.8519 N   0  0  0  0  0  0  0  0  0  0  0  0
    8.7687   -5.2221   28.7908 C   0  0  0  0  0  0  0  0  0  0  0  0
    8.7257   -4.0955   27.7088 N   0  0  0  0  0  0  0  0  0  0  0  0
    8.5884   -6.6556   28.2095 C   0  0  0  0  0  0  0  0  0  0  0  0
    1.4169   -9.0933   27.1209 O   0  0  0  0  0  0  0  0  0  0  0  0
    2.4319  -12.9980   35.5957 C   0  0  2  0  0  0  0  0  0  0  0  0
    1.2185  -12.6545   36.2449 O   0  0  0  0  0  0  0  0  0  0  0  0
    3.1677  -11.5264   31.5932 C   0  0  2  0  0  0  0  0  0  0  0  0
    3.0321  -11.7546   34.8782 C   0  0  2  0  0  0  0  0  0  0  0  0
    4.2697  -12.0847   34.2141 O   0  0  0  0  0  0  0  0  0  0  0  0
    4.5822  -10.9559   31.1477 C   0  0  2  0  0  0  0  0  0  0  0  0
    5.4638  -10.9359   32.3103 O   0  0  0  0  0  0  0  0  0  0  0  0
    3.2900  -10.6411   35.8219 C   0  0  0  0  0  0  0  0  0  0  0  0
    4.3241   -9.8982   35.3697 N   0  0  0  0  0  0  0  0  0  0  0  0
    4.3885   -9.5055   30.5838 C   0  0  1  0  0  0  0  0  0  0  0  0
    5.6162   -8.9660   30.2101 O   0  0  0  0  0  0  0  0  0  0  0  0
  1  2  1  6  0  0  0
  1  5  1  0  0  0  0
  1 29  1  0  0  0  0
  3  4  1  1  0  0  0
  3  7  1  0  0  0  0
  3 34  1  0  0  0  0
  5  6  1  6  0  0  0
  5 16  1  0  0  0  0
  7 19  1  0  0  0  0
  8  4  1  0  0  0  0
  8 24  2  0  0  0  0
  9  8  1  1  0  0  0
  9 10  1  0  0  0  0
  9 13  1  0  0  0  0
 10 11  1  0  0  0  0
 11 12  1  0  0  0  0
 14 15  1  0  0  0  0
 14 35  1  0  0  0  0
 15 17  1  0  0  0  0
 16 18  1  1  0  0  0
 16 25  1  0  0  0  0
 19 20  1  1  0  0  0
 19 27  1  0  0  0  0
 21 22  1  0  0  0  0
 21 23  1  0  0  0  0
 23 17  1  0  0  0  0
 25 26  1  6  0  0  0
 25 28  1  0  0  0  0
 27  2  1  6  0  0  0
 27 30  1  0  0  0  0
 28 29  1  0  0  0  0
 28 32  1  1  0  0  0
 30 31  1  1  0  0  0
 30 34  1  0  0  0  0
 32 33  2  0  0  0  0
 34 35  1  6  0  0  0
M  END
>  <CHROM.1>
155.77259331,-51.80018464,159.52335500,-175.11045545,-65.80976744,-172.20998809
-64.64808253,17.84034081,-64.79896556,-109.97986523,176.11028947,150.92562596
64.32401932,3.71766111,-9.81246077,30.81042737,-1.75276309,-0.29485365,-0.82873625

>  <Name>
2f4t_lig

>  <RI>
0

>  <Rbt.Current_Directory>
/home/itssahil/PROJECTS/Mol_Feturizer/New_Systems/rnas/2f4t

>  <Rbt.Executable>
rbdock ($Id: //depot/dev/client3/rdock/2013.1/src/exe/rbdock.cxx#4 $)

>  <Rbt.Library>
libRbt.so (2013.1, Build901 2013/11/27)

>  <Rbt.Parameter_File>
/export/apps/rDock/src/rDock_2013.1_src/data/scripts/dock_solv.prm

>  <Rbt.Receptor>
prm/pocket_docking_5.prm

>  <SCORE>
-10.9651

>  <SCORE.INTER>
-8.04148

>  <SCORE.INTER.CONST>
1

>  <SCORE.INTER.POLAR>
-2.05195

>  <SCORE.INTER.ROT>
13

>  <SCORE.INTER.SOLV>
8.01256

>  <SCORE.INTER.VDW>
-13.4587

>  <SCORE.INTER.norm>
-0.229757

>  <SCORE.INTRA>
-2.92363

>  <SCORE.INTRA.DIHEDRAL>
-15.8976

>  <SCORE.INTRA.DIHEDRAL.0>
23.8882

>  <SCORE.INTRA.POLAR>
0

>  <SCORE.INTRA.POLAR.0>
0

>  <SCORE.INTRA.REPUL>
0

>  <SCORE.INTRA.REPUL.0>
0

>  <SCORE.INTRA.SOLV>
2.10026

>  <SCORE.INTRA.SOLV.lig_0>
-97.6888

>  <SCORE.INTRA.VDW>
3.97504

>  <SCORE.INTRA.VDW.0>
-3.9206

>  <SCORE.INTRA.norm>
-0.0835323

>  <SCORE.RESTR>
0

>  <SCORE.RESTR.CAVITY>
0

>  <SCORE.RESTR.norm>
0

>  <SCORE.SYSTEM>
0

>  <SCORE.SYSTEM.CONST>
0

>  <SCORE.SYSTEM.DIHEDRAL>
0

>  <SCORE.SYSTEM.SOLV>
0

>  <SCORE.SYSTEM.norm>
0

>  <SCORE.heavy>
35

>  <SCORE.norm>
-0.313289

>  <RMSD>
9.048

$$$$
2f4t_lig
 OpenBabel11021811433D
libRbt.so/2013.1/901 2013/11/27
 35 36  0  0  0  0  0  0  0  0999 V2000
    3.4437  -14.3713   31.9026 C   0  0  2  0  0  0  0  0  0  0  0  0
    2.8305  -13.2207   31.2337 O   0  0  0  0  0  0  0  0  0  0  0  0
    4.2681   -9.2015   30.5733 C   0  0  2  0  0  0  0  0  0  0  0  0
    5.1552   -8.0988   30.1735 N   0  0  0  0  0  0  0  0  0  0  0  0
    4.0989  -15.2213   30.7722 C   0  0  2  0  0  0  0  0  0  0  0  0
    5.0351  -14.4254   30.0135 N   0  0  0  0  0  0  0  0  0  0  0  0
    5.0619  -10.1976   31.4960 C   0  0  0  0  0  0  0  0  0  0  0  0
    6.6258   -8.7562   29.4497 C   0  0  0  0  0  0  0  0  0  0  0  0
    7.0521   -7.3162   29.2685 C   0  0  1  0  0  0  0  0  0  0  0  0
    8.5054   -7.2030   29.7343 C   0  0  0  0  0  0  0  0  0  0  0  0
    9.0894   -5.7804   29.7536 C   0  0  0  0  0  0  0  0  0  0  0  0
   10.4691   -5.8532   30.2438 N   0  0  0  0  0  0  0  0  0  0  0  0
    7.0549   -6.9609   27.9106 O   0  0  0  0  0  0  0  0  0  0  0  0
    2.2694   -8.6668   27.3895 C   0  0  0  0  0  0  0  0  0  0  0  0
    1.9882   -7.1790   27.5335 C   0  0  0  0  0  0  0  0  0  0  0  0
    2.9930  -15.8147   29.8357 C   0  0  1  0  0  0  0  0  0  0  0  0
    3.1753   -6.3276   27.2999 N   0  0  0  0  0  0  0  0  0  0  0  0
    3.5669  -16.5943   28.8046 O   0  0  0  0  0  0  0  0  0  0  0  0
    4.1924  -11.3817   31.9412 C   0  0  2  0  0  0  0  0  0  0  0  0
    4.9616  -12.3118   32.7618 N   0  0  0  0  0  0  0  0  0  0  0  0
    3.6094   -4.3247   25.8746 C   0  0  0  0  0  0  0  0  0  0  0  0
    2.9689   -4.9903   24.6142 N   0  0  0  0  0  0  0  0  0  0  0  0
    3.0279   -4.8465   27.2218 C   0  0  0  0  0  0  0  0  0  0  0  0
    6.9900   -9.7406   29.2558 O   0  0  0  0  0  0  0  0  0  0  0  0
    2.0479  -16.6619   30.6940 C   0  0  2  0  0  0  0  0  0  0  0  0
    1.0245  -17.2419   29.9015 O   0  0  0  0  0  0  0  0  0  0  0  0
    3.6492  -12.1166   30.7412 C   0  0  2  0  0  0  0  0  0  0  0  0
    1.4281  -15.7871   31.8217 C   0  0  2  0  0  0  0  0  0  0  0  0
    2.4553  -15.1908   32.6408 O   0  0  0  0  0  0  0  0  0  0  0  0
    2.8193  -11.1229   29.8198 C   0  0  2  0  0  0  0  0  0  0  0  0
    2.3056  -11.8679   28.6753 O   0  0  0  0  0  0  0  0  0  0  0  0
    0.5265  -16.5710   32.6989 C   0  0  0  0  0  0  0  0  0  0  0  0
    1.2636  -17.3531   33.5180 N   0  0  0  0  0  0  0  0  0  0  0  0
    3.7654   -9.9679   29.3400 C   0  0  1  0  0  0  0  0  0  0  0  0
    3.0738   -9.0938   28.5060 O   0  0  0  0  0  0  0  0  0  0  0  0
  1  2  1  6  0  0  0
  1  5  1  0  0  0  0
  1 29  1  0  0  0  0
  3  4  1  6  0  0  0
  3  7  1  0  0  0  0
  3 34  1  0  0  0  0
  5  6  1  6  0  0  0
  5 16  1  0  0  0  0
  7 19  1  0  0  0  0
  8  4  1  0  0  0  0
  8 24  2  0  0  0  0
  9  8  1  6  0  0  0
  9 10  1  0  0  0  0
  9 13  1  0  0  0  0
 10 11  1  0  0  0  0
 11 12  1  0  0  0  0
 14 15  1  0  0  0  0
 14 35  1  0  0  0  0
 15 17  1  0  0  0  0
 16 18  1  6  0  0  0
 16 25  1  0  0  0  0
 19 20  1  6  0  0  0
 19 27  1  0  0  0  0
 21 22  1  0  0  0  0
 21 23  1  0  0  0  0
 23 17  1  0  0  0  0
 25 26  1  6  0  0  0
 25 28  1  0  0  0  0
 27  2  1  1  0  0  0
 27 30  1  0  0  0  0
 28 29  1  0  0  0  0
 28 32  1  1  0  0  0
 30 31  1  6  0  0  0
 30 34  1  0  0  0  0
 32 33  2  0  0  0  0
 34 35  1  6  0  0  0
M  END
>  <CHROM.1>
-75.40715919,53.75738992,133.92540059,-174.50980981,178.99276681,70.99501533
175.63183460,171.74938501,56.28753553,-124.26364363,-69.52185494,74.89898333
-174.00037233,4.07355930,-10.91673947,29.78318781,-1.93381182,-0.46338922
-0.49772933

>  <Name>
2f4t_lig

>  <RI>
0

>  <Rbt.Current_Directory>
/home/itssahil/PROJECTS/Mol_Feturizer/New_Systems/rnas/2f4t

>  <Rbt.Executable>
rbdock ($Id: //depot/dev/client3/rdock/2013.1/src/exe/rbdock.cxx#4 $)

>  <Rbt.Library>
libRbt.so (2013.1, Build901 2013/11/27)

>  <Rbt.Parameter_File>
/export/apps/rDock/src/rDock_2013.1_src/data/scripts/dock_solv.prm

>  <Rbt.Receptor>
prm/pocket_docking_6.prm

>  <SCORE>
-11.1136

>  <SCORE.INTER>
-6.89707

>  <SCORE.INTER.CONST>
1

>  <SCORE.INTER.POLAR>
-2.58149

>  <SCORE.INTER.ROT>
13

>  <SCORE.INTER.SOLV>
21.7297

>  <SCORE.INTER.VDW>
-15.503

>  <SCORE.INTER.norm>
-0.197059

>  <SCORE.INTRA>
-4.21652

>  <SCORE.INTRA.DIHEDRAL>
-16.1887

>  <SCORE.INTRA.DIHEDRAL.0>
23.8882

>  <SCORE.INTRA.POLAR>
0

>  <SCORE.INTRA.POLAR.0>
0

>  <SCORE.INTRA.REPUL>
0

>  <SCORE.INTRA.REPUL.0>
0

>  <SCORE.INTRA.SOLV>
5.67746

>  <SCORE.INTRA.SOLV.lig_0>
-97.6888

>  <SCORE.INTRA.VDW>
1.03908

>  <SCORE.INTRA.VDW.0>
-3.9206

>  <SCORE.INTRA.norm>
-0.120472

>  <SCORE.RESTR>
0

>  <SCORE.RESTR.CAVITY>
0

>  <SCORE.RESTR.norm>
0

>  <SCORE.SYSTEM>
0

>  <SCORE.SYSTEM.CONST>
0

>  <SCORE.SYSTEM.DIHEDRAL>
0

>  <SCORE.SYSTEM.SOLV>
0

>  <SCORE.SYSTEM.norm>
0

>  <SCORE.heavy>
35

>  <SCORE.norm>
-0.317531

>  <RMSD>
9.055

$$$$
2f4t_lig
 OpenBabel11021811433D
libRbt.so/2013.1/901 2013/11/27
 35 36  0  0  0  0  0  0  0  0999 V2000
    3.5685  -12.7635   30.9515 C   0  0  2  0  0  0  0  0  0  0  0  0
    3.3424  -11.5750   31.7784 O   0  0  0  0  0  0  0  0  0  0  0  0
    4.6288   -7.4548   31.6181 C   0  0  2  0  0  0  0  0  0  0  0  0
    5.5166   -6.2824   31.6252 N   0  0  0  0  0  0  0  0  0  0  0  0
    2.3495  -13.7000   31.2099 C   0  0  2  0  0  0  0  0  0  0  0  0
    1.1112  -13.0171   30.9169 N   0  0  0  0  0  0  0  0  0  0  0  0
    4.9317   -8.3428   32.8803 C   0  0  0  0  0  0  0  0  0  0  0  0
    5.2675   -5.3618   33.1116 C   0  0  0  0  0  0  0  0  0  0  0  0
    6.3320   -4.4258   32.5833 C   0  0  1  0  0  0  0  0  0  0  0  0
    6.4588   -3.2654   33.5730 C   0  0  0  0  0  0  0  0  0  0  0  0
    5.2266   -2.3527   33.6900 C   0  0  0  0  0  0  0  0  0  0  0  0
    4.9646   -1.7583   32.3758 N   0  0  0  0  0  0  0  0  0  0  0  0
    7.5873   -5.0535   32.5641 O   0  0  0  0  0  0  0  0  0  0  0  0
    4.4860   -7.1921   27.8317 C   0  0  0  0  0  0  0  0  0  0  0  0
    3.3491   -8.0086   27.2365 C   0  0  0  0  0  0  0  0  0  0  0  0
    2.3639  -14.2051   32.6921 C   0  0  1  0  0  0  0  0  0  0  0  0
    2.0114   -7.5959   27.7147 N   0  0  0  0  0  0  0  0  0  0  0  0
    1.2672  -15.0613   32.9463 O   0  0  0  0  0  0  0  0  0  0  0  0
    4.0425   -9.5933   32.9270 C   0  0  2  0  0  0  0  0  0  0  0  0
    4.3698  -10.4209   34.0838 N   0  0  0  0  0  0  0  0  0  0  0  0
    1.0018   -8.1120   29.9386 C   0  0  0  0  0  0  0  0  0  0  0  0
    0.3263   -6.7127   30.1044 N   0  0  0  0  0  0  0  0  0  0  0  0
    1.1525   -8.5628   28.4556 C   0  0  0  0  0  0  0  0  0  0  0  0
    4.6332   -5.4708   33.9630 O   0  0  0  0  0  0  0  0  0  0  0  0
    3.6891  -14.9357   32.9322 C   0  0  2  0  0  0  0  0  0  0  0  0
    3.7624  -15.4322   34.2588 O   0  0  0  0  0  0  0  0  0  0  0  0
    4.2167  -10.4105   31.6713 C   0  0  2  0  0  0  0  0  0  0  0  0
    4.8819  -13.9781   32.6466 C   0  0  2  0  0  0  0  0  0  0  0  0
    4.8255  -13.4652   31.2993 O   0  0  0  0  0  0  0  0  0  0  0  0
    3.8819   -9.5283   30.3928 C   0  0  2  0  0  0  0  0  0  0  0  0
    4.0550  -10.3513   29.2004 O   0  0  0  0  0  0  0  0  0  0  0  0
    6.1895  -14.6495   32.8373 C   0  0  0  0  0  0  0  0  0  0  0  0
    6.2693  -15.7205   32.0174 N   0  0  0  0  0  0  0  0  0  0  0  0
    4.8567   -8.3004   30.3555 C   0  0  1  0  0  0  0  0  0  0  0  0
    4.6071   -7.5213   29.2292 O   0  0  0  0  0  0  0  0  0  0  0  0
  1  2  1  1  0  0  0
  1  5  1  0  0  0  0
  1 29  1  0  0  0  0
  3  4  1  6  0  0  0
  3  7  1  0  0  0  0
  3 34  1  0  0  0  0
  5  6  1  1  0  0  0
  5 16  1  0  0  0  0
  7 19  1  0  0  0  0
  8  4  1  0  0  0  0
  8 24  2  0  0  0  0
  9  8  1  1  0  0  0
  9 10  1  0  0  0  0
  9 13  1  0  0  0  0
 10 11  1  0  0  0  0
 11 12  1  0  0  0  0
 14 15  1  0  0  0  0
 14 35  1  0  0  0  0
 15 17  1  0  0  0  0
 16 18  1  6  0  0  0
 16 25  1  0  0  0  0
 19 20  1  1  0  0  0
 19 27  1  0  0  0  0
 21 22  1  0  0  0  0
 21 23  1  0  0  0  0
 23 17  1  0  0  0  0
 25 26  1  1  0  0  0
 25 28  1  0  0  0  0
 27  2  1  1  0  0  0
 27 30  1  0  0  0  0
 28 29  1  0  0  0  0
 28 32  1  6  0  0  0
 30 31  1  6  0  0  0
 30 34  1  0  0  0  0
 32 33  2  0  0  0  0
 34 35  1  6  0  0  0
M  END
>  <CHROM.1>
-172.94604870,-58.53803805,176.39042995,-65.69603582,-60.30490122,69.68554563
65.53959534,-118.96983994,61.06748036,112.02800432,-160.66214889,58.60107078
179.97670497,4.04055854,-9.45344441,31.52828440,1.82673082,0.92027748,2.90092013

>  <Name>
2f4t_lig

>  <RI>
0

>  <Rbt.Current_Directory>
/home/itssahil/PROJECTS/Mol_Feturizer/New_Systems/rnas/2f4t

>  <Rbt.Executable>
rbdock ($Id: //depot/dev/client3/rdock/2013.1/src/exe/rbdock.cxx#4 $)

>  <Rbt.Library>
libRbt.so (2013.1, Build901 2013/11/27)

>  <Rbt.Parameter_File>
/export/apps/rDock/src/rDock_2013.1_src/data/scripts/dock_solv.prm

>  <Rbt.Receptor>
prm/pocket_docking_6.prm

>  <SCORE>
-9.4431

>  <SCORE.INTER>
-2.52206

>  <SCORE.INTER.CONST>
1

>  <SCORE.INTER.POLAR>
-1.71356

>  <SCORE.INTER.ROT>
13

>  <SCORE.INTER.SOLV>
7.82086

>  <SCORE.INTER.VDW>
-10.8431

>  <SCORE.INTER.norm>
-0.0720587

>  <SCORE.INTRA>
-6.92105

>  <SCORE.INTRA.DIHEDRAL>
-16.3001

>  <SCORE.INTRA.DIHEDRAL.0>
23.8882

>  <SCORE.INTRA.POLAR>
0

>  <SCORE.INTRA.POLAR.0>
0

>  <SCORE.INTRA.REPUL>
0

>  <SCORE.INTRA.REPUL.0>
0

>  <SCORE.INTRA.SOLV>
3.63877

>  <SCORE.INTRA.SOLV.lig_0>
-97.6888

>  <SCORE.INTRA.VDW>
-0.590383

>  <SCORE.INTRA.VDW.0>
-3.9206

>  <SCORE.INTRA.norm>
-0.197744

>  <SCORE.RESTR>
0

>  <SCORE.RESTR.CAVITY>
0

>  <SCORE.RESTR.norm>
0

>  <SCORE.SYSTEM>
0

>  <SCORE.SYSTEM.CONST>
0

>  <SCORE.SYSTEM.DIHEDRAL>
0

>  <SCORE.SYSTEM.SOLV>
0

>  <SCORE.SYSTEM.norm>
0

>  <SCORE.heavy>
35

>  <SCORE.norm>
-0.269803

>  <RMSD>
9.073

$$$$
2f4t_lig
 OpenBabel11021811433D
libRbt.so/2013.1/901 2013/11/27
 35 36  0  0  0  0  0  0  0  0999 V2000
    2.0663  -11.1306   30.3164 C   0  0  2  0  0  0  0  0  0  0  0  0
    3.2289  -10.3886   30.8114 O   0  0  0  0  0  0  0  0  0  0  0  0
    5.7452   -7.4967   28.8209 C   0  0  2  0  0  0  0  0  0  0  0  0
    6.8089   -6.9436   27.9692 N   0  0  0  0  0  0  0  0  0  0  0  0
    1.2156  -11.4782   31.5754 C   0  0  2  0  0  0  0  0  0  0  0  0
    0.8709  -10.2801   32.3042 N   0  0  0  0  0  0  0  0  0  0  0  0
    6.3639   -8.5641   29.7964 C   0  0  0  0  0  0  0  0  0  0  0  0
    7.1742   -5.2923   28.4777 C   0  0  0  0  0  0  0  0  0  0  0  0
    8.2065   -5.2944   27.3720 C   0  0  1  0  0  0  0  0  0  0  0  0
    7.4832   -4.9634   26.0646 C   0  0  0  0  0  0  0  0  0  0  0  0
    8.3220   -5.1106   24.7840 C   0  0  0  0  0  0  0  0  0  0  0  0
    7.4447   -4.8968   23.6291 N   0  0  0  0  0  0  0  0  0  0  0  0
    9.1467   -4.2695   27.5613 O   0  0  0  0  0  0  0  0  0  0  0  0
    3.3118   -6.7449   26.0049 C   0  0  0  0  0  0  0  0  0  0  0  0
    1.8806   -7.2192   26.2056 C   0  0  0  0  0  0  0  0  0  0  0  0
    1.9972  -12.4773   32.4937 C   0  0  1  0  0  0  0  0  0  0  0  0
    0.9472   -6.7395   25.1629 N   0  0  0  0  0  0  0  0  0  0  0  0
    1.2398  -12.8097   33.6409 O   0  0  0  0  0  0  0  0  0  0  0  0
    5.3000   -9.1898   30.7091 C   0  0  2  0  0  0  0  0  0  0  0  0
    5.8906  -10.2049   31.5757 N   0  0  0  0  0  0  0  0  0  0  0  0
   -0.0399   -6.6505   22.8718 C   0  0  0  0  0  0  0  0  0  0  0  0
   -0.4002   -5.1372   23.0199 N   0  0  0  0  0  0  0  0  0  0  0  0
    1.1804   -7.0909   23.7334 C   0  0  0  0  0  0  0  0  0  0  0  0
    6.7981   -4.6410   29.2350 O   0  0  0  0  0  0  0  0  0  0  0  0
    2.3138  -13.7306   31.6711 C   0  0  2  0  0  0  0  0  0  0  0  0
    3.0138  -14.6866   32.4507 O   0  0  0  0  0  0  0  0  0  0  0  0
    4.2052   -9.8212   29.8858 C   0  0  2  0  0  0  0  0  0  0  0  0
    3.1459  -13.3439   30.4144 C   0  0  2  0  0  0  0  0  0  0  0  0
    2.4474  -12.3736   29.6069 O   0  0  0  0  0  0  0  0  0  0  0  0
    3.5541   -8.7407   28.9196 C   0  0  2  0  0  0  0  0  0  0  0  0
    2.4980   -9.3843   28.1452 O   0  0  0  0  0  0  0  0  0  0  0  0
    3.4529  -14.5221   29.5691 C   0  0  0  0  0  0  0  0  0  0  0  0
    4.7773  -14.7836   29.6254 N   0  0  0  0  0  0  0  0  0  0  0  0
    4.6654   -8.1786   27.9665 C   0  0  1  0  0  0  0  0  0  0  0  0
    4.1198   -7.2480   27.0866 O   0  0  0  0  0  0  0  0  0  0  0  0
  1  2  1  1  0  0  0
  1  5  1  0  0  0  0
  1 29  1  0  0  0  0
  3  4  1  6  0  0  0
  3  7  1  0  0  0  0
  3 34  1  0  0  0  0
  5  6  1  1  0  0  0
  5 16  1  0  0  0  0
  7 19  1  0  0  0  0
  8  4  1  0  0  0  0
  8 24  2  0  0  0  0
  9  8  1  1  0  0  0
  9 10  1  0  0  0  0
  9 13  1  0  0  0  0
 10 11  1  0  0  0  0
 11 12  1  0  0  0  0
 14 15  1  0  0  0  0
 14 35  1  0  0  0  0
 15 17  1  0  0  0  0
 16 18  1  1  0  0  0
 16 25  1  0  0  0  0
 19 20  1  6  0  0  0
 19 27  1  0  0  0  0
 21 22  1  0  0  0  0
 21 23  1  0  0  0  0
 23 17  1  0  0  0  0
 25 26  1  1  0  0  0
 25 28  1  0  0  0  0
 27  2  1  1  0  0  0
 27 30  1  0  0  0  0
 28 29  1  0  0  0  0
 28 32  1  6  0  0  0
 30 31  1  6  0  0  0
 30 34  1  0  0  0  0
 32 33  2  0  0  0  0
 34 35  1  6  0  0  0
M  END
>  <CHROM.1>
-175.84645122,-107.28118667,82.74055411,-171.68013505,174.04983795,178.88095639
51.60872066,59.69503838,55.08440273,171.70471216,-177.21360866,-111.31364548
173.71712441,4.00412740,-8.90457713,28.56260011,1.90716909,0.41650894,2.33680684

>  <Name>
2f4t_lig

>  <RI>
0

>  <Rbt.Current_Directory>
/home/itssahil/PROJECTS/Mol_Feturizer/New_Systems/rnas/2f4t

>  <Rbt.Executable>
rbdock ($Id: //depot/dev/client3/rdock/2013.1/src/exe/rbdock.cxx#4 $)

>  <Rbt.Library>
libRbt.so (2013.1, Build901 2013/11/27)

>  <Rbt.Parameter_File>
/export/apps/rDock/src/rDock_2013.1_src/data/scripts/dock_solv.prm

>  <Rbt.Receptor>
prm/pocket_docking_8.prm

>  <SCORE>
-17.876

>  <SCORE.INTER>
-8.52642

>  <SCORE.INTER.CONST>
1

>  <SCORE.INTER.POLAR>
-2.31251

>  <SCORE.INTER.ROT>
13

>  <SCORE.INTER.SOLV>
19.3699

>  <SCORE.INTER.VDW>
-16.6992

>  <SCORE.INTER.norm>
-0.243612

>  <SCORE.INTRA>
-9.34956

>  <SCORE.INTRA.DIHEDRAL>
-19.4874

>  <SCORE.INTRA.DIHEDRAL.0>
23.8882

>  <SCORE.INTRA.POLAR>
0

>  <SCORE.INTRA.POLAR.0>
0

>  <SCORE.INTRA.REPUL>
0

>  <SCORE.INTRA.REPUL.0>
0

>  <SCORE.INTRA.SOLV>
-0.537079

>  <SCORE.INTRA.SOLV.lig_0>
-97.6888

>  <SCORE.INTRA.VDW>
0.662663

>  <SCORE.INTRA.VDW.0>
-3.9206

>  <SCORE.INTRA.norm>
-0.26713

>  <SCORE.RESTR>
0

>  <SCORE.RESTR.CAVITY>
0

>  <SCORE.RESTR.norm>
0

>  <SCORE.SYSTEM>
0

>  <SCORE.SYSTEM.CONST>
0

>  <SCORE.SYSTEM.DIHEDRAL>
0

>  <SCORE.SYSTEM.SOLV>
0

>  <SCORE.SYSTEM.norm>
0

>  <SCORE.heavy>
35

>  <SCORE.norm>
-0.510742

>  <RMSD>
9.074

$$$$
2f4t_lig
 OpenBabel11021811433D
libRbt.so/2013.1/901 2013/11/27
 35 36  0  0  0  0  0  0  0  0999 V2000
    3.3186   -9.6535   33.9201 C   0  0  2  0  0  0  0  0  0  0  0  0
    3.1011  -10.7394   32.9605 O   0  0  0  0  0  0  0  0  0  0  0  0
    3.9735  -14.9538   33.3271 C   0  0  2  0  0  0  0  0  0  0  0  0
    4.7268  -16.2166   33.3058 N   0  0  0  0  0  0  0  0  0  0  0  0
    2.4076   -8.4799   33.4485 C   0  0  2  0  0  0  0  0  0  0  0  0
    1.0311   -8.9074   33.3592 N   0  0  0  0  0  0  0  0  0  0  0  0
    4.1713  -14.2083   31.9564 C   0  0  0  0  0  0  0  0  0  0  0  0
    6.4036  -15.8967   32.8529 C   0  0  0  0  0  0  0  0  0  0  0  0
    6.6163  -17.3867   33.0044 C   0  0  1  0  0  0  0  0  0  0  0  0
    7.4570  -17.8562   31.8150 C   0  0  0  0  0  0  0  0  0  0  0  0
    6.8532  -19.0001   30.9832 C   0  0  0  0  0  0  0  0  0  0  0  0
    6.7069  -20.1743   31.8485 N   0  0  0  0  0  0  0  0  0  0  0  0
    7.3771  -17.6710   34.1491 O   0  0  0  0  0  0  0  0  0  0  0  0
    4.3176  -14.8780   37.1075 C   0  0  0  0  0  0  0  0  0  0  0  0
    4.0330  -16.3406   37.4126 C   0  0  0  0  0  0  0  0  0  0  0  0
    2.9063   -7.9330   32.0684 C   0  0  1  0  0  0  0  0  0  0  0  0
    3.9952  -16.6461   38.8596 N   0  0  0  0  0  0  0  0  0  0  0  0
    2.0950   -6.8629   31.6243 O   0  0  0  0  0  0  0  0  0  0  0  0
    3.4163  -12.8723   31.9174 C   0  0  2  0  0  0  0  0  0  0  0  0
    3.6479  -12.1812   30.6530 N   0  0  0  0  0  0  0  0  0  0  0  0
    3.4852  -19.0893   38.9086 C   0  0  0  0  0  0  0  0  0  0  0  0
    4.9207  -19.4924   39.3765 N   0  0  0  0  0  0  0  0  0  0  0  0
    3.0477  -17.6715   39.3815 C   0  0  0  0  0  0  0  0  0  0  0  0
    6.9567  -15.0201   32.5983 O   0  0  0  0  0  0  0  0  0  0  0  0
    4.3601   -7.4784   32.2347 C   0  0  2  0  0  0  0  0  0  0  0  0
    4.8718   -6.9578   31.0186 O   0  0  0  0  0  0  0  0  0  0  0  0
    3.8592  -11.9839   33.0530 C   0  0  2  0  0  0  0  0  0  0  0  0
    5.2351   -8.6683   32.7241 C   0  0  2  0  0  0  0  0  0  0  0  0
    4.7308   -9.2093   33.9629 O   0  0  0  0  0  0  0  0  0  0  0  0
    3.6331  -12.7187   34.4436 C   0  0  2  0  0  0  0  0  0  0  0  0
    4.0660  -11.8293   35.5164 O   0  0  0  0  0  0  0  0  0  0  0  0
    6.6481   -8.2700   32.9283 C   0  0  0  0  0  0  0  0  0  0  0  0
    7.3883   -8.6815   31.8755 N   0  0  0  0  0  0  0  0  0  0  0  0
    4.4731  -14.0428   34.4591 C   0  0  1  0  0  0  0  0  0  0  0  0
    4.3183  -14.6972   35.6780 O   0  0  0  0  0  0  0  0  0  0  0  0
  1  2  1  6  0  0  0
  1  5  1  0  0  0  0
  1 29  1  0  0  0  0
  3  4  1  6  0  0  0
  3  7  1  0  0  0  0
  3 34  1  0  0  0  0
  5  6  1  6  0  0  0
  5 16  1  0  0  0  0
  7 19  1  0  0  0  0
  8  4  1  0  0  0  0
  8 24  2  0  0  0  0
  9  8  1  6  0  0  0
  9 10  1  0  0  0  0
  9 13  1  0  0  0  0
 10 11  1  0  0  0  0
 11 12  1  0  0  0  0
 14 15  1  0  0  0  0
 14 35  1  0  0  0  0
 15 17  1  0  0  0  0
 16 18  1  1  0  0  0
 16 25  1  0  0  0  0
 19 20  1  6  0  0  0
 19 27  1  0  0  0  0
 21 22  1  0  0  0  0
 21 23  1  0  0  0  0
 23 17  1  0  0  0  0
 25 26  1  6  0  0  0
 25 28  1  0  0  0  0
 27  2  1  1  0  0  0
 27 30  1  0  0  0  0
 28 29  1  0  0  0  0
 28 32  1  1  0  0  0
 30 31  1  1  0  0  0
 30 34  1  0  0  0  0
 32 33  2  0  0  0  0
 34 35  1  1  0  0  0
M  END
>  <CHROM.1>
176.53090413,52.69370206,136.21773655,-124.97646454,-61.77577980,-179.47524135
-174.12421194,145.08311815,59.33697943,69.33103916,-179.12655030,-101.30071035
-173.37185690,4.59156656,-13.26307177,33.85805372,1.84476036,1.03651475,-0.56894341

>  <Name>
2f4t_lig

>  <RI>
0

>  <Rbt.Current_Directory>
/home/itssahil/PROJECTS/Mol_Feturizer/New_Systems/rnas/2f4t

>  <Rbt.Executable>
rbdock ($Id: //depot/dev/client3/rdock/2013.1/src/exe/rbdock.cxx#4 $)

>  <Rbt.Library>
libRbt.so (2013.1, Build901 2013/11/27)

>  <Rbt.Parameter_File>
/export/apps/rDock/src/rDock_2013.1_src/data/scripts/dock_solv.prm

>  <Rbt.Receptor>
prm/pocket_docking_7.prm

>  <SCORE>
-12.6462

>  <SCORE.INTER>
-6.83813

>  <SCORE.INTER.CONST>
1

>  <SCORE.INTER.POLAR>
-1.48879

>  <SCORE.INTER.ROT>
13

>  <SCORE.INTER.SOLV>
9.88934

>  <SCORE.INTER.VDW>
-15.1592

>  <SCORE.INTER.norm>
-0.195375

>  <SCORE.INTRA>
-5.81866

>  <SCORE.INTRA.DIHEDRAL>
-14.3626

>  <SCORE.INTRA.DIHEDRAL.0>
23.8882

>  <SCORE.INTRA.POLAR>
0

>  <SCORE.INTRA.POLAR.0>
0

>  <SCORE.INTRA.REPUL>
0

>  <SCORE.INTRA.REPUL.0>
0

>  <SCORE.INTRA.SOLV>
1.77988

>  <SCORE.INTRA.SOLV.lig_0>
-97.6888

>  <SCORE.INTRA.VDW>
0.472708

>  <SCORE.INTRA.VDW.0>
-3.9206

>  <SCORE.INTRA.norm>
-0.166248

>  <SCORE.RESTR>
0.0106355

>  <SCORE.RESTR.CAVITY>
0.0106355

>  <SCORE.RESTR.norm>
0.000303872

>  <SCORE.SYSTEM>
0

>  <SCORE.SYSTEM.CONST>
0

>  <SCORE.SYSTEM.DIHEDRAL>
0

>  <SCORE.SYSTEM.SOLV>
0

>  <SCORE.SYSTEM.norm>
0

>  <SCORE.heavy>
35

>  <SCORE.norm>
-0.361319

>  <RMSD>
9.075

$$$$
2f4t_lig
 OpenBabel11021811433D
libRbt.so/2013.1/901 2013/11/27
 35 36  0  0  0  0  0  0  0  0999 V2000
    3.7721  -13.7175   32.0345 C   0  0  2  0  0  0  0  0  0  0  0  0
    4.6787  -12.8716   31.2536 O   0  0  0  0  0  0  0  0  0  0  0  0
    4.1179   -9.7650   28.3055 C   0  0  2  0  0  0  0  0  0  0  0  0
    3.5510   -8.5910   27.6250 N   0  0  0  0  0  0  0  0  0  0  0  0
    4.1627  -13.4957   33.5271 C   0  0  2  0  0  0  0  0  0  0  0  0
    4.0883  -12.0950   33.8706 N   0  0  0  0  0  0  0  0  0  0  0  0
    2.9649  -10.7850   28.6275 C   0  0  0  0  0  0  0  0  0  0  0  0
    2.1542   -8.0006   28.5301 C   0  0  0  0  0  0  0  0  0  0  0  0
    2.0514   -6.9310   27.4654 C   0  0  1  0  0  0  0  0  0  0  0  0
    1.3244   -7.5424   26.2656 C   0  0  0  0  0  0  0  0  0  0  0  0
    1.2830   -6.6724   24.9982 C   0  0  0  0  0  0  0  0  0  0  0  0
    0.4990   -7.3764   23.9790 N   0  0  0  0  0  0  0  0  0  0  0  0
    1.2473   -5.8659   27.9002 O   0  0  0  0  0  0  0  0  0  0  0  0
    7.0440   -7.9343   28.8140 C   0  0  0  0  0  0  0  0  0  0  0  0
    7.1121   -6.4368   29.0716 C   0  0  0  0  0  0  0  0  0  0  0  0
    5.6009  -14.0542   33.7954 C   0  0  1  0  0  0  0  0  0  0  0  0
    5.9430   -5.6938   28.5523 N   0  0  0  0  0  0  0  0  0  0  0  0
    5.9733  -13.8669   35.1469 O   0  0  0  0  0  0  0  0  0  0  0  0
    3.4903  -12.0331   29.3505 C   0  0  2  0  0  0  0  0  0  0  0  0
    2.3976  -12.9448   29.6744 N   0  0  0  0  0  0  0  0  0  0  0  0
    5.7511   -4.4671   26.3867 C   0  0  0  0  0  0  0  0  0  0  0  0
    4.9131   -3.2958   26.9931 N   0  0  0  0  0  0  0  0  0  0  0  0
    5.5505   -5.8259   27.1206 C   0  0  0  0  0  0  0  0  0  0  0  0
    1.6561   -8.3069   29.4229 O   0  0  0  0  0  0  0  0  0  0  0  0
    5.6080  -15.5427   33.4323 C   0  0  2  0  0  0  0  0  0  0  0  0
    6.8842  -16.1163   33.6649 O   0  0  0  0  0  0  0  0  0  0  0  0
    4.2012  -11.6444   30.6228 C   0  0  2  0  0  0  0  0  0  0  0  0
    5.1953  -15.7275   31.9435 C   0  0  2  0  0  0  0  0  0  0  0  0
    3.8969  -15.1523   31.6888 O   0  0  0  0  0  0  0  0  0  0  0  0
    5.3879  -10.6376   30.3015 C   0  0  2  0  0  0  0  0  0  0  0  0
    6.0548  -10.2892   31.5517 O   0  0  0  0  0  0  0  0  0  0  0  0
    5.1590  -17.1565   31.5517 C   0  0  0  0  0  0  0  0  0  0  0  0
    6.2768  -17.4611   30.8565 N   0  0  0  0  0  0  0  0  0  0  0  0
    4.7938   -9.3547   29.6231 C   0  0  1  0  0  0  0  0  0  0  0  0
    5.8071   -8.4389   29.3540 O   0  0  0  0  0  0  0  0  0  0  0  0
  1  2  1  6  0  0  0
  1  5  1  0  0  0  0
  1 29  1  0  0  0  0
  3  4  1  1  0  0  0
  3  7  1  0  0  0  0
  3 34  1  0  0  0  0
  5  6  1  6  0  0  0
  5 16  1  0  0  0  0
  7 19  1  0  0  0  0
  8  4  1  0  0  0  0
  8 24  2  0  0  0  0
  9  8  1  1  0  0  0
  9 10  1  0  0  0  0
  9 13  1  0  0  0  0
 10 11  1  0  0  0  0
 11 12  1  0  0  0  0
 14 15  1  0  0  0  0
 14 35  1  0  0  0  0
 15 17  1  0  0  0  0
 16 18  1  1  0  0  0
 16 25  1  0  0  0  0
 19 20  1  1  0  0  0
 19 27  1  0  0  0  0
 21 22  1  0  0  0  0
 21 23  1  0  0  0  0
 23 17  1  0  0  0  0
 25 26  1  6  0  0  0
 25 28  1  0  0  0  0
 27  2  1  6  0  0  0
 27 30  1  0  0  0  0
 28 29  1  0  0  0  0
 28 32  1  1  0  0  0
 30 31  1  1  0  0  0
 30 34  1  0  0  0  0
 32 33  2  0  0  0  0
 34 35  1  6  0  0  0
M  END
>  <CHROM.1>
-106.60314007,49.45195170,81.63762794,-172.12974541,-177.24825366,-54.96264811
172.72229058,-54.39213992,-59.62129512,-113.99911061,-79.73449172,-101.55447890
-63.62444768,4.31473884,-10.44875696,29.83110074,1.36430800,0.58364466,2.67707071

>  <Name>
2f4t_lig

>  <RI>
0

>  <Rbt.Current_Directory>
/home/itssahil/PROJECTS/Mol_Feturizer/New_Systems/rnas/2f4t

>  <Rbt.Executable>
rbdock ($Id: //depot/dev/client3/rdock/2013.1/src/exe/rbdock.cxx#4 $)

>  <Rbt.Library>
libRbt.so (2013.1, Build901 2013/11/27)

>  <Rbt.Parameter_File>
/export/apps/rDock/src/rDock_2013.1_src/data/scripts/dock_solv.prm

>  <Rbt.Receptor>
prm/pocket_docking_7.prm

>  <SCORE>
-10.291

>  <SCORE.INTER>
-6.94616

>  <SCORE.INTER.CONST>
1

>  <SCORE.INTER.POLAR>
-1.34394

>  <SCORE.INTER.ROT>
13

>  <SCORE.INTER.SOLV>
15.8801

>  <SCORE.INTER.VDW>
-17.711

>  <SCORE.INTER.norm>
-0.198462

>  <SCORE.INTRA>
-3.34484

>  <SCORE.INTRA.DIHEDRAL>
-11.5781

>  <SCORE.INTRA.DIHEDRAL.0>
23.8882

>  <SCORE.INTRA.POLAR>
0

>  <SCORE.INTRA.POLAR.0>
0

>  <SCORE.INTRA.REPUL>
0

>  <SCORE.INTRA.REPUL.0>
0

>  <SCORE.INTRA.SOLV>
3.71807

>  <SCORE.INTRA.SOLV.lig_0>
-97.6888

>  <SCORE.INTRA.VDW>
0.585193

>  <SCORE.INTRA.VDW.0>
-3.9206

>  <SCORE.INTRA.norm>
-0.0955669

>  <SCORE.RESTR>
0

>  <SCORE.RESTR.CAVITY>
0

>  <SCORE.RESTR.norm>
0

>  <SCORE.SYSTEM>
0

>  <SCORE.SYSTEM.CONST>
0

>  <SCORE.SYSTEM.DIHEDRAL>
0

>  <SCORE.SYSTEM.SOLV>
0

>  <SCORE.SYSTEM.norm>
0

>  <SCORE.heavy>
35

>  <SCORE.norm>
-0.294029

>  <RMSD>
9.092

$$$$
2f4t_lig
 OpenBabel11021811433D
libRbt.so/2013.1/901 2013/11/27
 35 36  0  0  0  0  0  0  0  0999 V2000
    3.2248  -11.6412   33.3629 C   0  0  2  0  0  0  0  0  0  0  0  0
    4.1881  -10.5722   33.6390 O   0  0  0  0  0  0  0  0  0  0  0  0
    6.3882   -7.7540   31.2152 C   0  0  2  0  0  0  0  0  0  0  0  0
    6.6961   -6.8037   30.1359 N   0  0  0  0  0  0  0  0  0  0  0  0
    2.6588  -12.0728   34.7496 C   0  0  2  0  0  0  0  0  0  0  0  0
    2.0866  -10.9414   35.4410 N   0  0  0  0  0  0  0  0  0  0  0  0
    5.8258   -9.0836   30.5912 C   0  0  0  0  0  0  0  0  0  0  0  0
    8.2578   -7.2101   29.4185 C   0  0  0  0  0  0  0  0  0  0  0  0
    8.0201   -6.0338   28.4977 C   0  0  1  0  0  0  0  0  0  0  0  0
    9.3844   -5.4270   28.1624 C   0  0  0  0  0  0  0  0  0  0  0  0
    9.3529   -4.1509   27.3046 C   0  0  0  0  0  0  0  0  0  0  0  0
    8.8515   -4.5012   25.9723 N   0  0  0  0  0  0  0  0  0  0  0  0
    7.4761   -6.4560   27.2746 O   0  0  0  0  0  0  0  0  0  0  0  0
    5.7970   -4.7674   33.4848 C   0  0  0  0  0  0  0  0  0  0  0  0
    7.2169   -4.2282   33.5665 C   0  0  0  0  0  0  0  0  0  0  0  0
    3.7889  -12.7317   35.6105 C   0  0  1  0  0  0  0  0  0  0  0  0
    7.7824   -3.8507   32.2526 N   0  0  0  0  0  0  0  0  0  0  0  0
    3.2944  -13.1353   36.8726 O   0  0  0  0  0  0  0  0  0  0  0  0
    5.4733  -10.1176   31.6696 C   0  0  2  0  0  0  0  0  0  0  0  0
    4.9163  -11.3256   31.0690 N   0  0  0  0  0  0  0  0  0  0  0  0
   10.0130   -3.5203   31.1818 C   0  0  0  0  0  0  0  0  0  0  0  0
   11.2920   -2.6345   31.0355 N   0  0  0  0  0  0  0  0  0  0  0  0
    8.9652   -2.9467   32.1810 C   0  0  0  0  0  0  0  0  0  0  0  0
    8.9924   -7.9628   29.5999 O   0  0  0  0  0  0  0  0  0  0  0  0
    4.3383  -13.9329   34.8340 C   0  0  2  0  0  0  0  0  0  0  0  0
    5.3622  -14.5862   35.5666 O   0  0  0  0  0  0  0  0  0  0  0  0
    4.4728   -9.5443   32.6418 C   0  0  2  0  0  0  0  0  0  0  0  0
    4.8760  -13.4687   33.4497 C   0  0  2  0  0  0  0  0  0  0  0  0
    3.8463  -12.8041   32.6884 O   0  0  0  0  0  0  0  0  0  0  0  0
    5.0473   -8.2169   33.2999 C   0  0  2  0  0  0  0  0  0  0  0  0
    4.0576   -7.6952   34.2366 O   0  0  0  0  0  0  0  0  0  0  0  0
    5.3930  -14.6026   32.6473 C   0  0  0  0  0  0  0  0  0  0  0  0
    5.1907  -14.3543   31.3346 N   0  0  0  0  0  0  0  0  0  0  0  0
    5.3311   -7.1714   32.1661 C   0  0  1  0  0  0  0  0  0  0  0  0
    5.8100   -5.9847   32.7141 O   0  0  0  0  0  0  0  0  0  0  0  0
  1  2  1  1  0  0  0
  1  5  1  0  0  0  0
  1 29  1  0  0  0  0
  3  4  1  6  0  0  0
  3  7  1  0  0  0  0
  3 34  1  0  0  0  0
  5  6  1  1  0  0  0
  5 16  1  0  0  0  0
  7 19  1  0  0  0  0
  8  4  1  0  0  0  0
  8 24  2  0  0  0  0
  9  8  1  1  0  0  0
  9 10  1  0  0  0  0
  9 13  1  0  0  0  0
 10 11  1  0  0  0  0
 11 12  1  0  0  0  0
 14 15  1  0  0  0  0
 14 35  1  0  0  0  0
 15 17  1  0  0  0  0
 16 18  1  1  0  0  0
 16 25  1  0  0  0  0
 19 20  1  6  0  0  0
 19 27  1  0  0  0  0
 21 22  1  0  0  0  0
 21 23  1  0  0  0  0
 23 17  1  0  0  0  0
 25 26  1  1  0  0  0
 25 28  1  0  0  0  0
 27  2  1  1  0  0  0
 27 30  1  0  0  0  0
 28 29  1  0  0  0  0
 28 32  1  6  0  0  0
 30 31  1  1  0  0  0
 30 34  1  0  0  0  0
 32 33  2  0  0  0  0
 34 35  1  1  0  0  0
M  END
>  <CHROM.1>
-152.61484825,-80.29743424,148.10439556,-176.06802630,-66.78697850,63.26920791
169.44447414,161.65794087,179.80858588,133.69494455,-81.73465916,148.15568784
175.35335519,6.10170664,-8.63330315,32.01272781,-2.73464478,1.05933259,0.60051691

>  <Name>
2f4t_lig

>  <RI>
0

>  <Rbt.Current_Directory>
/home/itssahil/PROJECTS/Mol_Feturizer/New_Systems/rnas/2f4t

>  <Rbt.Executable>
rbdock ($Id: //depot/dev/client3/rdock/2013.1/src/exe/rbdock.cxx#4 $)

>  <Rbt.Library>
libRbt.so (2013.1, Build901 2013/11/27)

>  <Rbt.Parameter_File>
/export/apps/rDock/src/rDock_2013.1_src/data/scripts/dock_solv.prm

>  <Rbt.Receptor>
prm/pocket_docking_8.prm

>  <SCORE>
-13.6655

>  <SCORE.INTER>
-10.3036

>  <SCORE.INTER.CONST>
1

>  <SCORE.INTER.POLAR>
-2.69656

>  <SCORE.INTER.ROT>
13

>  <SCORE.INTER.SOLV>
11.5856

>  <SCORE.INTER.VDW>
-14.0091

>  <SCORE.INTER.norm>
-0.294388

>  <SCORE.INTRA>
-3.36187

>  <SCORE.INTRA.DIHEDRAL>
-13.231

>  <SCORE.INTRA.DIHEDRAL.0>
23.8882

>  <SCORE.INTRA.POLAR>
0

>  <SCORE.INTRA.POLAR.0>
0

>  <SCORE.INTRA.REPUL>
0

>  <SCORE.INTRA.REPUL.0>
0

>  <SCORE.INTRA.SOLV>
5.40976

>  <SCORE.INTRA.SOLV.lig_0>
-97.6888

>  <SCORE.INTRA.VDW>
0.548767

>  <SCORE.INTRA.VDW.0>
-3.9206

>  <SCORE.INTRA.norm>
-0.0960535

>  <SCORE.RESTR>
0

>  <SCORE.RESTR.CAVITY>
0

>  <SCORE.RESTR.norm>
0

>  <SCORE.SYSTEM>
0

>  <SCORE.SYSTEM.CONST>
0

>  <SCORE.SYSTEM.DIHEDRAL>
0

>  <SCORE.SYSTEM.SOLV>
0

>  <SCORE.SYSTEM.norm>
0

>  <SCORE.heavy>
35

>  <SCORE.norm>
-0.390442

>  <RMSD>
9.093

$$$$
2f4t_lig
 OpenBabel11021811433D
libRbt.so/2013.1/901 2013/11/27
 35 36  0  0  0  0  0  0  0  0999 V2000
    3.6225  -14.6956   30.5976 C   0  0  2  0  0  0  0  0  0  0  0  0
    2.9730  -13.8710   31.6200 O   0  0  0  0  0  0  0  0  0  0  0  0
    3.0727   -9.9609   29.7873 C   0  0  2  0  0  0  0  0  0  0  0  0
    2.8659   -8.5173   29.5977 N   0  0  0  0  0  0  0  0  0  0  0  0
    2.7889  -16.0103   30.5185 C   0  0  2  0  0  0  0  0  0  0  0  0
    1.4034  -15.7189   30.2339 N   0  0  0  0  0  0  0  0  0  0  0  0
    1.7039  -10.6357   30.1675 C   0  0  0  0  0  0  0  0  0  0  0  0
    1.7097   -8.2529   28.2893 C   0  0  0  0  0  0  0  0  0  0  0  0
    1.8975   -6.7776   28.5657 C   0  0  1  0  0  0  0  0  0  0  0  0
    1.9764   -6.0614   27.2155 C   0  0  0  0  0  0  0  0  0  0  0  0
    3.1486   -6.4751   26.3101 C   0  0  0  0  0  0  0  0  0  0  0  0
    2.9788   -5.8247   25.0073 N   0  0  0  0  0  0  0  0  0  0  0  0
    0.7763   -6.2430   29.2195 O   0  0  0  0  0  0  0  0  0  0  0  0
    6.4558   -9.2802   29.8195 C   0  0  0  0  0  0  0  0  0  0  0  0
    7.4254   -8.5043   30.6977 C   0  0  0  0  0  0  0  0  0  0  0  0
    2.9206  -16.8122   31.8571 C   0  0  1  0  0  0  0  0  0  0  0  0
    6.8392   -7.2811   31.2882 N   0  0  0  0  0  0  0  0  0  0  0  0
    2.1745  -18.0125   31.8043 O   0  0  0  0  0  0  0  0  0  0  0  0
    1.8533  -12.1471   30.3905 C   0  0  2  0  0  0  0  0  0  0  0  0
    0.5798  -12.7433   30.7814 N   0  0  0  0  0  0  0  0  0  0  0  0
    6.7746   -5.4173   32.9476 C   0  0  0  0  0  0  0  0  0  0  0  0
    7.5643   -4.2948   33.6947 N   0  0  0  0  0  0  0  0  0  0  0  0
    7.6814   -6.3773   32.1221 C   0  0  0  0  0  0  0  0  0  0  0  0
    1.1598   -8.8920   27.6349 O   0  0  0  0  0  0  0  0  0  0  0  0
    4.4060  -17.1068   32.0903 C   0  0  2  0  0  0  0  0  0  0  0  0
    4.5957  -17.8455   33.2862 O   0  0  0  0  0  0  0  0  0  0  0  0
    2.8764  -12.4224   31.4641 C   0  0  2  0  0  0  0  0  0  0  0  0
    5.2088  -15.7750   32.1443 C   0  0  2  0  0  0  0  0  0  0  0  0
    5.0300  -15.0109   30.9337 O   0  0  0  0  0  0  0  0  0  0  0  0
    4.2711  -11.7699   31.0718 C   0  0  2  0  0  0  0  0  0  0  0  0
    5.2352  -12.0610   32.1277 O   0  0  0  0  0  0  0  0  0  0  0  0
    6.6592  -16.0097   32.3397 C   0  0  0  0  0  0  0  0  0  0  0  0
    6.8978  -16.2961   33.6384 N   0  0  0  0  0  0  0  0  0  0  0  0
    4.0802  -10.2210   30.9181 C   0  0  1  0  0  0  0  0  0  0  0  0
    5.2929   -9.6151   30.6015 O   0  0  0  0  0  0  0  0  0  0  0  0
  1  2  1  1  0  0  0
  1  5  1  0  0  0  0
  1 29  1  0  0  0  0
  3  4  1  1  0  0  0
  3  7  1  0  0  0  0
  3 34  1  0  0  0  0
  5  6  1  1  0  0  0
  5 16  1  0  0  0  0
  7 19  1  0  0  0  0
  8  4  1  0  0  0  0
  8 24  2  0  0  0  0
  9  8  1  6  0  0  0
  9 10  1  0  0  0  0
  9 13  1  0  0  0  0
 10 11  1  0  0  0  0
 11 12  1  0  0  0  0
 14 15  1  0  0  0  0
 14 35  1  0  0  0  0
 15 17  1  0  0  0  0
 16 18  1  6  0  0  0
 16 25  1  0  0  0  0
 19 20  1  1  0  0  0
 19 27  1  0  0  0  0
 21 22  1  0  0  0  0
 21 23  1  0  0  0  0
 23 17  1  0  0  0  0
 25 26  1  1  0  0  0
 25 28  1  0  0  0  0
 27  2  1  6  0  0  0
 27 30  1  0  0  0  0
 28 29  1  0  0  0  0
 28 32  1  6  0  0  0
 30 31  1  1  0  0  0
 30 34  1  0  0  0  0
 32 33  2  0  0  0  0
 34 35  1  6  0  0  0
M  END
>  <CHROM.1>
-142.58824547,-60.59023340,138.40674609,-61.82256629,173.02601947,-57.08310097
-171.02336474,-177.13047452,-171.60023736,-163.74084395,72.33863431,-78.02244873
-52.23258698,3.91083056,-11.23522926,30.60372059,1.57993001,0.61932665,2.86952022

>  <Name>
2f4t_lig

>  <RI>
0

>  <Rbt.Current_Directory>
/home/itssahil/PROJECTS/Mol_Feturizer/New_Systems/rnas/2f4t

>  <Rbt.Executable>
rbdock ($Id: //depot/dev/client3/rdock/2013.1/src/exe/rbdock.cxx#4 $)

>  <Rbt.Library>
libRbt.so (2013.1, Build901 2013/11/27)

>  <Rbt.Parameter_File>
/export/apps/rDock/src/rDock_2013.1_src/data/scripts/dock_solv.prm

>  <Rbt.Receptor>
prm/pocket_docking_6.prm

>  <SCORE>
-13.6461

>  <SCORE.INTER>
-8.23715

>  <SCORE.INTER.CONST>
1

>  <SCORE.INTER.POLAR>
-2.09073

>  <SCORE.INTER.ROT>
13

>  <SCORE.INTER.SOLV>
13.2824

>  <SCORE.INTER.VDW>
-15.2165

>  <SCORE.INTER.norm>
-0.235347

>  <SCORE.INTRA>
-5.40892

>  <SCORE.INTRA.DIHEDRAL>
-13.1115

>  <SCORE.INTRA.DIHEDRAL.0>
23.8882

>  <SCORE.INTRA.POLAR>
0

>  <SCORE.INTRA.POLAR.0>
0

>  <SCORE.INTRA.REPUL>
0.00878723

>  <SCORE.INTRA.REPUL.0>
0

>  <SCORE.INTRA.SOLV>
2.01013

>  <SCORE.INTRA.SOLV.lig_0>
-97.6888

>  <SCORE.INTRA.VDW>
0.0978447

>  <SCORE.INTRA.VDW.0>
-3.9206

>  <SCORE.INTRA.norm>
-0.154541

>  <SCORE.RESTR>
0

>  <SCORE.RESTR.CAVITY>
0

>  <SCORE.RESTR.norm>
0

>  <SCORE.SYSTEM>
0

>  <SCORE.SYSTEM.CONST>
0

>  <SCORE.SYSTEM.DIHEDRAL>
0

>  <SCORE.SYSTEM.SOLV>
0

>  <SCORE.SYSTEM.norm>
0

>  <SCORE.heavy>
35

>  <SCORE.norm>
-0.389888

>  <RMSD>
9.106

$$$$
2f4t_lig
 OpenBabel11021811433D
libRbt.so/2013.1/901 2013/11/27
 35 36  0  0  0  0  0  0  0  0999 V2000
    3.1032  -10.0447   33.8241 C   0  0  2  0  0  0  0  0  0  0  0  0
    4.3684   -9.5003   34.3245 O   0  0  0  0  0  0  0  0  0  0  0  0
    5.2918   -6.5757   31.2830 C   0  0  2  0  0  0  0  0  0  0  0  0
    5.9598   -5.4612   30.5941 N   0  0  0  0  0  0  0  0  0  0  0  0
    2.5669  -10.9794   34.9502 C   0  0  2  0  0  0  0  0  0  0  0  0
    2.4353  -10.2561   36.1932 N   0  0  0  0  0  0  0  0  0  0  0  0
    4.8989   -6.1257   32.7379 C   0  0  0  0  0  0  0  0  0  0  0  0
    7.4806   -5.0883   31.4108 C   0  0  0  0  0  0  0  0  0  0  0  0
    7.6595   -4.0174   30.3576 C   0  0  1  0  0  0  0  0  0  0  0  0
    8.7740   -3.0831   30.8341 C   0  0  0  0  0  0  0  0  0  0  0  0
    8.4571   -2.2557   32.0911 C   0  0  0  0  0  0  0  0  0  0  0  0
    9.6102   -1.3994   32.3843 N   0  0  0  0  0  0  0  0  0  0  0  0
    8.1125   -4.5717   29.1502 O   0  0  0  0  0  0  0  0  0  0  0  0
    6.4371   -8.7028   28.7604 C   0  0  0  0  0  0  0  0  0  0  0  0
    5.4511   -7.8172   28.0141 C   0  0  0  0  0  0  0  0  0  0  0  0
    3.5186  -12.2105   35.1262 C   0  0  1  0  0  0  0  0  0  0  0  0
    4.0403   -8.0554   28.3905 N   0  0  0  0  0  0  0  0  0  0  0  0
    3.0468  -13.0748   36.1414 O   0  0  0  0  0  0  0  0  0  0  0  0
    4.2045   -7.2513   33.5172 C   0  0  2  0  0  0  0  0  0  0  0  0
    3.8866   -6.8233   34.8758 N   0  0  0  0  0  0  0  0  0  0  0  0
    1.6104   -8.0788   27.8191 C   0  0  0  0  0  0  0  0  0  0  0  0
    1.1594   -8.8171   29.1204 N   0  0  0  0  0  0  0  0  0  0  0  0
    3.0480   -8.4543   27.3525 C   0  0  0  0  0  0  0  0  0  0  0  0
    7.9894   -5.4811   32.2629 O   0  0  0  0  0  0  0  0  0  0  0  0
    3.5993  -12.9443   33.7836 C   0  0  2  0  0  0  0  0  0  0  0  0
    4.4400  -14.0830   33.8767 O   0  0  0  0  0  0  0  0  0  0  0  0
    5.0885   -8.4718   33.5791 C   0  0  2  0  0  0  0  0  0  0  0  0
    4.1191  -11.9773   32.6810 C   0  0  2  0  0  0  0  0  0  0  0  0
    3.2737  -10.8135   32.5697 O   0  0  0  0  0  0  0  0  0  0  0  0
    5.4642   -8.9511   32.1115 C   0  0  2  0  0  0  0  0  0  0  0  0
    6.3127  -10.1340   32.2105 O   0  0  0  0  0  0  0  0  0  0  0  0
    4.1871  -12.6348   31.3543 C   0  0  0  0  0  0  0  0  0  0  0  0
    2.9380  -12.7816   30.8603 N   0  0  0  0  0  0  0  0  0  0  0  0
    6.2260   -7.7919   31.3797 C   0  0  1  0  0  0  0  0  0  0  0  0
    6.5946   -8.1914   30.0982 O   0  0  0  0  0  0  0  0  0  0  0  0
  1  2  1  1  0  0  0
  1  5  1  0  0  0  0
  1 29  1  0  0  0  0
  3  4  1  1  0  0  0
  3  7  1  0  0  0  0
  3 34  1  0  0  0  0
  5  6  1  1  0  0  0
  5 16  1  0  0  0  0
  7 19  1  0  0  0  0
  8  4  1  0  0  0  0
  8 24  2  0  0  0  0
  9  8  1  1  0  0  0
  9 10  1  0  0  0  0
  9 13  1  0  0  0  0
 10 11  1  0  0  0  0
 11 12  1  0  0  0  0
 14 15  1  0  0  0  0
 14 35  1  0  0  0  0
 15 17  1  0  0  0  0
 16 18  1  1  0  0  0
 16 25  1  0  0  0  0
 19 20  1  1  0  0  0
 19 27  1  0  0  0  0
 21 22  1  0  0  0  0
 21 23  1  0  0  0  0
 23 17  1  0  0  0  0
 25 26  1  1  0  0  0
 25 28  1  0  0  0  0
 27  2  1  6  0  0  0
 27 30  1  0  0  0  0
 28 29  1  0  0  0  0
 28 32  1  6  0  0  0
 30 31  1  1  0  0  0
 30 34  1  0  0  0  0
 32 33  2  0  0  0  0
 34 35  1  6  0  0  0
M  END
>  <CHROM.1>
-173.75981891,64.46951340,165.63192235,-66.46801110,-178.60187538,-76.50963790
58.71831201,-121.73745597,-62.41096562,-156.60918731,62.77365768,73.95203103
-64.76375071,5.02687489,-8.39037329,31.88732953,-2.57567259,-0.99033392,-1.28459520

>  <Name>
2f4t_lig

>  <RI>
0

>  <Rbt.Current_Directory>
/home/itssahil/PROJECTS/Mol_Feturizer/New_Systems/rnas/2f4t

>  <Rbt.Executable>
rbdock ($Id: //depot/dev/client3/rdock/2013.1/src/exe/rbdock.cxx#4 $)

>  <Rbt.Library>
libRbt.so (2013.1, Build901 2013/11/27)

>  <Rbt.Parameter_File>
/export/apps/rDock/src/rDock_2013.1_src/data/scripts/dock_solv.prm

>  <Rbt.Receptor>
prm/pocket_docking_6.prm

>  <SCORE>
-7.16582

>  <SCORE.INTER>
0.684576

>  <SCORE.INTER.CONST>
1

>  <SCORE.INTER.POLAR>
-0.8

>  <SCORE.INTER.ROT>
13

>  <SCORE.INTER.SOLV>
9.0542

>  <SCORE.INTER.VDW>
-12.1617

>  <SCORE.INTER.norm>
0.0195593

>  <SCORE.INTRA>
-7.85039

>  <SCORE.INTRA.DIHEDRAL>
-17.9794

>  <SCORE.INTRA.DIHEDRAL.0>
23.8882

>  <SCORE.INTRA.POLAR>
0

>  <SCORE.INTRA.POLAR.0>
0

>  <SCORE.INTRA.REPUL>
0

>  <SCORE.INTRA.REPUL.0>
0

>  <SCORE.INTRA.SOLV>
3.27565

>  <SCORE.INTRA.SOLV.lig_0>
-97.6888

>  <SCORE.INTRA.VDW>
-0.498509

>  <SCORE.INTRA.VDW.0>
-3.9206

>  <SCORE.INTRA.norm>
-0.224297

>  <SCORE.RESTR>
0

>  <SCORE.RESTR.CAVITY>
0

>  <SCORE.RESTR.norm>
0

>  <SCORE.SYSTEM>
0

>  <SCORE.SYSTEM.CONST>
0

>  <SCORE.SYSTEM.DIHEDRAL>
0

>  <SCORE.SYSTEM.SOLV>
0

>  <SCORE.SYSTEM.norm>
0

>  <SCORE.heavy>
35

>  <SCORE.norm>
-0.204738

>  <RMSD>
9.111

$$$$
2f4t_lig
 OpenBabel11021811433D
libRbt.so/2013.1/901 2013/11/27
 35 36  0  0  0  0  0  0  0  0999 V2000
    1.2470  -12.5390   31.6018 C   0  0  2  0  0  0  0  0  0  0  0  0
    2.1264  -11.4535   32.0442 O   0  0  0  0  0  0  0  0  0  0  0  0
    3.6849   -8.1413   29.7512 C   0  0  2  0  0  0  0  0  0  0  0  0
    4.5702   -7.3650   28.8702 N   0  0  0  0  0  0  0  0  0  0  0  0
    0.8394  -13.3099   32.8938 C   0  0  2  0  0  0  0  0  0  0  0  0
    0.2233  -12.4170   33.8470 N   0  0  0  0  0  0  0  0  0  0  0  0
    4.5391   -8.7985   30.8968 C   0  0  0  0  0  0  0  0  0  0  0  0
    4.4797   -5.6545   29.3004 C   0  0  0  0  0  0  0  0  0  0  0  0
    5.4843   -5.4328   28.1914 C   0  0  1  0  0  0  0  0  0  0  0  0
    5.6110   -3.9226   27.9786 C   0  0  0  0  0  0  0  0  0  0  0  0
    6.4336   -3.4896   26.7535 C   0  0  0  0  0  0  0  0  0  0  0  0
    6.4016   -2.0265   26.6682 N   0  0  0  0  0  0  0  0  0  0  0  0
    6.7601   -5.8755   28.5741 O   0  0  0  0  0  0  0  0  0  0  0  0
    1.9638   -8.0383   26.6782 C   0  0  0  0  0  0  0  0  0  0  0  0
    2.7979   -6.7687   26.6011 C   0  0  0  0  0  0  0  0  0  0  0  0
    2.0927  -14.0080   33.5217 C   0  0  1  0  0  0  0  0  0  0  0  0
    2.7255   -6.0926   25.2872 N   0  0  0  0  0  0  0  0  0  0  0  0
    1.7431  -14.7179   34.6940 O   0  0  0  0  0  0  0  0  0  0  0  0
    3.6727   -9.6349   31.8487 C   0  0  2  0  0  0  0  0  0  0  0  0
    4.4925  -10.2666   32.8779 N   0  0  0  0  0  0  0  0  0  0  0  0
    1.2388   -4.0918   25.4214 C   0  0  0  0  0  0  0  0  0  0  0  0
    0.7026   -4.2935   26.8752 N   0  0  0  0  0  0  0  0  0  0  0  0
    2.6947   -4.6043   25.2143 C   0  0  0  0  0  0  0  0  0  0  0  0
    3.9381   -5.0928   30.0286 O   0  0  0  0  0  0  0  0  0  0  0  0
    2.6857  -14.9535   32.4718 C   0  0  2  0  0  0  0  0  0  0  0  0
    3.8225  -15.6307   32.9825 O   0  0  0  0  0  0  0  0  0  0  0  0
    2.9315  -10.7033   31.0845 C   0  0  2  0  0  0  0  0  0  0  0  0
    3.0625  -14.1544   31.1910 C   0  0  2  0  0  0  0  0  0  0  0  0
    1.9165  -13.4607   30.6553 O   0  0  0  0  0  0  0  0  0  0  0  0
    2.0417  -10.0441   29.9450 C   0  0  2  0  0  0  0  0  0  0  0  0
    1.3365  -11.1044   29.2325 O   0  0  0  0  0  0  0  0  0  0  0  0
    3.6148  -15.0325   30.1324 C   0  0  0  0  0  0  0  0  0  0  0  0
    4.7621  -14.4989   29.6582 N   0  0  0  0  0  0  0  0  0  0  0  0
    2.9774   -9.2555   28.9643 C   0  0  1  0  0  0  0  0  0  0  0  0
    2.2295   -8.6884   27.9363 O   0  0  0  0  0  0  0  0  0  0  0  0
  1  2  1  1  0  0  0
  1  5  1  0  0  0  0
  1 29  1  0  0  0  0
  3  4  1  6  0  0  0
  3  7  1  0  0  0  0
  3 34  1  0  0  0  0
  5  6  1  1  0  0  0
  5 16  1  0  0  0  0
  7 19  1  0  0  0  0
  8  4  1  0  0  0  0
  8 24  2  0  0  0  0
  9  8  1  1  0  0  0
  9 10  1  0  0  0  0
  9 13  1  0  0  0  0
 10 11  1  0  0  0  0
 11 12  1  0  0  0  0
 14 15  1  0  0  0  0
 14 35  1  0  0  0  0
 15 17  1  0  0  0  0
 16 18  1  1  0  0  0
 16 25  1  0  0  0  0
 19 20  1  1  0  0  0
 19 27  1  0  0  0  0
 21 22  1  0  0  0  0
 21 23  1  0  0  0  0
 23 17  1  0  0  0  0
 25 26  1  1  0  0  0
 25 28  1  0  0  0  0
 27  2  1  1  0  0  0
 27 30  1  0  0  0  0
 28 29  1  0  0  0  0
 28 32  1  6  0  0  0
 30 31  1  6  0  0  0
 30 34  1  0  0  0  0
 32 33  2  0  0  0  0
 34 35  1  6  0  0  0
M  END
>  <CHROM.1>
166.51893384,-99.35921228,170.84662599,-171.47536380,177.50108003,173.47163626
-52.82639022,141.92349023,69.27281901,-83.44125532,177.82558885,-130.91563647
73.28411277,3.19165154,-9.31114947,29.73835485,1.75962067,0.54692434,2.51497160

>  <Name>
2f4t_lig

>  <RI>
0

>  <Rbt.Current_Directory>
/home/itssahil/PROJECTS/Mol_Feturizer/New_Systems/rnas/2f4t

>  <Rbt.Executable>
rbdock ($Id: //depot/dev/client3/rdock/2013.1/src/exe/rbdock.cxx#4 $)

>  <Rbt.Library>
libRbt.so (2013.1, Build901 2013/11/27)

>  <Rbt.Parameter_File>
/export/apps/rDock/src/rDock_2013.1_src/data/scripts/dock_solv.prm

>  <Rbt.Receptor>
prm/pocket_docking_7.prm

>  <SCORE>
-15.2814

>  <SCORE.INTER>
-7.04049

>  <SCORE.INTER.CONST>
1

>  <SCORE.INTER.POLAR>
-2.60981

>  <SCORE.INTER.ROT>
13

>  <SCORE.INTER.SOLV>
7.95166

>  <SCORE.INTER.VDW>
-10.9115

>  <SCORE.INTER.norm>
-0.201157

>  <SCORE.INTRA>
-8.24092

>  <SCORE.INTRA.DIHEDRAL>
-17.227

>  <SCORE.INTRA.DIHEDRAL.0>
23.8882

>  <SCORE.INTRA.POLAR>
0

>  <SCORE.INTRA.POLAR.0>
0

>  <SCORE.INTRA.REPUL>
0

>  <SCORE.INTRA.REPUL.0>
0

>  <SCORE.INTRA.SOLV>
1.75166

>  <SCORE.INTRA.SOLV.lig_0>
-97.6888

>  <SCORE.INTRA.VDW>
-0.503272

>  <SCORE.INTRA.VDW.0>
-3.9206

>  <SCORE.INTRA.norm>
-0.235455

>  <SCORE.RESTR>
0

>  <SCORE.RESTR.CAVITY>
0

>  <SCORE.RESTR.norm>
0

>  <SCORE.SYSTEM>
0

>  <SCORE.SYSTEM.CONST>
0

>  <SCORE.SYSTEM.DIHEDRAL>
0

>  <SCORE.SYSTEM.SOLV>
0

>  <SCORE.SYSTEM.norm>
0

>  <SCORE.heavy>
35

>  <SCORE.norm>
-0.436612

>  <RMSD>
9.128

$$$$
2f4t_lig
 OpenBabel11021811433D
libRbt.so/2013.1/901 2013/11/27
 35 36  0  0  0  0  0  0  0  0999 V2000
    3.2145  -12.2777   33.6637 C   0  0  2  0  0  0  0  0  0  0  0  0
    4.1881  -11.1875   33.7673 O   0  0  0  0  0  0  0  0  0  0  0  0
    2.6354   -8.3624   30.8924 C   0  0  2  0  0  0  0  0  0  0  0  0
    2.3742   -7.0856   30.2111 N   0  0  0  0  0  0  0  0  0  0  0  0
    3.7711  -13.4313   34.5521 C   0  0  2  0  0  0  0  0  0  0  0  0
    3.9872  -12.9739   35.9047 N   0  0  0  0  0  0  0  0  0  0  0  0
    2.3155   -8.2080   32.4245 C   0  0  0  0  0  0  0  0  0  0  0  0
    3.4102   -5.8288   30.8939 C   0  0  0  0  0  0  0  0  0  0  0  0
    2.7563   -4.8981   29.8967 C   0  0  1  0  0  0  0  0  0  0  0  0
    1.5514   -4.2549   30.5870 C   0  0  0  0  0  0  0  0  0  0  0  0
    0.6071   -3.4577   29.6717 C   0  0  0  0  0  0  0  0  0  0  0  0
    1.3588   -2.3410   29.0913 N   0  0  0  0  0  0  0  0  0  0  0  0
    3.6155   -3.8408   29.5591 O   0  0  0  0  0  0  0  0  0  0  0  0
    5.2021   -8.8493   28.1800 C   0  0  0  0  0  0  0  0  0  0  0  0
    5.3290   -7.4003   27.7354 C   0  0  0  0  0  0  0  0  0  0  0  0
    5.0998  -13.9891   33.9391 C   0  0  1  0  0  0  0  0  0  0  0  0
    4.2956   -6.9885   26.7601 N   0  0  0  0  0  0  0  0  0  0  0  0
    5.6195  -15.0413   34.7286 O   0  0  0  0  0  0  0  0  0  0  0  0
    2.5785   -9.5076   33.1979 C   0  0  2  0  0  0  0  0  0  0  0  0
    2.3136   -9.3278   34.6219 N   0  0  0  0  0  0  0  0  0  0  0  0
    1.9372   -7.2482   25.9843 C   0  0  0  0  0  0  0  0  0  0  0  0
    2.1854   -6.3743   24.7129 N   0  0  0  0  0  0  0  0  0  0  0  0
    2.8688   -6.8923   27.1804 C   0  0  0  0  0  0  0  0  0  0  0  0
    4.1477   -5.8029   31.6650 O   0  0  0  0  0  0  0  0  0  0  0  0
    4.7997  -14.4752   32.5174 C   0  0  2  0  0  0  0  0  0  0  0  0
    5.9639  -15.0070   31.9061 O   0  0  0  0  0  0  0  0  0  0  0  0
    4.0090   -9.9491   33.0147 C   0  0  2  0  0  0  0  0  0  0  0  0
    4.2288  -13.3046   31.6661 C   0  0  2  0  0  0  0  0  0  0  0  0
    3.0412  -12.7526   32.2716 O   0  0  0  0  0  0  0  0  0  0  0  0
    4.3306  -10.1375   31.4700 C   0  0  2  0  0  0  0  0  0  0  0  0
    5.7175  -10.5695   31.3320 O   0  0  0  0  0  0  0  0  0  0  0  0
    3.8947  -13.7337   30.2872 C   0  0  0  0  0  0  0  0  0  0  0  0
    3.8550  -12.6532   29.4768 N   0  0  0  0  0  0  0  0  0  0  0  0
    4.1088   -8.7695   30.7361 C   0  0  1  0  0  0  0  0  0  0  0  0
    4.4101   -8.8945   29.3828 O   0  0  0  0  0  0  0  0  0  0  0  0
  1  2  1  6  0  0  0
  1  5  1  0  0  0  0
  1 29  1  0  0  0  0
  3  4  1  6  0  0  0
  3  7  1  0  0  0  0
  3 34  1  0  0  0  0
  5  6  1  1  0  0  0
  5 16  1  0  0  0  0
  7 19  1  0  0  0  0
  8  4  1  0  0  0  0
  8 24  2  0  0  0  0
  9  8  1  1  0  0  0
  9 10  1  0  0  0  0
  9 13  1  0  0  0  0
 10 11  1  0  0  0  0
 11 12  1  0  0  0  0
 14 15  1  0  0  0  0
 14 35  1  0  0  0  0
 15 17  1  0  0  0  0
 16 18  1  1  0  0  0
 16 25  1  0  0  0  0
 19 20  1  1  0  0  0
 19 27  1  0  0  0  0
 21 22  1  0  0  0  0
 21 23  1  0  0  0  0
 23 17  1  0  0  0  0
 25 26  1  6  0  0  0
 25 28  1  0  0  0  0
 27  2  1  1  0  0  0
 27 30  1  0  0  0  0
 28 29  1  0  0  0  0
 28 32  1  6  0  0  0
 30 31  1  1  0  0  0
 30 34  1  0  0  0  0
 32 33  2  0  0  0  0
 34 35  1  6  0  0  0
M  END
>  <CHROM.1>
177.76656173,60.53447027,91.98167556,-169.90933577,-62.20648311,-93.11644486
-76.94991931,67.71406110,-55.89186986,-147.95861766,46.93258300,-158.91566159
147.55313153,3.62015699,-9.31487532,30.96702218,0.93486401,-1.23306332,2.01050885

>  <Name>
2f4t_lig

>  <RI>
0

>  <Rbt.Current_Directory>
/home/itssahil/PROJECTS/Mol_Feturizer/New_Systems/rnas/2f4t

>  <Rbt.Executable>
rbdock ($Id: //depot/dev/client3/rdock/2013.1/src/exe/rbdock.cxx#4 $)

>  <Rbt.Library>
libRbt.so (2013.1, Build901 2013/11/27)

>  <Rbt.Parameter_File>
/export/apps/rDock/src/rDock_2013.1_src/data/scripts/dock_solv.prm

>  <Rbt.Receptor>
prm/pocket_docking_4.prm

>  <SCORE>
-4.89211

>  <SCORE.INTER>
-0.805042

>  <SCORE.INTER.CONST>
1

>  <SCORE.INTER.POLAR>
-1.73808

>  <SCORE.INTER.ROT>
13

>  <SCORE.INTER.SOLV>
15.5926

>  <SCORE.INTER.VDW>
-12.2073

>  <SCORE.INTER.norm>
-0.0230012

>  <SCORE.INTRA>
-4.09482

>  <SCORE.INTRA.DIHEDRAL>
-9.97335

>  <SCORE.INTRA.DIHEDRAL.0>
23.8882

>  <SCORE.INTRA.POLAR>
0

>  <SCORE.INTRA.POLAR.0>
0

>  <SCORE.INTRA.REPUL>
0

>  <SCORE.INTRA.REPUL.0>
0

>  <SCORE.INTRA.SOLV>
4.93805

>  <SCORE.INTRA.SOLV.lig_0>
-97.6888

>  <SCORE.INTRA.VDW>
-1.57716

>  <SCORE.INTRA.VDW.0>
-3.9206

>  <SCORE.INTRA.norm>
-0.116995

>  <SCORE.RESTR>
0.00774591

>  <SCORE.RESTR.CAVITY>
0.00774591

>  <SCORE.RESTR.norm>
0.000221312

>  <SCORE.SYSTEM>
0

>  <SCORE.SYSTEM.CONST>
0

>  <SCORE.SYSTEM.DIHEDRAL>
0

>  <SCORE.SYSTEM.SOLV>
0

>  <SCORE.SYSTEM.norm>
0

>  <SCORE.heavy>
35

>  <SCORE.norm>
-0.139775

>  <RMSD>
9.131

$$$$
2f4t_lig
 OpenBabel11021811433D
libRbt.so/2013.1/901 2013/11/27
 35 36  0  0  0  0  0  0  0  0999 V2000
    1.9864  -13.3596   29.6262 C   0  0  2  0  0  0  0  0  0  0  0  0
    2.7179  -12.2712   30.2801 O   0  0  0  0  0  0  0  0  0  0  0  0
    4.1884   -8.4979   28.7777 C   0  0  2  0  0  0  0  0  0  0  0  0
    5.0403   -7.5276   28.0739 N   0  0  0  0  0  0  0  0  0  0  0  0
    1.2540  -14.1267   30.7685 C   0  0  2  0  0  0  0  0  0  0  0  0
    0.4086  -13.2315   31.5230 N   0  0  0  0  0  0  0  0  0  0  0  0
    5.0841   -9.3973   29.7063 C   0  0  0  0  0  0  0  0  0  0  0  0
    5.2829   -6.1059   29.0930 C   0  0  0  0  0  0  0  0  0  0  0  0
    6.1306   -5.5710   27.9601 C   0  0  1  0  0  0  0  0  0  0  0  0
    6.1409   -4.0449   28.0720 C   0  0  0  0  0  0  0  0  0  0  0  0
    4.8296   -3.3401   27.6863 C   0  0  0  0  0  0  0  0  0  0  0  0
    5.0635   -1.8929   27.6902 N   0  0  0  0  0  0  0  0  0  0  0  0
    7.4674   -5.9758   28.0993 O   0  0  0  0  0  0  0  0  0  0  0  0
    2.3595   -7.6659   25.9000 C   0  0  0  0  0  0  0  0  0  0  0  0
    3.1485   -6.3914   26.1581 C   0  0  0  0  0  0  0  0  0  0  0  0
    2.2987  -14.8207   31.7062 C   0  0  1  0  0  0  0  0  0  0  0  0
    2.9723   -5.3641   25.1082 N   0  0  0  0  0  0  0  0  0  0  0  0
    1.6537  -15.5271   32.7481 O   0  0  0  0  0  0  0  0  0  0  0  0
    4.2537  -10.4425   30.4644 C   0  0  2  0  0  0  0  0  0  0  0  0
    5.1109  -11.2902   31.2871 N   0  0  0  0  0  0  0  0  0  0  0  0
    0.5047   -5.0909   24.8479 C   0  0  0  0  0  0  0  0  0  0  0  0
    0.5185   -5.8175   23.4645 N   0  0  0  0  0  0  0  0  0  0  0  0
    1.8493   -4.3884   25.1996 C   0  0  0  0  0  0  0  0  0  0  0  0
    4.9514   -5.8155   30.0651 O   0  0  0  0  0  0  0  0  0  0  0  0
    3.1473  -15.7688   30.8526 C   0  0  2  0  0  0  0  0  0  0  0  0
    4.1103  -16.4426   31.6466 O   0  0  0  0  0  0  0  0  0  0  0  0
    3.4870  -11.3087   29.4965 C   0  0  2  0  0  0  0  0  0  0  0  0
    3.8469  -14.9735   29.7129 C   0  0  2  0  0  0  0  0  0  0  0  0
    2.8816  -14.2834   28.8922 O   0  0  0  0  0  0  0  0  0  0  0  0
    2.5558  -10.4090   28.5754 C   0  0  2  0  0  0  0  0  0  0  0  0
    1.8270  -11.2791   27.6584 O   0  0  0  0  0  0  0  0  0  0  0  0
    4.6586  -15.8545   28.8399 C   0  0  0  0  0  0  0  0  0  0  0  0
    3.8400  -16.5784   28.0452 N   0  0  0  0  0  0  0  0  0  0  0  0
    3.4546   -9.4029   27.7759 C   0  0  1  0  0  0  0  0  0  0  0  0
    2.6694   -8.6175   26.9366 O   0  0  0  0  0  0  0  0  0  0  0  0
  1  2  1  1  0  0  0
  1  5  1  0  0  0  0
  1 29  1  0  0  0  0
  3  4  1  6  0  0  0
  3  7  1  0  0  0  0
  3 34  1  0  0  0  0
  5  6  1  1  0  0  0
  5 16  1  0  0  0  0
  7 19  1  0  0  0  0
  8  4  1  0  0  0  0
  8 24  2  0  0  0  0
  9  8  1  1  0  0  0
  9 10  1  0  0  0  0
  9 13  1  0  0  0  0
 10 11  1  0  0  0  0
 11 12  1  0  0  0  0
 14 15  1  0  0  0  0
 14 35  1  0  0  0  0
 15 17  1  0  0  0  0
 16 18  1  1  0  0  0
 16 25  1  0  0  0  0
 19 20  1  6  0  0  0
 19 27  1  0  0  0  0
 21 22  1  0  0  0  0
 21 23  1  0  0  0  0
 23 17  1  0  0  0  0
 25 26  1  1  0  0  0
 25 28  1  0  0  0  0
 27  2  1  1  0  0  0
 27 30  1  0  0  0  0
 28 29  1  0  0  0  0
 28 32  1  6  0  0  0
 30 31  1  6  0  0  0
 30 34  1  0  0  0  0
 32 33  2  0  0  0  0
 34 35  1  6  0  0  0
M  END
>  <CHROM.1>
-177.74450880,-85.55598494,155.77790986,-72.49241142,-173.09394623,176.56098804
-51.79990185,87.69052408,-54.27160274,-74.23156779,-172.75605763,74.07204221
69.48709795,3.47243546,-9.80403903,28.65459701,1.70227205,0.69551042,2.69674852

>  <Name>
2f4t_lig

>  <RI>
0

>  <Rbt.Current_Directory>
/home/itssahil/PROJECTS/Mol_Feturizer/New_Systems/rnas/2f4t

>  <Rbt.Executable>
rbdock ($Id: //depot/dev/client3/rdock/2013.1/src/exe/rbdock.cxx#4 $)

>  <Rbt.Library>
libRbt.so (2013.1, Build901 2013/11/27)

>  <Rbt.Parameter_File>
/export/apps/rDock/src/rDock_2013.1_src/data/scripts/dock_solv.prm

>  <Rbt.Receptor>
prm/pocket_docking_4.prm

>  <SCORE>
-17.0686

>  <SCORE.INTER>
-9.11825

>  <SCORE.INTER.CONST>
1

>  <SCORE.INTER.POLAR>
-0.938083

>  <SCORE.INTER.ROT>
13

>  <SCORE.INTER.SOLV>
15.2227

>  <SCORE.INTER.VDW>
-20.2928

>  <SCORE.INTER.norm>
-0.260521

>  <SCORE.INTRA>
-7.95039

>  <SCORE.INTRA.DIHEDRAL>
-17.6581

>  <SCORE.INTRA.DIHEDRAL.0>
23.8882

>  <SCORE.INTRA.POLAR>
0

>  <SCORE.INTRA.POLAR.0>
0

>  <SCORE.INTRA.REPUL>
0

>  <SCORE.INTRA.REPUL.0>
0

>  <SCORE.INTRA.SOLV>
2.13623

>  <SCORE.INTRA.SOLV.lig_0>
-97.6888

>  <SCORE.INTRA.VDW>
-0.189452

>  <SCORE.INTRA.VDW.0>
-3.9206

>  <SCORE.INTRA.norm>
-0.227154

>  <SCORE.RESTR>
0

>  <SCORE.RESTR.CAVITY>
0

>  <SCORE.RESTR.norm>
0

>  <SCORE.SYSTEM>
0

>  <SCORE.SYSTEM.CONST>
0

>  <SCORE.SYSTEM.DIHEDRAL>
0

>  <SCORE.SYSTEM.SOLV>
0

>  <SCORE.SYSTEM.norm>
0

>  <SCORE.heavy>
35

>  <SCORE.norm>
-0.487675

>  <RMSD>
9.146

$$$$
2f4t_lig
 OpenBabel11021811433D
libRbt.so/2013.1/901 2013/11/27
 35 36  0  0  0  0  0  0  0  0999 V2000
    3.2974   -8.6012   30.9065 C   0  0  2  0  0  0  0  0  0  0  0  0
    4.6801   -8.1162   30.9159 O   0  0  0  0  0  0  0  0  0  0  0  0
    7.0298   -5.9852   27.9842 C   0  0  2  0  0  0  0  0  0  0  0  0
    7.8252   -5.7231   26.7753 N   0  0  0  0  0  0  0  0  0  0  0  0
    2.8745   -8.7107   32.4028 C   0  0  2  0  0  0  0  0  0  0  0  0
    3.0391   -7.4422   33.0730 N   0  0  0  0  0  0  0  0  0  0  0  0
    7.6209   -7.2352   28.7336 C   0  0  0  0  0  0  0  0  0  0  0  0
    8.9824   -4.4288   27.0986 C   0  0  0  0  0  0  0  0  0  0  0  0
    9.4344   -4.6214   25.6680 C   0  0  1  0  0  0  0  0  0  0  0  0
    8.8398   -3.4810   24.8386 C   0  0  0  0  0  0  0  0  0  0  0  0
    7.3385   -3.5977   24.5261 C   0  0  0  0  0  0  0  0  0  0  0  0
    7.1274   -4.7983   23.7118 N   0  0  0  0  0  0  0  0  0  0  0  0
   10.8277   -4.4894   25.5599 O   0  0  0  0  0  0  0  0  0  0  0  0
    4.0298   -4.2804   26.4413 C   0  0  0  0  0  0  0  0  0  0  0  0
    2.9530   -5.0909   25.7362 C   0  0  0  0  0  0  0  0  0  0  0  0
    3.7105   -9.8253   33.1178 C   0  0  1  0  0  0  0  0  0  0  0  0
    1.8145   -4.2744   25.2611 N   0  0  0  0  0  0  0  0  0  0  0  0
    3.3384   -9.9443   34.4771 O   0  0  0  0  0  0  0  0  0  0  0  0
    6.8263   -7.5697   30.0036 C   0  0  2  0  0  0  0  0  0  0  0  0
    7.3684   -8.7559   30.6586 N   0  0  0  0  0  0  0  0  0  0  0  0
   -0.4862   -4.0350   24.3226 C   0  0  0  0  0  0  0  0  0  0  0  0
   -1.5427   -4.5127   23.2749 N   0  0  0  0  0  0  0  0  0  0  0  0
    0.8441   -4.8439   24.2837 C   0  0  0  0  0  0  0  0  0  0  0  0
    9.2104   -3.8222   27.9467 O   0  0  0  0  0  0  0  0  0  0  0  0
    3.4773  -11.1446   32.3744 C   0  0  2  0  0  0  0  0  0  0  0  0
    4.1994  -12.2041   32.9810 O   0  0  0  0  0  0  0  0  0  0  0  0
    5.3756   -7.8113   29.6687 C   0  0  2  0  0  0  0  0  0  0  0  0
    3.8914  -10.9929   30.8822 C   0  0  2  0  0  0  0  0  0  0  0  0
    3.1641   -9.9208   30.2474 O   0  0  0  0  0  0  0  0  0  0  0  0
    4.7628   -6.5398   28.9389 C   0  0  2  0  0  0  0  0  0  0  0  0
    3.3605   -6.8069   28.6365 O   0  0  0  0  0  0  0  0  0  0  0  0
    3.6565  -12.2377   30.1126 C   0  0  0  0  0  0  0  0  0  0  0  0
    4.7704  -13.0019   30.1419 N   0  0  0  0  0  0  0  0  0  0  0  0
    5.5664   -6.2778   27.6180 C   0  0  1  0  0  0  0  0  0  0  0  0
    5.0349   -5.1846   26.9396 O   0  0  0  0  0  0  0  0  0  0  0  0
  1  2  1  1  0  0  0
  1  5  1  0  0  0  0
  1 29  1  0  0  0  0
  3  4  1  6  0  0  0
  3  7  1  0  0  0  0
  3 34  1  0  0  0  0
  5  6  1  1  0  0  0
  5 16  1  0  0  0  0
  7 19  1  0  0  0  0
  8  4  1  0  0  0  0
  8 24  2  0  0  0  0
  9  8  1  1  0  0  0
  9 10  1  0  0  0  0
  9 13  1  0  0  0  0
 10 11  1  0  0  0  0
 11 12  1  0  0  0  0
 14 15  1  0  0  0  0
 14 35  1  0  0  0  0
 15 17  1  0  0  0  0
 16 18  1  1  0  0  0
 16 25  1  0  0  0  0
 19 20  1  6  0  0  0
 19 27  1  0  0  0  0
 21 22  1  0  0  0  0
 21 23  1  0  0  0  0
 23 17  1  0  0  0  0
 25 26  1  1  0  0  0
 25 28  1  0  0  0  0
 27  2  1  1  0  0  0
 27 30  1  0  0  0  0
 28 29  1  0  0  0  0
 28 32  1  6  0  0  0
 30 31  1  6  0  0  0
 30 34  1  0  0  0  0
 32 33  2  0  0  0  0
 34 35  1  1  0  0  0
M  END
>  <CHROM.1>
-175.97078820,-98.96261944,102.97982947,-75.13978541,-62.87963673,176.01956904
-51.79158106,165.57350121,176.96704448,160.11313871,-170.51394351,-91.24056572
-155.57631657,4.97781017,-7.03237586,28.47334635,1.80966954,0.11805077,2.27344090

>  <Name>
2f4t_lig

>  <RI>
0

>  <Rbt.Current_Directory>
/home/itssahil/PROJECTS/Mol_Feturizer/New_Systems/rnas/2f4t

>  <Rbt.Executable>
rbdock ($Id: //depot/dev/client3/rdock/2013.1/src/exe/rbdock.cxx#4 $)

>  <Rbt.Library>
libRbt.so (2013.1, Build901 2013/11/27)

>  <Rbt.Parameter_File>
/export/apps/rDock/src/rDock_2013.1_src/data/scripts/dock_solv.prm

>  <Rbt.Receptor>
prm/pocket_docking_8.prm

>  <SCORE>
-16.4994

>  <SCORE.INTER>
-8.9005

>  <SCORE.INTER.CONST>
1

>  <SCORE.INTER.POLAR>
-2.72093

>  <SCORE.INTER.ROT>
13

>  <SCORE.INTER.SOLV>
18.8183

>  <SCORE.INTER.VDW>
-15.4033

>  <SCORE.INTER.norm>
-0.2543

>  <SCORE.INTRA>
-7.5989

>  <SCORE.INTRA.DIHEDRAL>
-14.8661

>  <SCORE.INTRA.DIHEDRAL.0>
23.8882

>  <SCORE.INTRA.POLAR>
0

>  <SCORE.INTRA.POLAR.0>
0

>  <SCORE.INTRA.REPUL>
0

>  <SCORE.INTRA.REPUL.0>
0

>  <SCORE.INTRA.SOLV>
1.63287

>  <SCORE.INTRA.SOLV.lig_0>
-97.6888

>  <SCORE.INTRA.VDW>
-0.982264

>  <SCORE.INTRA.VDW.0>
-3.9206

>  <SCORE.INTRA.norm>
-0.217111

>  <SCORE.RESTR>
0

>  <SCORE.RESTR.CAVITY>
0

>  <SCORE.RESTR.norm>
0

>  <SCORE.SYSTEM>
0

>  <SCORE.SYSTEM.CONST>
0

>  <SCORE.SYSTEM.DIHEDRAL>
0

>  <SCORE.SYSTEM.SOLV>
0

>  <SCORE.SYSTEM.norm>
0

>  <SCORE.heavy>
35

>  <SCORE.norm>
-0.471411

>  <RMSD>
9.161

$$$$
2f4t_lig
 OpenBabel11021811433D
libRbt.so/2013.1/901 2013/11/27
 35 36  0  0  0  0  0  0  0  0999 V2000
    1.7949  -13.3383   29.5474 C   0  0  2  0  0  0  0  0  0  0  0  0
    2.6285  -12.3857   30.2856 O   0  0  0  0  0  0  0  0  0  0  0  0
    4.7013   -8.7753   29.1344 C   0  0  2  0  0  0  0  0  0  0  0  0
    5.6987   -7.8929   28.5104 N   0  0  0  0  0  0  0  0  0  0  0  0
    0.9120  -14.0494   30.6171 C   0  0  2  0  0  0  0  0  0  0  0  0
    0.1538  -13.0829   31.3764 N   0  0  0  0  0  0  0  0  0  0  0  0
    5.4403   -9.9028   29.9443 C   0  0  0  0  0  0  0  0  0  0  0  0
    6.4074   -6.8406   29.7389 C   0  0  0  0  0  0  0  0  0  0  0  0
    7.2429   -6.2698   28.6145 C   0  0  1  0  0  0  0  0  0  0  0  0
    6.4403   -5.1357   27.9730 C   0  0  0  0  0  0  0  0  0  0  0  0
    6.9840   -4.6101   26.6339 C   0  0  0  0  0  0  0  0  0  0  0  0
    6.1356   -3.4982   26.1944 N   0  0  0  0  0  0  0  0  0  0  0  0
    8.4151   -5.6783   29.1107 O   0  0  0  0  0  0  0  0  0  0  0  0
    2.3071   -7.3224   27.0723 C   0  0  0  0  0  0  0  0  0  0  0  0
    2.2169   -7.1133   25.5684 C   0  0  0  0  0  0  0  0  0  0  0  0
    1.8083  -14.9155   31.5651 C   0  0  1  0  0  0  0  0  0  0  0  0
    1.1193   -6.2084   25.1622 N   0  0  0  0  0  0  0  0  0  0  0  0
    1.0250  -15.5738   32.5415 O   0  0  0  0  0  0  0  0  0  0  0  0
    4.4520  -10.8678   30.6140 C   0  0  2  0  0  0  0  0  0  0  0  0
    5.1608  -11.9273   31.3248 N   0  0  0  0  0  0  0  0  0  0  0  0
    0.1017   -3.9826   24.6708 C   0  0  0  0  0  0  0  0  0  0  0  0
   -0.9421   -4.5632   23.6632 N   0  0  0  0  0  0  0  0  0  0  0  0
    1.4201   -4.8076   24.7515 C   0  0  0  0  0  0  0  0  0  0  0  0
    6.2657   -6.7139   30.7892 O   0  0  0  0  0  0  0  0  0  0  0  0
    2.5677  -15.9306   30.7045 C   0  0  2  0  0  0  0  0  0  0  0  0
    3.3932  -16.7597   31.5064 O   0  0  0  0  0  0  0  0  0  0  0  0
    3.5423  -11.4889   29.5837 C   0  0  2  0  0  0  0  0  0  0  0  0
    3.4219  -15.1873   29.6372 C   0  0  2  0  0  0  0  0  0  0  0  0
    2.5976  -14.3407   28.8094 O   0  0  0  0  0  0  0  0  0  0  0  0
    2.7684  -10.3559   28.7821 C   0  0  2  0  0  0  0  0  0  0  0  0
    1.8958  -10.9924   27.8010 O   0  0  0  0  0  0  0  0  0  0  0  0
    4.1544  -16.1302   28.7590 C   0  0  0  0  0  0  0  0  0  0  0  0
    5.0922  -16.7818   29.4812 N   0  0  0  0  0  0  0  0  0  0  0  0
    3.8172   -9.4363   28.0654 C   0  0  1  0  0  0  0  0  0  0  0  0
    3.1687   -8.4482   27.3300 O   0  0  0  0  0  0  0  0  0  0  0  0
  1  2  1  1  0  0  0
  1  5  1  0  0  0  0
  1 29  1  0  0  0  0
  3  4  1  6  0  0  0
  3  7  1  0  0  0  0
  3 34  1  0  0  0  0
  5  6  1  1  0  0  0
  5 16  1  0  0  0  0
  7 19  1  0  0  0  0
  8  4  1  0  0  0  0
  8 24  2  0  0  0  0
  9  8  1  1  0  0  0
  9 10  1  0  0  0  0
  9 13  1  0  0  0  0
 10 11  1  0  0  0  0
 11 12  1  0  0  0  0
 14 15  1  0  0  0  0
 14 35  1  0  0  0  0
 15 17  1  0  0  0  0
 16 18  1  1  0  0  0
 16 25  1  0  0  0  0
 19 20  1  6  0  0  0
 19 27  1  0  0  0  0
 21 22  1  0  0  0  0
 21 23  1  0  0  0  0
 23 17  1  0  0  0  0
 25 26  1  1  0  0  0
 25 28  1  0  0  0  0
 27  2  1  1  0  0  0
 27 30  1  0  0  0  0
 28 29  1  0  0  0  0
 28 32  1  6  0  0  0
 30 31  1  6  0  0  0
 30 34  1  0  0  0  0
 32 33  2  0  0  0  0
 34 35  1  1  0  0  0
M  END
>  <CHROM.1>
-176.92105891,-75.01541435,87.63657203,-168.08080867,-177.58937535,166.03046652
-172.74523993,103.82236053,-58.97472171,-167.87199128,-167.87317254,-67.08035170
-60.41270186,3.54694146,-10.03933440,28.74618707,1.70998928,0.43561950,2.68686940

>  <Name>
2f4t_lig

>  <RI>
0

>  <Rbt.Current_Directory>
/home/itssahil/PROJECTS/Mol_Feturizer/New_Systems/rnas/2f4t

>  <Rbt.Executable>
rbdock ($Id: //depot/dev/client3/rdock/2013.1/src/exe/rbdock.cxx#4 $)

>  <Rbt.Library>
libRbt.so (2013.1, Build901 2013/11/27)

>  <Rbt.Parameter_File>
/export/apps/rDock/src/rDock_2013.1_src/data/scripts/dock_solv.prm

>  <Rbt.Receptor>
prm/pocket_docking_6.prm

>  <SCORE>
-14.5243

>  <SCORE.INTER>
-6.0081

>  <SCORE.INTER.CONST>
1

>  <SCORE.INTER.POLAR>
-0.150786

>  <SCORE.INTER.ROT>
13

>  <SCORE.INTER.SOLV>
15.8402

>  <SCORE.INTER.VDW>
-21.0495

>  <SCORE.INTER.norm>
-0.17166

>  <SCORE.INTRA>
-8.51624

>  <SCORE.INTRA.DIHEDRAL>
-17.0391

>  <SCORE.INTRA.DIHEDRAL.0>
23.8882

>  <SCORE.INTRA.POLAR>
0

>  <SCORE.INTRA.POLAR.0>
0

>  <SCORE.INTRA.REPUL>
0

>  <SCORE.INTRA.REPUL.0>
0

>  <SCORE.INTRA.SOLV>
-0.466991

>  <SCORE.INTRA.SOLV.lig_0>
-97.6888

>  <SCORE.INTRA.VDW>
0.236804

>  <SCORE.INTRA.VDW.0>
-3.9206

>  <SCORE.INTRA.norm>
-0.243321

>  <SCORE.RESTR>
0

>  <SCORE.RESTR.CAVITY>
0

>  <SCORE.RESTR.norm>
0

>  <SCORE.SYSTEM>
0

>  <SCORE.SYSTEM.CONST>
0

>  <SCORE.SYSTEM.DIHEDRAL>
0

>  <SCORE.SYSTEM.SOLV>
0

>  <SCORE.SYSTEM.norm>
0

>  <SCORE.heavy>
35

>  <SCORE.norm>
-0.414981

>  <RMSD>
9.186

$$$$
2f4t_lig
 OpenBabel11021811433D
libRbt.so/2013.1/901 2013/11/27
 35 36  0  0  0  0  0  0  0  0999 V2000
    4.0133  -15.6208   29.9977 C   0  0  2  0  0  0  0  0  0  0  0  0
    2.9290  -15.0012   30.7643 O   0  0  0  0  0  0  0  0  0  0  0  0
    2.6834  -11.0462   29.0453 C   0  0  2  0  0  0  0  0  0  0  0  0
    2.2824   -9.6443   28.8543 N   0  0  0  0  0  0  0  0  0  0  0  0
    3.6997  -17.1475   29.9746 C   0  0  2  0  0  0  0  0  0  0  0  0
    2.3875  -17.3899   29.4223 N   0  0  0  0  0  0  0  0  0  0  0  0
    1.3968  -11.9379   29.1972 C   0  0  0  0  0  0  0  0  0  0  0  0
    1.3847   -9.0884   30.2699 C   0  0  0  0  0  0  0  0  0  0  0  0
    1.2835   -7.7612   29.5513 C   0  0  1  0  0  0  0  0  0  0  0  0
    0.1424   -6.9723   30.1975 C   0  0  0  0  0  0  0  0  0  0  0  0
    0.3410   -6.6063   31.6780 C   0  0  0  0  0  0  0  0  0  0  0  0
   -0.8350   -5.8577   32.1314 N   0  0  0  0  0  0  0  0  0  0  0  0
    2.4419   -6.9937   29.7495 O   0  0  0  0  0  0  0  0  0  0  0  0
    5.9435   -9.8215   30.5604 C   0  0  0  0  0  0  0  0  0  0  0  0
    5.8303   -9.2418   31.9621 C   0  0  0  0  0  0  0  0  0  0  0  0
    3.8085  -17.7410   31.4197 C   0  0  1  0  0  0  0  0  0  0  0  0
    7.1313   -8.8466   32.5451 N   0  0  0  0  0  0  0  0  0  0  0  0
    3.5320  -19.1280   31.4200 O   0  0  0  0  0  0  0  0  0  0  0  0
    1.7475  -13.4170   29.4110 C   0  0  2  0  0  0  0  0  0  0  0  0
    0.5399  -14.2169   29.5898 N   0  0  0  0  0  0  0  0  0  0  0  0
    7.1229   -6.6054   33.6443 C   0  0  0  0  0  0  0  0  0  0  0  0
    5.5676   -6.5280   33.7749 N   0  0  0  0  0  0  0  0  0  0  0  0
    7.6079   -7.4398   32.4221 C   0  0  0  0  0  0  0  0  0  0  0  0
    1.0822   -9.5382   31.1893 O   0  0  0  0  0  0  0  0  0  0  0  0
    5.2244  -17.4703   31.9391 C   0  0  2  0  0  0  0  0  0  0  0  0
    5.3954  -17.9957   33.2454 O   0  0  0  0  0  0  0  0  0  0  0  0
    2.6298  -13.5789   30.6236 C   0  0  2  0  0  0  0  0  0  0  0  0
    5.5092  -15.9406   31.9301 C   0  0  2  0  0  0  0  0  0  0  0  0
    5.3429  -15.3887   30.6074 O   0  0  0  0  0  0  0  0  0  0  0  0
    3.9470  -12.7048   30.4633 C   0  0  2  0  0  0  0  0  0  0  0  0
    4.7768  -12.8907   31.6490 O   0  0  0  0  0  0  0  0  0  0  0  0
    6.8808  -15.6295   32.3979 C   0  0  0  0  0  0  0  0  0  0  0  0
    6.9983  -15.9639   33.7017 N   0  0  0  0  0  0  0  0  0  0  0  0
    3.5395  -11.1980   30.3122 C   0  0  1  0  0  0  0  0  0  0  0  0
    4.6751  -10.4010   30.1978 O   0  0  0  0  0  0  0  0  0  0  0  0
  1  2  1  1  0  0  0
  1  5  1  0  0  0  0
  1 29  1  0  0  0  0
  3  4  1  1  0  0  0
  3  7  1  0  0  0  0
  3 34  1  0  0  0  0
  5  6  1  1  0  0  0
  5 16  1  0  0  0  0
  7 19  1  0  0  0  0
  8  4  1  0  0  0  0
  8 24  2  0  0  0  0
  9  8  1  1  0  0  0
  9 10  1  0  0  0  0
  9 13  1  0  0  0  0
 10 11  1  0  0  0  0
 11 12  1  0  0  0  0
 14 15  1  0  0  0  0
 14 35  1  0  0  0  0
 15 17  1  0  0  0  0
 16 18  1  6  0  0  0
 16 25  1  0  0  0  0
 19 20  1  1  0  0  0
 19 27  1  0  0  0  0
 21 22  1  0  0  0  0
 21 23  1  0  0  0  0
 23 17  1  0  0  0  0
 25 26  1  1  0  0  0
 25 28  1  0  0  0  0
 27  2  1  6  0  0  0
 27 30  1  0  0  0  0
 28 29  1  0  0  0  0
 28 32  1  6  0  0  0
 30 31  1  1  0  0  0
 30 34  1  0  0  0  0
 32 33  2  0  0  0  0
 34 35  1  6  0  0  0
M  END
>  <CHROM.1>
-159.06961862,61.44340378,161.33819157,63.18622391,179.90429082,169.12165115
-52.60440269,94.31854109,-61.11864742,90.53945464,83.17497117,-65.86760109
-176.93330953,3.69597474,-12.08430399,31.04017360,1.38812223,0.45761692,-3.06946142

>  <Name>
2f4t_lig

>  <RI>
0

>  <Rbt.Current_Directory>
/home/itssahil/PROJECTS/Mol_Feturizer/New_Systems/rnas/2f4t

>  <Rbt.Executable>
rbdock ($Id: //depot/dev/client3/rdock/2013.1/src/exe/rbdock.cxx#4 $)

>  <Rbt.Library>
libRbt.so (2013.1, Build901 2013/11/27)

>  <Rbt.Parameter_File>
/export/apps/rDock/src/rDock_2013.1_src/data/scripts/dock_solv.prm

>  <Rbt.Receptor>
prm/pocket_docking_6.prm

>  <SCORE>
-10.8234

>  <SCORE.INTER>
-6.2929

>  <SCORE.INTER.CONST>
1

>  <SCORE.INTER.POLAR>
-0.833277

>  <SCORE.INTER.ROT>
13

>  <SCORE.INTER.SOLV>
14.3766

>  <SCORE.INTER.VDW>
-18.4766

>  <SCORE.INTER.norm>
-0.179797

>  <SCORE.INTRA>
-4.53814

>  <SCORE.INTRA.DIHEDRAL>
-14.4568

>  <SCORE.INTRA.DIHEDRAL.0>
23.8882

>  <SCORE.INTRA.POLAR>
0

>  <SCORE.INTRA.POLAR.0>
0

>  <SCORE.INTRA.REPUL>
0

>  <SCORE.INTRA.REPUL.0>
0

>  <SCORE.INTRA.SOLV>
3.6299

>  <SCORE.INTRA.SOLV.lig_0>
-97.6888

>  <SCORE.INTRA.VDW>
0.875318

>  <SCORE.INTRA.VDW.0>
-3.9206

>  <SCORE.INTRA.norm>
-0.129661

>  <SCORE.RESTR>
0.00768443

>  <SCORE.RESTR.CAVITY>
0.00768443

>  <SCORE.RESTR.norm>
0.000219555

>  <SCORE.SYSTEM>
0

>  <SCORE.SYSTEM.CONST>
0

>  <SCORE.SYSTEM.DIHEDRAL>
0

>  <SCORE.SYSTEM.SOLV>
0

>  <SCORE.SYSTEM.norm>
0

>  <SCORE.heavy>
35

>  <SCORE.norm>
-0.309239

>  <RMSD>
9.192

$$$$
2f4t_lig
 OpenBabel11021811433D
libRbt.so/2013.1/901 2013/11/27
 35 36  0  0  0  0  0  0  0  0999 V2000
    7.6636   -7.3916   29.5050 C   0  0  2  0  0  0  0  0  0  0  0  0
    6.8616   -6.1790   29.3219 O   0  0  0  0  0  0  0  0  0  0  0  0
    2.7637   -5.8448   27.9979 C   0  0  2  0  0  0  0  0  0  0  0  0
    1.6069   -5.7298   27.0972 N   0  0  0  0  0  0  0  0  0  0  0  0
    7.5743   -7.7359   31.0226 C   0  0  2  0  0  0  0  0  0  0  0  0
    6.1973   -7.8848   31.4312 N   0  0  0  0  0  0  0  0  0  0  0  0
    3.8200   -4.7392   27.6298 C   0  0  0  0  0  0  0  0  0  0  0  0
    2.1418   -5.9048   25.4232 C   0  0  0  0  0  0  0  0  0  0  0  0
    0.6863   -5.7260   25.0521 C   0  0  1  0  0  0  0  0  0  0  0  0
    0.5485   -4.3647   24.3668 C   0  0  0  0  0  0  0  0  0  0  0  0
   -0.8897   -3.9208   24.0512 C   0  0  0  0  0  0  0  0  0  0  0  0
   -1.4356   -4.8153   23.0261 N   0  0  0  0  0  0  0  0  0  0  0  0
    0.2909   -6.6779   24.0993 O   0  0  0  0  0  0  0  0  0  0  0  0
    1.2745   -8.9724   28.0814 C   0  0  0  0  0  0  0  0  0  0  0  0
    1.3648  -10.1476   29.0427 C   0  0  0  0  0  0  0  0  0  0  0  0
    8.2842   -6.6257   31.8687 C   0  0  1  0  0  0  0  0  0  0  0  0
    2.4069  -11.1319   28.6769 N   0  0  0  0  0  0  0  0  0  0  0  0
    8.2186   -6.9219   33.2502 O   0  0  0  0  0  0  0  0  0  0  0  0
    5.0616   -4.8118   28.5296 C   0  0  2  0  0  0  0  0  0  0  0  0
    6.0435   -3.8035   28.1428 N   0  0  0  0  0  0  0  0  0  0  0  0
    1.6076  -13.3589   29.4724 C   0  0  0  0  0  0  0  0  0  0  0  0
    2.7237  -13.4684   30.5607 N   0  0  0  0  0  0  0  0  0  0  0  0
    2.0183  -12.5023   28.2384 C   0  0  0  0  0  0  0  0  0  0  0  0
    3.0857   -6.0639   24.9510 O   0  0  0  0  0  0  0  0  0  0  0  0
    9.7409   -6.5319   31.4029 C   0  0  2  0  0  0  0  0  0  0  0  0
   10.4479   -5.5485   32.1410 O   0  0  0  0  0  0  0  0  0  0  0  0
    5.6965   -6.1771   28.4417 C   0  0  2  0  0  0  0  0  0  0  0  0
    9.7915   -6.2067   29.8821 C   0  0  2  0  0  0  0  0  0  0  0  0
    9.0792   -7.1992   29.1144 O   0  0  0  0  0  0  0  0  0  0  0  0
    4.6437   -7.2976   28.8427 C   0  0  2  0  0  0  0  0  0  0  0  0
    5.2931   -8.6011   28.7521 O   0  0  0  0  0  0  0  0  0  0  0  0
   11.1830   -6.1344   29.3769 C   0  0  0  0  0  0  0  0  0  0  0  0
   11.9607   -6.9901   30.0759 N   0  0  0  0  0  0  0  0  0  0  0  0
    3.4260   -7.2242   27.8572 C   0  0  1  0  0  0  0  0  0  0  0  0
    2.4967   -8.2138   28.1651 O   0  0  0  0  0  0  0  0  0  0  0  0
  1  2  1  1  0  0  0
  1  5  1  0  0  0  0
  1 29  1  0  0  0  0
  3  4  1  6  0  0  0
  3  7  1  0  0  0  0
  3 34  1  0  0  0  0
  5  6  1  1  0  0  0
  5 16  1  0  0  0  0
  7 19  1  0  0  0  0
  8  4  1  0  0  0  0
  8 24  2  0  0  0  0
  9  8  1  6  0  0  0
  9 10  1  0  0  0  0
  9 13  1  0  0  0  0
 10 11  1  0  0  0  0
 11 12  1  0  0  0  0
 14 15  1  0  0  0  0
 14 35  1  0  0  0  0
 15 17  1  0  0  0  0
 16 18  1  1  0  0  0
 16 25  1  0  0  0  0
 19 20  1  6  0  0  0
 19 27  1  0  0  0  0
 21 22  1  0  0  0  0
 21 23  1  0  0  0  0
 23 17  1  0  0  0  0
 25 26  1  1  0  0  0
 25 28  1  0  0  0  0
 27  2  1  1  0  0  0
 27 30  1  0  0  0  0
 28 29  1  0  0  0  0
 28 32  1  6  0  0  0
 30 31  1  6  0  0  0
 30 34  1  0  0  0  0
 32 33  2  0  0  0  0
 34 35  1  1  0  0  0
M  END
>  <CHROM.1>
-119.08404009,58.41326724,110.32442797,-173.37831653,-67.10343458,-65.46204910
175.90161564,-112.91457460,-57.37678350,-76.73211082,177.20420656,31.72761835
56.60006793,4.67877952,-7.18133405,28.42957529,-0.25509996,-0.49068313,-0.50269722

>  <Name>
2f4t_lig

>  <RI>
0

>  <Rbt.Current_Directory>
/home/itssahil/PROJECTS/Mol_Feturizer/New_Systems/rnas/2f4t

>  <Rbt.Executable>
rbdock ($Id: //depot/dev/client3/rdock/2013.1/src/exe/rbdock.cxx#4 $)

>  <Rbt.Library>
libRbt.so (2013.1, Build901 2013/11/27)

>  <Rbt.Parameter_File>
/export/apps/rDock/src/rDock_2013.1_src/data/scripts/dock_solv.prm

>  <Rbt.Receptor>
prm/pocket_docking_8.prm

>  <SCORE>
-16.6452

>  <SCORE.INTER>
-15.0168

>  <SCORE.INTER.CONST>
1

>  <SCORE.INTER.POLAR>
-0.928044

>  <SCORE.INTER.ROT>
13

>  <SCORE.INTER.SOLV>
13.152

>  <SCORE.INTER.VDW>
-23.5684

>  <SCORE.INTER.norm>
-0.42905

>  <SCORE.INTRA>
-1.62842

>  <SCORE.INTRA.DIHEDRAL>
-10.983

>  <SCORE.INTRA.DIHEDRAL.0>
23.8882

>  <SCORE.INTRA.POLAR>
0

>  <SCORE.INTRA.POLAR.0>
0

>  <SCORE.INTRA.REPUL>
0

>  <SCORE.INTRA.REPUL.0>
0

>  <SCORE.INTRA.SOLV>
5.31116

>  <SCORE.INTRA.SOLV.lig_0>
-97.6888

>  <SCORE.INTRA.VDW>
1.20749

>  <SCORE.INTRA.VDW.0>
-3.9206

>  <SCORE.INTRA.norm>
-0.0465262

>  <SCORE.RESTR>
0

>  <SCORE.RESTR.CAVITY>
0

>  <SCORE.RESTR.norm>
0

>  <SCORE.SYSTEM>
0

>  <SCORE.SYSTEM.CONST>
0

>  <SCORE.SYSTEM.DIHEDRAL>
0

>  <SCORE.SYSTEM.SOLV>
0

>  <SCORE.SYSTEM.norm>
0

>  <SCORE.heavy>
35

>  <SCORE.norm>
-0.475577

>  <RMSD>
9.205

$$$$
2f4t_lig
 OpenBabel11021811433D
libRbt.so/2013.1/901 2013/11/27
 35 36  0  0  0  0  0  0  0  0999 V2000
    7.5157   -4.7053   29.0223 C   0  0  2  0  0  0  0  0  0  0  0  0
    6.1262   -5.1645   29.0972 O   0  0  0  0  0  0  0  0  0  0  0  0
    3.0114   -5.9751   26.2165 C   0  0  2  0  0  0  0  0  0  0  0  0
    2.3571   -6.4118   24.9740 N   0  0  0  0  0  0  0  0  0  0  0  0
    8.3866   -5.9955   28.9412 C   0  0  2  0  0  0  0  0  0  0  0  0
    7.9848   -6.8119   27.8198 N   0  0  0  0  0  0  0  0  0  0  0  0
    4.1994   -5.0064   25.8646 C   0  0  0  0  0  0  0  0  0  0  0  0
    1.1056   -5.2494   24.5252 C   0  0  0  0  0  0  0  0  0  0  0  0
    0.8554   -6.1424   23.3302 C   0  0  1  0  0  0  0  0  0  0  0  0
   -0.3206   -5.5506   22.5499 C   0  0  0  0  0  0  0  0  0  0  0  0
   -1.0996   -6.5404   21.6675 C   0  0  0  0  0  0  0  0  0  0  0  0
   -0.1468   -7.2269   20.7900 N   0  0  0  0  0  0  0  0  0  0  0  0
    1.9493   -6.1222   22.4509 O   0  0  0  0  0  0  0  0  0  0  0  0
    1.8804   -9.2183   27.8377 C   0  0  0  0  0  0  0  0  0  0  0  0
    2.0007   -9.1770   29.3534 C   0  0  0  0  0  0  0  0  0  0  0  0
    8.2779   -6.8028   30.2787 C   0  0  1  0  0  0  0  0  0  0  0  0
    1.3449  -10.3177   30.0297 N   0  0  0  0  0  0  0  0  0  0  0  0
    9.0655   -7.9764   30.2276 O   0  0  0  0  0  0  0  0  0  0  0  0
    4.9337   -4.5209   27.1222 C   0  0  2  0  0  0  0  0  0  0  0  0
    6.0555   -3.6570   26.7681 N   0  0  0  0  0  0  0  0  0  0  0  0
   -0.5408  -11.0869   31.4733 C   0  0  0  0  0  0  0  0  0  0  0  0
   -2.0831  -11.2719   31.6438 N   0  0  0  0  0  0  0  0  0  0  0  0
   -0.1395  -10.3565   30.1577 C   0  0  0  0  0  0  0  0  0  0  0  0
    0.7390   -4.3417   24.9504 O   0  0  0  0  0  0  0  0  0  0  0  0
    8.7359   -5.8917   31.4222 C   0  0  2  0  0  0  0  0  0  0  0  0
    8.6739   -6.5686   32.6671 O   0  0  0  0  0  0  0  0  0  0  0  0
    5.4477   -5.6946   27.9179 C   0  0  2  0  0  0  0  0  0  0  0  0
    7.8586   -4.6072   31.4609 C   0  0  2  0  0  0  0  0  0  0  0  0
    7.9119   -3.9033   30.2026 O   0  0  0  0  0  0  0  0  0  0  0  0
    4.2478   -6.6621   28.3040 C   0  0  2  0  0  0  0  0  0  0  0  0
    4.7804   -7.7798   29.0762 O   0  0  0  0  0  0  0  0  0  0  0  0
    8.2830   -3.6783   32.5351 C   0  0  0  0  0  0  0  0  0  0  0  0
    9.3536   -2.9672   32.1182 N   0  0  0  0  0  0  0  0  0  0  0  0
    3.5715   -7.1805   26.9875 C   0  0  1  0  0  0  0  0  0  0  0  0
    2.5319   -8.0547   27.2920 O   0  0  0  0  0  0  0  0  0  0  0  0
  1  2  1  1  0  0  0
  1  5  1  0  0  0  0
  1 29  1  0  0  0  0
  3  4  1  6  0  0  0
  3  7  1  0  0  0  0
  3 34  1  0  0  0  0
  5  6  1  6  0  0  0
  5 16  1  0  0  0  0
  7 19  1  0  0  0  0
  8  4  1  0  0  0  0
  8 24  2  0  0  0  0
  9  8  1  1  0  0  0
  9 10  1  0  0  0  0
  9 13  1  0  0  0  0
 10 11  1  0  0  0  0
 11 12  1  0  0  0  0
 14 15  1  0  0  0  0
 14 35  1  0  0  0  0
 15 17  1  0  0  0  0
 16 18  1  6  0  0  0
 16 25  1  0  0  0  0
 19 20  1  6  0  0  0
 19 27  1  0  0  0  0
 21 22  1  0  0  0  0
 21 23  1  0  0  0  0
 23 17  1  0  0  0  0
 25 26  1  1  0  0  0
 25 28  1  0  0  0  0
 27  2  1  1  0  0  0
 27 30  1  0  0  0  0
 28 29  1  0  0  0  0
 28 32  1  1  0  0  0
 30 31  1  6  0  0  0
 30 34  1  0  0  0  0
 32 33  2  0  0  0  0
 34 35  1  1  0  0  0
M  END
>  <CHROM.1>
-74.33201417,-87.58885765,177.23756451,-156.21417763,-53.23529689,179.05504128
64.04986259,-75.84194309,-175.68104030,-148.15382093,-82.79389493,80.48769490
-178.93799303,4.14209542,-6.54921328,27.92343245,-0.45434063,-0.53871630
-1.03832290

>  <Name>
2f4t_lig

>  <RI>
0

>  <Rbt.Current_Directory>
/home/itssahil/PROJECTS/Mol_Feturizer/New_Systems/rnas/2f4t

>  <Rbt.Executable>
rbdock ($Id: //depot/dev/client3/rdock/2013.1/src/exe/rbdock.cxx#4 $)

>  <Rbt.Library>
libRbt.so (2013.1, Build901 2013/11/27)

>  <Rbt.Parameter_File>
/export/apps/rDock/src/rDock_2013.1_src/data/scripts/dock_solv.prm

>  <Rbt.Receptor>
prm/pocket_docking_6.prm

>  <SCORE>
-14.9765

>  <SCORE.INTER>
-11.0312

>  <SCORE.INTER.CONST>
1

>  <SCORE.INTER.POLAR>
-1.85066

>  <SCORE.INTER.ROT>
13

>  <SCORE.INTER.SOLV>
13.1473

>  <SCORE.INTER.VDW>
-17.8344

>  <SCORE.INTER.norm>
-0.315178

>  <SCORE.INTRA>
-3.94526

>  <SCORE.INTRA.DIHEDRAL>
-14.7483

>  <SCORE.INTRA.DIHEDRAL.0>
23.8882

>  <SCORE.INTRA.POLAR>
0

>  <SCORE.INTRA.POLAR.0>
0

>  <SCORE.INTRA.REPUL>
0

>  <SCORE.INTRA.REPUL.0>
0

>  <SCORE.INTRA.SOLV>
4.31989

>  <SCORE.INTRA.SOLV.lig_0>
-97.6888

>  <SCORE.INTRA.VDW>
1.26893

>  <SCORE.INTRA.VDW.0>
-3.9206

>  <SCORE.INTRA.norm>
-0.112722

>  <SCORE.RESTR>
0

>  <SCORE.RESTR.CAVITY>
0

>  <SCORE.RESTR.norm>
0

>  <SCORE.SYSTEM>
0

>  <SCORE.SYSTEM.CONST>
0

>  <SCORE.SYSTEM.DIHEDRAL>
0

>  <SCORE.SYSTEM.SOLV>
0

>  <SCORE.SYSTEM.norm>
0

>  <SCORE.heavy>
35

>  <SCORE.norm>
-0.4279

>  <RMSD>
9.207

$$$$
2f4t_lig
 OpenBabel11021811433D
libRbt.so/2013.1/901 2013/11/27
 35 36  0  0  0  0  0  0  0  0999 V2000
    1.6569  -13.0705   29.2602 C   0  0  2  0  0  0  0  0  0  0  0  0
    2.4178  -12.1682   30.1287 O   0  0  0  0  0  0  0  0  0  0  0  0
    4.6215   -8.5590   29.2487 C   0  0  2  0  0  0  0  0  0  0  0  0
    5.7067   -7.6790   28.7895 N   0  0  0  0  0  0  0  0  0  0  0  0
    0.6559  -13.8162   30.1938 C   0  0  2  0  0  0  0  0  0  0  0  0
   -0.1677  -12.8738   30.9143 N   0  0  0  0  0  0  0  0  0  0  0  0
    5.2099   -9.6419   30.2258 C   0  0  0  0  0  0  0  0  0  0  0  0
    5.1457   -6.0045   28.7807 C   0  0  0  0  0  0  0  0  0  0  0  0
    6.5344   -5.6545   28.2937 C   0  0  1  0  0  0  0  0  0  0  0  0
    6.4835   -4.2289   27.7395 C   0  0  0  0  0  0  0  0  0  0  0  0
    6.1768   -3.1260   28.7664 C   0  0  0  0  0  0  0  0  0  0  0  0
    6.0838   -1.8463   28.0572 N   0  0  0  0  0  0  0  0  0  0  0  0
    7.4462   -5.6200   29.3603 O   0  0  0  0  0  0  0  0  0  0  0  0
    3.4485   -7.1947   26.2869 C   0  0  0  0  0  0  0  0  0  0  0  0
    2.1046   -7.1383   25.5769 C   0  0  0  0  0  0  0  0  0  0  0  0
    1.4351  -14.7413   31.1884 C   0  0  1  0  0  0  0  0  0  0  0  0
    2.0527   -6.1381   24.4881 N   0  0  0  0  0  0  0  0  0  0  0  0
    0.5438  -15.4316   32.0425 O   0  0  0  0  0  0  0  0  0  0  0  0
    4.1262  -10.6026   30.7348 C   0  0  2  0  0  0  0  0  0  0  0  0
    4.7026  -11.6216   31.6064 N   0  0  0  0  0  0  0  0  0  0  0  0
    0.2153   -5.8030   22.8319 C   0  0  0  0  0  0  0  0  0  0  0  0
   -0.1549   -7.3177   22.7289 N   0  0  0  0  0  0  0  0  0  0  0  0
    0.7907   -5.3920   24.2194 C   0  0  0  0  0  0  0  0  0  0  0  0
    4.2252   -5.5215   29.0226 O   0  0  0  0  0  0  0  0  0  0  0  0
    2.2702  -15.7274   30.3651 C   0  0  2  0  0  0  0  0  0  0  0  0
    2.9951  -16.6074   31.2088 O   0  0  0  0  0  0  0  0  0  0  0  0
    3.4353  -11.2782   29.5767 C   0  0  2  0  0  0  0  0  0  0  0  0
    3.2427  -14.9492   29.4324 C   0  0  2  0  0  0  0  0  0  0  0  0
    2.5220  -14.0503   28.5639 O   0  0  0  0  0  0  0  0  0  0  0  0
    2.8111  -10.1904   28.6011 C   0  0  2  0  0  0  0  0  0  0  0  0
    2.1476  -10.8789   27.4989 O   0  0  0  0  0  0  0  0  0  0  0  0
    4.0539  -15.8618   28.5922 C   0  0  0  0  0  0  0  0  0  0  0  0
    4.9218  -16.5410   29.3739 N   0  0  0  0  0  0  0  0  0  0  0  0
    3.9636   -9.2754   28.0591 C   0  0  1  0  0  0  0  0  0  0  0  0
    3.4520   -8.3274   27.1774 O   0  0  0  0  0  0  0  0  0  0  0  0
  1  2  1  1  0  0  0
  1  5  1  0  0  0  0
  1 29  1  0  0  0  0
  3  4  1  6  0  0  0
  3  7  1  0  0  0  0
  3 34  1  0  0  0  0
  5  6  1  1  0  0  0
  5 16  1  0  0  0  0
  7 19  1  0  0  0  0
  8  4  1  0  0  0  0
  8 24  2  0  0  0  0
  9  8  1  1  0  0  0
  9 10  1  0  0  0  0
  9 13  1  0  0  0  0
 10 11  1  0  0  0  0
 11 12  1  0  0  0  0
 14 15  1  0  0  0  0
 14 35  1  0  0  0  0
 15 17  1  0  0  0  0
 16 18  1  6  0  0  0
 16 25  1  0  0  0  0
 19 20  1  1  0  0  0
 19 27  1  0  0  0  0
 21 22  1  0  0  0  0
 21 23  1  0  0  0  0
 23 17  1  0  0  0  0
 25 26  1  1  0  0  0
 25 28  1  0  0  0  0
 27  2  1  1  0  0  0
 27 30  1  0  0  0  0
 28 29  1  0  0  0  0
 28 32  1  6  0  0  0
 30 31  1  6  0  0  0
 30 34  1  0  0  0  0
 32 33  2  0  0  0  0
 34 35  1  6  0  0  0
M  END
>  <CHROM.1>
-178.43273243,-138.31891600,164.60724827,65.04234396,-176.52477623,-171.34654822
170.61184401,-145.09812973,61.54949584,-113.11071431,-173.99733415,-68.44578545
56.73077326,3.34206651,-9.85664317,28.54429101,1.81144983,0.72095426,2.63745532

>  <Name>
2f4t_lig

>  <RI>
0

>  <Rbt.Current_Directory>
/home/itssahil/PROJECTS/Mol_Feturizer/New_Systems/rnas/2f4t

>  <Rbt.Executable>
rbdock ($Id: //depot/dev/client3/rdock/2013.1/src/exe/rbdock.cxx#4 $)

>  <Rbt.Library>
libRbt.so (2013.1, Build901 2013/11/27)

>  <Rbt.Parameter_File>
/export/apps/rDock/src/rDock_2013.1_src/data/scripts/dock_solv.prm

>  <Rbt.Receptor>
prm/pocket_docking_5.prm

>  <SCORE>
-16.6819

>  <SCORE.INTER>
-9.19963

>  <SCORE.INTER.CONST>
1

>  <SCORE.INTER.POLAR>
-0.938083

>  <SCORE.INTER.ROT>
13

>  <SCORE.INTER.SOLV>
12.5455

>  <SCORE.INTER.VDW>
-19.4546

>  <SCORE.INTER.norm>
-0.262847

>  <SCORE.INTRA>
-7.48228

>  <SCORE.INTRA.DIHEDRAL>
-17.088

>  <SCORE.INTRA.DIHEDRAL.0>
23.8882

>  <SCORE.INTRA.POLAR>
0

>  <SCORE.INTRA.POLAR.0>
0

>  <SCORE.INTRA.REPUL>
0

>  <SCORE.INTRA.REPUL.0>
0

>  <SCORE.INTRA.SOLV>
1.28344

>  <SCORE.INTRA.SOLV.lig_0>
-97.6888

>  <SCORE.INTRA.VDW>
0.420001

>  <SCORE.INTRA.VDW.0>
-3.9206

>  <SCORE.INTRA.norm>
-0.213779

>  <SCORE.RESTR>
0

>  <SCORE.RESTR.CAVITY>
0

>  <SCORE.RESTR.norm>
0

>  <SCORE.SYSTEM>
0

>  <SCORE.SYSTEM.CONST>
0

>  <SCORE.SYSTEM.DIHEDRAL>
0

>  <SCORE.SYSTEM.SOLV>
0

>  <SCORE.SYSTEM.norm>
0

>  <SCORE.heavy>
35

>  <SCORE.norm>
-0.476626

>  <RMSD>
9.216

$$$$
2f4t_lig
 OpenBabel11021811433D
libRbt.so/2013.1/901 2013/11/27
 35 36  0  0  0  0  0  0  0  0999 V2000
    1.2862  -10.2038   28.9263 C   0  0  2  0  0  0  0  0  0  0  0  0
    2.2844   -9.1690   29.2092 O   0  0  0  0  0  0  0  0  0  0  0  0
    4.4543   -6.3479   26.7618 C   0  0  2  0  0  0  0  0  0  0  0  0
    5.4004   -5.8231   25.7658 N   0  0  0  0  0  0  0  0  0  0  0  0
    0.3504  -10.2446   30.1722 C   0  0  2  0  0  0  0  0  0  0  0  0
   -0.2204   -8.9422   30.4237 N   0  0  0  0  0  0  0  0  0  0  0  0
    5.2157   -7.3136   27.7423 C   0  0  0  0  0  0  0  0  0  0  0  0
    6.4426   -4.6136   26.5206 C   0  0  0  0  0  0  0  0  0  0  0  0
    7.1002   -4.4895   25.1640 C   0  0  1  0  0  0  0  0  0  0  0  0
    7.5845   -3.0454   25.0162 C   0  0  0  0  0  0  0  0  0  0  0  0
    6.4832   -1.9720   25.0033 C   0  0  0  0  0  0  0  0  0  0  0  0
    6.0700   -1.7164   26.3864 N   0  0  0  0  0  0  0  0  0  0  0  0
    8.2506   -5.2903   25.0890 O   0  0  0  0  0  0  0  0  0  0  0  0
    1.8614   -5.1710   24.7559 C   0  0  0  0  0  0  0  0  0  0  0  0
    0.9096   -5.6417   23.6668 C   0  0  0  0  0  0  0  0  0  0  0  0
    1.1434  -10.7508   31.4241 C   0  0  1  0  0  0  0  0  0  0  0  0
    1.5808   -6.3770   22.5724 N   0  0  0  0  0  0  0  0  0  0  0  0
    0.3101  -10.7998   32.5659 O   0  0  0  0  0  0  0  0  0  0  0  0
    4.2789   -7.9061   28.8043 C   0  0  2  0  0  0  0  0  0  0  0  0
    4.9990   -8.8291   29.6759 N   0  0  0  0  0  0  0  0  0  0  0  0
    0.3587   -8.4666   21.9629 C   0  0  0  0  0  0  0  0  0  0  0  0
   -0.7691   -8.4824   23.0445 N   0  0  0  0  0  0  0  0  0  0  0  0
    0.7704   -7.0350   21.5086 C   0  0  0  0  0  0  0  0  0  0  0  0
    6.5218   -4.1999   27.5013 O   0  0  0  0  0  0  0  0  0  0  0  0
    1.7038  -12.1399   31.1019 C   0  0  2  0  0  0  0  0  0  0  0  0
    2.4264  -12.6644   32.2040 O   0  0  0  0  0  0  0  0  0  0  0  0
    3.1355   -8.6389   28.1479 C   0  0  2  0  0  0  0  0  0  0  0  0
    2.6161  -12.0649   29.8436 C   0  0  2  0  0  0  0  0  0  0  0  0
    1.8964  -11.5360   28.7106 O   0  0  0  0  0  0  0  0  0  0  0  0
    2.3422   -7.6606   27.1790 C   0  0  2  0  0  0  0  0  0  0  0  0
    1.2428   -8.4004   26.5681 O   0  0  0  0  0  0  0  0  0  0  0  0
    3.1604  -13.3930   29.4737 C   0  0  0  0  0  0  0  0  0  0  0  0
    4.3888  -13.5430   30.0161 N   0  0  0  0  0  0  0  0  0  0  0  0
    3.3249   -7.1328   26.0768 C   0  0  1  0  0  0  0  0  0  0  0  0
    2.6519   -6.2934   25.1934 O   0  0  0  0  0  0  0  0  0  0  0  0
  1  2  1  1  0  0  0
  1  5  1  0  0  0  0
  1 29  1  0  0  0  0
  3  4  1  6  0  0  0
  3  7  1  0  0  0  0
  3 34  1  0  0  0  0
  5  6  1  1  0  0  0
  5 16  1  0  0  0  0
  7 19  1  0  0  0  0
  8  4  1  0  0  0  0
  8 24  2  0  0  0  0
  9  8  1  1  0  0  0
  9 10  1  0  0  0  0
  9 13  1  0  0  0  0
 10 11  1  0  0  0  0
 11 12  1  0  0  0  0
 14 15  1  0  0  0  0
 14 35  1  0  0  0  0
 15 17  1  0  0  0  0
 16 18  1  1  0  0  0
 16 25  1  0  0  0  0
 19 20  1  1  0  0  0
 19 27  1  0  0  0  0
 21 22  1  0  0  0  0
 21 23  1  0  0  0  0
 23 17  1  0  0  0  0
 25 26  1  1  0  0  0
 25 28  1  0  0  0  0
 27  2  1  1  0  0  0
 27 30  1  0  0  0  0
 28 29  1  0  0  0  0
 28 32  1  6  0  0  0
 30 31  1  6  0  0  0
 30 34  1  0  0  0  0
 32 33  2  0  0  0  0
 34 35  1  6  0  0  0
M  END
>  <CHROM.1>
-165.76819360,-74.21160836,148.74412651,-63.97100496,79.73084685,-51.62902540
-140.65887504,173.14973686,74.19463619,-86.48759153,-164.50817301,-95.15129510
-61.99317431,3.18123186,-7.89531893,27.26862530,1.99724231,0.58281734,2.21907544

>  <Name>
2f4t_lig

>  <RI>
0

>  <Rbt.Current_Directory>
/home/itssahil/PROJECTS/Mol_Feturizer/New_Systems/rnas/2f4t

>  <Rbt.Executable>
rbdock ($Id: //depot/dev/client3/rdock/2013.1/src/exe/rbdock.cxx#4 $)

>  <Rbt.Library>
libRbt.so (2013.1, Build901 2013/11/27)

>  <Rbt.Parameter_File>
/export/apps/rDock/src/rDock_2013.1_src/data/scripts/dock_solv.prm

>  <Rbt.Receptor>
prm/pocket_docking_6.prm

>  <SCORE>
-19.7846

>  <SCORE.INTER>
-16.3678

>  <SCORE.INTER.CONST>
1

>  <SCORE.INTER.POLAR>
-1.8546

>  <SCORE.INTER.ROT>
13

>  <SCORE.INTER.SOLV>
15.1487

>  <SCORE.INTER.VDW>
-22.0461

>  <SCORE.INTER.norm>
-0.467652

>  <SCORE.INTRA>
-3.41682

>  <SCORE.INTRA.DIHEDRAL>
-10.6043

>  <SCORE.INTRA.DIHEDRAL.0>
23.8882

>  <SCORE.INTRA.POLAR>
0

>  <SCORE.INTRA.POLAR.0>
0

>  <SCORE.INTRA.REPUL>
0

>  <SCORE.INTRA.REPUL.0>
0

>  <SCORE.INTRA.SOLV>
4.6631

>  <SCORE.INTRA.SOLV.lig_0>
-97.6888

>  <SCORE.INTRA.VDW>
-0.446232

>  <SCORE.INTRA.VDW.0>
-3.9206

>  <SCORE.INTRA.norm>
-0.0976235

>  <SCORE.RESTR>
0

>  <SCORE.RESTR.CAVITY>
0

>  <SCORE.RESTR.norm>
0

>  <SCORE.SYSTEM>
0

>  <SCORE.SYSTEM.CONST>
0

>  <SCORE.SYSTEM.DIHEDRAL>
0

>  <SCORE.SYSTEM.SOLV>
0

>  <SCORE.SYSTEM.norm>
0

>  <SCORE.heavy>
35

>  <SCORE.norm>
-0.565276

>  <RMSD>
9.226

$$$$
2f4t_lig
 OpenBabel11021811433D
libRbt.so/2013.1/901 2013/11/27
 35 36  0  0  0  0  0  0  0  0999 V2000
    3.3002  -13.6387   29.9680 C   0  0  2  0  0  0  0  0  0  0  0  0
    3.1165  -12.4958   30.8664 O   0  0  0  0  0  0  0  0  0  0  0  0
    3.8427   -8.2519   30.5212 C   0  0  2  0  0  0  0  0  0  0  0  0
    4.5689   -6.9796   30.3916 N   0  0  0  0  0  0  0  0  0  0  0  0
    2.0497  -14.5464   30.1729 C   0  0  2  0  0  0  0  0  0  0  0  0
    0.8355  -13.8046   29.9261 N   0  0  0  0  0  0  0  0  0  0  0  0
    4.4500   -9.0768   31.7146 C   0  0  0  0  0  0  0  0  0  0  0  0
    4.2755   -5.9837   31.8202 C   0  0  0  0  0  0  0  0  0  0  0  0
    5.1810   -4.9651   31.1641 C   0  0  1  0  0  0  0  0  0  0  0  0
    5.0154   -3.6451   31.9206 C   0  0  0  0  0  0  0  0  0  0  0  0
    5.7620   -2.4390   31.3264 C   0  0  0  0  0  0  0  0  0  0  0  0
    5.5266   -1.2779   32.1898 N   0  0  0  0  0  0  0  0  0  0  0  0
    6.5298   -5.3251   31.3098 O   0  0  0  0  0  0  0  0  0  0  0  0
    3.0109   -8.0884   26.8202 C   0  0  0  0  0  0  0  0  0  0  0  0
    2.8893   -6.5831   26.6395 C   0  0  0  0  0  0  0  0  0  0  0  0
    2.0483  -15.1412   31.6216 C   0  0  1  0  0  0  0  0  0  0  0  0
    2.6260   -6.1748   25.2422 N   0  0  0  0  0  0  0  0  0  0  0  0
    0.9228  -15.9728   31.8269 O   0  0  0  0  0  0  0  0  0  0  0  0
    3.7407  -10.4258   31.8973 C   0  0  2  0  0  0  0  0  0  0  0  0
    4.3477  -11.1894   32.9830 N   0  0  0  0  0  0  0  0  0  0  0  0
    0.8686   -4.4020   25.2271 C   0  0  0  0  0  0  0  0  0  0  0  0
    0.5369   -4.3515   26.7533 N   0  0  0  0  0  0  0  0  0  0  0  0
    2.3565   -4.7446   24.9207 C   0  0  0  0  0  0  0  0  0  0  0  0
    3.7038   -6.1048   32.7134 O   0  0  0  0  0  0  0  0  0  0  0  0
    3.3477  -15.9304   31.8125 C   0  0  2  0  0  0  0  0  0  0  0  0
    3.4052  -16.5091   33.1062 O   0  0  0  0  0  0  0  0  0  0  0  0
    3.8121  -11.2346   30.6262 C   0  0  2  0  0  0  0  0  0  0  0  0
    4.5726  -14.9991   31.5817 C   0  0  2  0  0  0  0  0  0  0  0  0
    4.5325  -14.4034   30.2683 O   0  0  0  0  0  0  0  0  0  0  0  0
    3.1718  -10.4197   29.4217 C   0  0  2  0  0  0  0  0  0  0  0  0
    3.2530  -11.2334   28.2133 O   0  0  0  0  0  0  0  0  0  0  0  0
    5.8563  -15.7257   31.7269 C   0  0  0  0  0  0  0  0  0  0  0  0
    6.5378  -15.2288   32.7825 N   0  0  0  0  0  0  0  0  0  0  0  0
    3.9692   -9.0824   29.2346 C   0  0  1  0  0  0  0  0  0  0  0  0
    3.4493   -8.3570   28.1663 O   0  0  0  0  0  0  0  0  0  0  0  0
  1  2  1  1  0  0  0
  1  5  1  0  0  0  0
  1 29  1  0  0  0  0
  3  4  1  6  0  0  0
  3  7  1  0  0  0  0
  3 34  1  0  0  0  0
  5  6  1  1  0  0  0
  5 16  1  0  0  0  0
  7 19  1  0  0  0  0
  8  4  1  0  0  0  0
  8 24  2  0  0  0  0
  9  8  1  1  0  0  0
  9 10  1  0  0  0  0
  9 13  1  0  0  0  0
 10 11  1  0  0  0  0
 11 12  1  0  0  0  0
 14 15  1  0  0  0  0
 14 35  1  0  0  0  0
 15 17  1  0  0  0  0
 16 18  1  6  0  0  0
 16 25  1  0  0  0  0
 19 20  1  1  0  0  0
 19 27  1  0  0  0  0
 21 22  1  0  0  0  0
 21 23  1  0  0  0  0
 23 17  1  0  0  0  0
 25 26  1  1  0  0  0
 25 28  1  0  0  0  0
 27  2  1  1  0  0  0
 27 30  1  0  0  0  0
 28 29  1  0  0  0  0
 28 32  1  6  0  0  0
 30 31  1  6  0  0  0
 30 34  1  0  0  0  0
 32 33  2  0  0  0  0
 34 35  1  6  0  0  0
M  END
>  <CHROM.1>
-158.20411438,-65.82342642,166.70347516,-174.68045994,-178.40128192,172.03182653
-164.03798034,174.38180175,71.11286260,-81.08781974,-163.84459985,-115.52387279
-173.41584321,3.63447115,-9.68775083,30.19438452,1.63163069,1.02140991,2.85969534

>  <Name>
2f4t_lig

>  <RI>
0

>  <Rbt.Current_Directory>
/home/itssahil/PROJECTS/Mol_Feturizer/New_Systems/rnas/2f4t

>  <Rbt.Executable>
rbdock ($Id: //depot/dev/client3/rdock/2013.1/src/exe/rbdock.cxx#4 $)

>  <Rbt.Library>
libRbt.so (2013.1, Build901 2013/11/27)

>  <Rbt.Parameter_File>
/export/apps/rDock/src/rDock_2013.1_src/data/scripts/dock_solv.prm

>  <Rbt.Receptor>
prm/pocket_docking_6.prm

>  <SCORE>
-15.7535

>  <SCORE.INTER>
-8.61152

>  <SCORE.INTER.CONST>
1

>  <SCORE.INTER.POLAR>
-2.48165

>  <SCORE.INTER.ROT>
13

>  <SCORE.INTER.SOLV>
11.8982

>  <SCORE.INTER.VDW>
-13.7016

>  <SCORE.INTER.norm>
-0.246044

>  <SCORE.INTRA>
-7.142

>  <SCORE.INTRA.DIHEDRAL>
-16.2013

>  <SCORE.INTRA.DIHEDRAL.0>
23.8882

>  <SCORE.INTRA.POLAR>
0

>  <SCORE.INTRA.POLAR.0>
0

>  <SCORE.INTRA.REPUL>
0

>  <SCORE.INTRA.REPUL.0>
0

>  <SCORE.INTRA.SOLV>
1.17709

>  <SCORE.INTRA.SOLV.lig_0>
-97.6888

>  <SCORE.INTRA.VDW>
0.370123

>  <SCORE.INTRA.VDW.0>
-3.9206

>  <SCORE.INTRA.norm>
-0.204057

>  <SCORE.RESTR>
0

>  <SCORE.RESTR.CAVITY>
0

>  <SCORE.RESTR.norm>
0

>  <SCORE.SYSTEM>
0

>  <SCORE.SYSTEM.CONST>
0

>  <SCORE.SYSTEM.DIHEDRAL>
0

>  <SCORE.SYSTEM.SOLV>
0

>  <SCORE.SYSTEM.norm>
0

>  <SCORE.heavy>
35

>  <SCORE.norm>
-0.450101

>  <RMSD>
9.228

$$$$
2f4t_lig
 OpenBabel11021811433D
libRbt.so/2013.1/901 2013/11/27
 35 36  0  0  0  0  0  0  0  0999 V2000
    8.6812   -4.8810   28.4286 C   0  0  2  0  0  0  0  0  0  0  0  0
    7.2331   -4.8976   28.6523 O   0  0  0  0  0  0  0  0  0  0  0  0
    3.6278   -5.6625   26.3999 C   0  0  2  0  0  0  0  0  0  0  0  0
    2.7430   -6.1448   25.3288 N   0  0  0  0  0  0  0  0  0  0  0  0
    9.1658   -6.3429   28.6688 C   0  0  2  0  0  0  0  0  0  0  0  0
    8.4572   -7.2623   27.8097 N   0  0  0  0  0  0  0  0  0  0  0  0
    4.8142   -4.8479   25.7656 C   0  0  0  0  0  0  0  0  0  0  0  0
    1.5483   -4.9022   24.9449 C   0  0  0  0  0  0  0  0  0  0  0  0
    1.0260   -5.8754   23.9113 C   0  0  1  0  0  0  0  0  0  0  0  0
   -0.0332   -5.1447   23.0831 C   0  0  0  0  0  0  0  0  0  0  0  0
   -0.9032   -6.0352   22.1801 C   0  0  0  0  0  0  0  0  0  0  0  0
   -0.0233   -6.7575   21.2565 N   0  0  0  0  0  0  0  0  0  0  0  0
    2.0372   -6.2386   23.0081 O   0  0  0  0  0  0  0  0  0  0  0  0
    2.5245   -8.6492   28.4698 C   0  0  0  0  0  0  0  0  0  0  0  0
    2.9990   -9.9768   27.8991 C   0  0  0  0  0  0  0  0  0  0  0  0
    8.9732   -6.7332   30.1731 C   0  0  1  0  0  0  0  0  0  0  0  0
    2.0693  -11.0979   28.1585 N   0  0  0  0  0  0  0  0  0  0  0  0
    9.4117   -8.0561   30.4136 O   0  0  0  0  0  0  0  0  0  0  0  0
    5.7839   -4.3235   26.8338 C   0  0  2  0  0  0  0  0  0  0  0  0
    6.8965   -3.6066   26.2187 N   0  0  0  0  0  0  0  0  0  0  0  0
    2.9054  -12.2077   30.2324 C   0  0  0  0  0  0  0  0  0  0  0  0
    4.0816  -11.2651   30.6450 N   0  0  0  0  0  0  0  0  0  0  0  0
    1.7141  -11.4643   29.5589 C   0  0  0  0  0  0  0  0  0  0  0  0
    1.3411   -3.9226   25.3144 O   0  0  0  0  0  0  0  0  0  0  0  0
    9.7630   -5.7363   31.0275 C   0  0  2  0  0  0  0  0  0  0  0  0
    9.6411   -6.0414   32.4073 O   0  0  0  0  0  0  0  0  0  0  0  0
    6.3277   -5.4645   27.6569 C   0  0  2  0  0  0  0  0  0  0  0  0
    9.2667   -4.2883   30.7480 C   0  0  2  0  0  0  0  0  0  0  0  0
    9.3863   -3.9589   29.3485 O   0  0  0  0  0  0  0  0  0  0  0  0
    5.1354   -6.2737   28.3265 C   0  0  2  0  0  0  0  0  0  0  0  0
    5.6981   -7.3631   29.1177 O   0  0  0  0  0  0  0  0  0  0  0  0
   10.0225   -3.2825   31.5317 C   0  0  0  0  0  0  0  0  0  0  0  0
    9.1563   -2.4819   32.1907 N   0  0  0  0  0  0  0  0  0  0  0  0
    4.2102   -6.8415   27.1948 C   0  0  1  0  0  0  0  0  0  0  0  0
    3.1693   -7.5811   27.7492 O   0  0  0  0  0  0  0  0  0  0  0  0
  1  2  1  1  0  0  0
  1  5  1  0  0  0  0
  1 29  1  0  0  0  0
  3  4  1  6  0  0  0
  3  7  1  0  0  0  0
  3 34  1  0  0  0  0
  5  6  1  6  0  0  0
  5 16  1  0  0  0  0
  7 19  1  0  0  0  0
  8  4  1  0  0  0  0
  8 24  2  0  0  0  0
  9  8  1  1  0  0  0
  9 10  1  0  0  0  0
  9 13  1  0  0  0  0
 10 11  1  0  0  0  0
 11 12  1  0  0  0  0
 14 15  1  0  0  0  0
 14 35  1  0  0  0  0
 15 17  1  0  0  0  0
 16 18  1  6  0  0  0
 16 25  1  0  0  0  0
 19 20  1  6  0  0  0
 19 27  1  0  0  0  0
 21 22  1  0  0  0  0
 21 23  1  0  0  0  0
 23 17  1  0  0  0  0
 25 26  1  1  0  0  0
 25 28  1  0  0  0  0
 27  2  1  1  0  0  0
 27 30  1  0  0  0  0
 28 29  1  0  0  0  0
 28 32  1  1  0  0  0
 30 31  1  6  0  0  0
 30 34  1  0  0  0  0
 32 33  2  0  0  0  0
 34 35  1  1  0  0  0
M  END
>  <CHROM.1>
-75.52716612,-86.63348706,-172.60943371,-167.30063553,-58.54463752,-157.59199874
-52.43852271,-58.67732485,75.40867343,-74.74172856,-97.68819626,-128.44497442
175.97249529,5.11061328,-6.46193094,27.74451333,-0.23809770,-0.62203182,-0.62488367

>  <Name>
2f4t_lig

>  <RI>
0

>  <Rbt.Current_Directory>
/home/itssahil/PROJECTS/Mol_Feturizer/New_Systems/rnas/2f4t

>  <Rbt.Executable>
rbdock ($Id: //depot/dev/client3/rdock/2013.1/src/exe/rbdock.cxx#4 $)

>  <Rbt.Library>
libRbt.so (2013.1, Build901 2013/11/27)

>  <Rbt.Parameter_File>
/export/apps/rDock/src/rDock_2013.1_src/data/scripts/dock_solv.prm

>  <Rbt.Receptor>
prm/pocket_docking_5.prm

>  <SCORE>
-15.6946

>  <SCORE.INTER>
-14.6089

>  <SCORE.INTER.CONST>
1

>  <SCORE.INTER.POLAR>
-2.09575

>  <SCORE.INTER.ROT>
13

>  <SCORE.INTER.SOLV>
18.3593

>  <SCORE.INTER.VDW>
-21.1399

>  <SCORE.INTER.norm>
-0.417398

>  <SCORE.INTRA>
-1.08562

>  <SCORE.INTRA.DIHEDRAL>
-11.902

>  <SCORE.INTRA.DIHEDRAL.0>
23.8882

>  <SCORE.INTRA.POLAR>
0

>  <SCORE.INTRA.POLAR.0>
0

>  <SCORE.INTRA.REPUL>
0

>  <SCORE.INTRA.REPUL.0>
0

>  <SCORE.INTRA.SOLV>
6.61905

>  <SCORE.INTRA.SOLV.lig_0>
-97.6888

>  <SCORE.INTRA.VDW>
1.55585

>  <SCORE.INTRA.VDW.0>
-3.9206

>  <SCORE.INTRA.norm>
-0.0310178

>  <SCORE.RESTR>
0

>  <SCORE.RESTR.CAVITY>
0

>  <SCORE.RESTR.norm>
0

>  <SCORE.SYSTEM>
0

>  <SCORE.SYSTEM.CONST>
0

>  <SCORE.SYSTEM.DIHEDRAL>
0

>  <SCORE.SYSTEM.SOLV>
0

>  <SCORE.SYSTEM.norm>
0

>  <SCORE.heavy>
35

>  <SCORE.norm>
-0.448416

>  <RMSD>
9.229

$$$$
2f4t_lig
 OpenBabel11021811433D
libRbt.so/2013.1/901 2013/11/27
 35 36  0  0  0  0  0  0  0  0999 V2000
    5.3686  -13.5077   32.8567 C   0  0  2  0  0  0  0  0  0  0  0  0
    4.7671  -13.5359   31.5209 O   0  0  0  0  0  0  0  0  0  0  0  0
    3.3364  -10.2597   29.0967 C   0  0  2  0  0  0  0  0  0  0  0  0
    2.4376   -9.2271   28.5594 N   0  0  0  0  0  0  0  0  0  0  0  0
    5.8119  -14.9719   33.1550 C   0  0  2  0  0  0  0  0  0  0  0  0
    6.7050  -15.4534   32.1274 N   0  0  0  0  0  0  0  0  0  0  0  0
    2.5947  -11.6466   29.0922 C   0  0  0  0  0  0  0  0  0  0  0  0
    3.3771   -8.0438   27.6451 C   0  0  0  0  0  0  0  0  0  0  0  0
    2.0555   -7.3556   27.3842 C   0  0  1  0  0  0  0  0  0  0  0  0
    2.3596   -5.9135   26.9719 C   0  0  0  0  0  0  0  0  0  0  0  0
    1.1388   -4.9876   26.8392 C   0  0  0  0  0  0  0  0  0  0  0  0
    1.6160   -3.6301   26.5587 N   0  0  0  0  0  0  0  0  0  0  0  0
    1.3945   -7.9368   26.2909 O   0  0  0  0  0  0  0  0  0  0  0  0
    5.3969   -7.7044   30.2647 C   0  0  0  0  0  0  0  0  0  0  0  0
    5.0445   -6.4168   30.9936 C   0  0  0  0  0  0  0  0  0  0  0  0
    4.5564  -15.9003   33.2745 C   0  0  1  0  0  0  0  0  0  0  0  0
    6.0388   -5.3382   30.8028 N   0  0  0  0  0  0  0  0  0  0  0  0
    4.9370  -17.2343   33.5501 O   0  0  0  0  0  0  0  0  0  0  0  0
    3.4780  -12.7698   29.6532 C   0  0  2  0  0  0  0  0  0  0  0  0
    2.7547  -14.0373   29.6765 N   0  0  0  0  0  0  0  0  0  0  0  0
    7.1431   -3.1478   31.2654 C   0  0  0  0  0  0  0  0  0  0  0  0
    7.1961   -1.8505   32.1350 N   0  0  0  0  0  0  0  0  0  0  0  0
    6.0083   -4.1316   31.6772 C   0  0  0  0  0  0  0  0  0  0  0  0
    4.4128   -7.9245   27.4165 O   0  0  0  0  0  0  0  0  0  0  0  0
    3.6629  -15.3497   34.3907 C   0  0  2  0  0  0  0  0  0  0  0  0
    2.5079  -16.1553   34.5609 O   0  0  0  0  0  0  0  0  0  0  0  0
    3.9304  -12.4348   31.0525 C   0  0  2  0  0  0  0  0  0  0  0  0
    3.2562  -13.8825   34.0696 C   0  0  2  0  0  0  0  0  0  0  0  0
    4.4195  -13.0469   33.8961 O   0  0  0  0  0  0  0  0  0  0  0  0
    4.7081  -11.0492   31.0597 C   0  0  2  0  0  0  0  0  0  0  0  0
    5.1348  -10.7613   32.4251 O   0  0  0  0  0  0  0  0  0  0  0  0
    2.4129  -13.2948   35.1374 C   0  0  0  0  0  0  0  0  0  0  0  0
    3.1708  -13.0589   36.2308 N   0  0  0  0  0  0  0  0  0  0  0  0
    3.7458   -9.9255   30.5395 C   0  0  1  0  0  0  0  0  0  0  0  0
    4.3901   -8.6917   30.5604 O   0  0  0  0  0  0  0  0  0  0  0  0
  1  2  1  6  0  0  0
  1  5  1  0  0  0  0
  1 29  1  0  0  0  0
  3  4  1  1  0  0  0
  3  7  1  0  0  0  0
  3 34  1  0  0  0  0
  5  6  1  6  0  0  0
  5 16  1  0  0  0  0
  7 19  1  0  0  0  0
  8  4  1  0  0  0  0
  8 24  2  0  0  0  0
  9  8  1  6  0  0  0
  9 10  1  0  0  0  0
  9 13  1  0  0  0  0
 10 11  1  0  0  0  0
 11 12  1  0  0  0  0
 14 15  1  0  0  0  0
 14 35  1  0  0  0  0
 15 17  1  0  0  0  0
 16 18  1  1  0  0  0
 16 25  1  0  0  0  0
 19 20  1  1  0  0  0
 19 27  1  0  0  0  0
 21 22  1  0  0  0  0
 21 23  1  0  0  0  0
 23 17  1  0  0  0  0
 25 26  1  6  0  0  0
 25 28  1  0  0  0  0
 27  2  1  6  0  0  0
 27 30  1  0  0  0  0
 28 29  1  0  0  0  0
 28 32  1  1  0  0  0
 30 31  1  1  0  0  0
 30 34  1  0  0  0  0
 32 33  2  0  0  0  0
 34 35  1  6  0  0  0
M  END
>  <CHROM.1>
163.74390798,-145.12982416,160.74912985,-172.29035094,175.02168451,177.93934297
-178.21808625,-166.36939706,-179.67366085,-179.47041817,179.81543821,71.76913186
-62.30389144,4.04189310,-10.30793913,30.93823296,-1.53420476,-0.96045253
-0.42312342

>  <Name>
2f4t_lig

>  <RI>
0

>  <Rbt.Current_Directory>
/home/itssahil/PROJECTS/Mol_Feturizer/New_Systems/rnas/2f4t

>  <Rbt.Executable>
rbdock ($Id: //depot/dev/client3/rdock/2013.1/src/exe/rbdock.cxx#4 $)

>  <Rbt.Library>
libRbt.so (2013.1, Build901 2013/11/27)

>  <Rbt.Parameter_File>
/export/apps/rDock/src/rDock_2013.1_src/data/scripts/dock_solv.prm

>  <Rbt.Receptor>
prm/pocket_docking_6.prm

>  <SCORE>
-11.1697

>  <SCORE.INTER>
-1.53668

>  <SCORE.INTER.CONST>
1

>  <SCORE.INTER.POLAR>
-1.26583

>  <SCORE.INTER.ROT>
13

>  <SCORE.INTER.SOLV>
14.1116

>  <SCORE.INTER.VDW>
-13.7756

>  <SCORE.INTER.norm>
-0.0439053

>  <SCORE.INTRA>
-9.63297

>  <SCORE.INTRA.DIHEDRAL>
-18.409

>  <SCORE.INTRA.DIHEDRAL.0>
23.8882

>  <SCORE.INTRA.POLAR>
0

>  <SCORE.INTRA.POLAR.0>
0

>  <SCORE.INTRA.REPUL>
0

>  <SCORE.INTRA.REPUL.0>
0

>  <SCORE.INTRA.SOLV>
-0.910104

>  <SCORE.INTRA.SOLV.lig_0>
-97.6888

>  <SCORE.INTRA.VDW>
0.0265765

>  <SCORE.INTRA.VDW.0>
-3.9206

>  <SCORE.INTRA.norm>
-0.275228

>  <SCORE.RESTR>
0

>  <SCORE.RESTR.CAVITY>
0

>  <SCORE.RESTR.norm>
0

>  <SCORE.SYSTEM>
0

>  <SCORE.SYSTEM.CONST>
0

>  <SCORE.SYSTEM.DIHEDRAL>
0

>  <SCORE.SYSTEM.SOLV>
0

>  <SCORE.SYSTEM.norm>
0

>  <SCORE.heavy>
35

>  <SCORE.norm>
-0.319133

>  <RMSD>
9.231

$$$$
2f4t_lig
 OpenBabel11021811433D
libRbt.so/2013.1/901 2013/11/27
 35 36  0  0  0  0  0  0  0  0999 V2000
    3.3755  -13.3757   30.9923 C   0  0  2  0  0  0  0  0  0  0  0  0
    3.2933  -12.0391   31.5872 O   0  0  0  0  0  0  0  0  0  0  0  0
    4.1967   -8.0590   30.1730 C   0  0  2  0  0  0  0  0  0  0  0  0
    4.9734   -6.9015   29.7045 N   0  0  0  0  0  0  0  0  0  0  0  0
    2.2624  -14.2190   31.6848 C   0  0  2  0  0  0  0  0  0  0  0  0
    0.9721  -13.5909   31.5228 N   0  0  0  0  0  0  0  0  0  0  0  0
    4.8253   -8.5990   31.5098 C   0  0  0  0  0  0  0  0  0  0  0  0
    4.2465   -5.4142   30.3195 C   0  0  0  0  0  0  0  0  0  0  0  0
    5.3625   -4.6956   29.5941 C   0  0  1  0  0  0  0  0  0  0  0  0
    4.7871   -3.3908   29.0388 C   0  0  0  0  0  0  0  0  0  0  0  0
    4.0202   -3.5131   27.7113 C   0  0  0  0  0  0  0  0  0  0  0  0
    4.9555   -3.9646   26.6766 N   0  0  0  0  0  0  0  0  0  0  0  0
    6.3793   -4.3187   30.4853 O   0  0  0  0  0  0  0  0  0  0  0  0
    2.6651   -8.3296   26.9867 C   0  0  0  0  0  0  0  0  0  0  0  0
    1.5853   -7.5495   27.7209 C   0  0  0  0  0  0  0  0  0  0  0  0
    2.5972  -14.4087   33.2028 C   0  0  1  0  0  0  0  0  0  0  0  0
    2.0461   -6.2399   28.2318 N   0  0  0  0  0  0  0  0  0  0  0  0
    1.6006  -15.1763   33.8494 O   0  0  0  0  0  0  0  0  0  0  0  0
    4.0645   -9.8188   32.0481 C   0  0  2  0  0  0  0  0  0  0  0  0
    4.6902  -10.3259   33.2654 N   0  0  0  0  0  0  0  0  0  0  0  0
    0.4026   -5.3599   29.8919 C   0  0  0  0  0  0  0  0  0  0  0  0
   -0.6915   -4.2980   30.2341 N   0  0  0  0  0  0  0  0  0  0  0  0
    1.0609   -5.1531   28.4958 C   0  0  0  0  0  0  0  0  0  0  0  0
    3.3981   -5.1905   30.9273 O   0  0  0  0  0  0  0  0  0  0  0  0
    3.9628  -15.0958   33.3059 C   0  0  2  0  0  0  0  0  0  0  0  0
    4.3227  -15.3099   34.6610 O   0  0  0  0  0  0  0  0  0  0  0  0
    4.0334  -10.9178   31.0155 C   0  0  2  0  0  0  0  0  0  0  0  0
    5.0440  -14.2370   32.5885 C   0  0  2  0  0  0  0  0  0  0  0  0
    4.6959  -14.0113   31.2067 O   0  0  0  0  0  0  0  0  0  0  0  0
    3.3708  -10.3882   29.6718 C   0  0  2  0  0  0  0  0  0  0  0  0
    3.3523  -11.4771   28.7007 O   0  0  0  0  0  0  0  0  0  0  0  0
    6.3806  -14.8761   32.6360 C   0  0  0  0  0  0  0  0  0  0  0  0
    6.3978  -15.9453   31.8101 N   0  0  0  0  0  0  0  0  0  0  0  0
    4.2187   -9.1860   29.1287 C   0  0  1  0  0  0  0  0  0  0  0  0
    3.6790   -8.7165   27.9345 O   0  0  0  0  0  0  0  0  0  0  0  0
  1  2  1  1  0  0  0
  1  5  1  0  0  0  0
  1 29  1  0  0  0  0
  3  4  1  6  0  0  0
  3  7  1  0  0  0  0
  3 34  1  0  0  0  0
  5  6  1  1  0  0  0
  5 16  1  0  0  0  0
  7 19  1  0  0  0  0
  8  4  1  0  0  0  0
  8 24  2  0  0  0  0
  9  8  1  1  0  0  0
  9 10  1  0  0  0  0
  9 13  1  0  0  0  0
 10 11  1  0  0  0  0
 11 12  1  0  0  0  0
 14 15  1  0  0  0  0
 14 35  1  0  0  0  0
 15 17  1  0  0  0  0
 16 18  1  6  0  0  0
 16 25  1  0  0  0  0
 19 20  1  1  0  0  0
 19 27  1  0  0  0  0
 21 22  1  0  0  0  0
 21 23  1  0  0  0  0
 23 17  1  0  0  0  0
 25 26  1  1  0  0  0
 25 28  1  0  0  0  0
 27  2  1  1  0  0  0
 27 30  1  0  0  0  0
 28 29  1  0  0  0  0
 28 32  1  6  0  0  0
 30 31  1  6  0  0  0
 30 34  1  0  0  0  0
 32 33  2  0  0  0  0
 34 35  1  6  0  0  0
M  END
>  <CHROM.1>
-169.27188172,-93.04572589,143.83040976,-81.82248427,-63.39825697,67.21196346
42.07898129,156.67272269,-177.62996347,82.18410302,-163.97257475,71.97540912
-79.16703114,3.60853361,-9.55158232,30.53058494,1.52046114,0.19697040,2.77915005

>  <Name>
2f4t_lig

>  <RI>
0

>  <Rbt.Current_Directory>
/home/itssahil/PROJECTS/Mol_Feturizer/New_Systems/rnas/2f4t

>  <Rbt.Executable>
rbdock ($Id: //depot/dev/client3/rdock/2013.1/src/exe/rbdock.cxx#4 $)

>  <Rbt.Library>
libRbt.so (2013.1, Build901 2013/11/27)

>  <Rbt.Parameter_File>
/export/apps/rDock/src/rDock_2013.1_src/data/scripts/dock_solv.prm

>  <Rbt.Receptor>
prm/pocket_docking_5.prm

>  <SCORE>
-7.23263

>  <SCORE.INTER>
-1.18196

>  <SCORE.INTER.CONST>
1

>  <SCORE.INTER.POLAR>
-1.71652

>  <SCORE.INTER.ROT>
13

>  <SCORE.INTER.SOLV>
8.08626

>  <SCORE.INTER.VDW>
-10.0283

>  <SCORE.INTER.norm>
-0.0337702

>  <SCORE.INTRA>
-6.05067

>  <SCORE.INTRA.DIHEDRAL>
-12.089

>  <SCORE.INTRA.DIHEDRAL.0>
23.8882

>  <SCORE.INTRA.POLAR>
0

>  <SCORE.INTRA.POLAR.0>
0

>  <SCORE.INTRA.REPUL>
0

>  <SCORE.INTRA.REPUL.0>
0

>  <SCORE.INTRA.SOLV>
4.40242

>  <SCORE.INTRA.SOLV.lig_0>
-97.6888

>  <SCORE.INTRA.VDW>
-2.20739

>  <SCORE.INTRA.VDW.0>
-3.9206

>  <SCORE.INTRA.norm>
-0.172876

>  <SCORE.RESTR>
0

>  <SCORE.RESTR.CAVITY>
0

>  <SCORE.RESTR.norm>
0

>  <SCORE.SYSTEM>
0

>  <SCORE.SYSTEM.CONST>
0

>  <SCORE.SYSTEM.DIHEDRAL>
0

>  <SCORE.SYSTEM.SOLV>
0

>  <SCORE.SYSTEM.norm>
0

>  <SCORE.heavy>
35

>  <SCORE.norm>
-0.206647

>  <RMSD>
9.238

$$$$
2f4t_lig
 OpenBabel11021811433D
libRbt.so/2013.1/901 2013/11/27
 35 36  0  0  0  0  0  0  0  0999 V2000
    3.2741  -10.0288   31.4771 C   0  0  2  0  0  0  0  0  0  0  0  0
    4.3877   -9.0880   31.6250 O   0  0  0  0  0  0  0  0  0  0  0  0
    7.1714   -7.2981   28.8494 C   0  0  2  0  0  0  0  0  0  0  0  0
    8.2771   -7.1725   27.8879 N   0  0  0  0  0  0  0  0  0  0  0  0
    2.3591   -9.8041   32.7188 C   0  0  2  0  0  0  0  0  0  0  0  0
    1.9440   -8.4234   32.8027 N   0  0  0  0  0  0  0  0  0  0  0  0
    7.6855   -8.0400   30.1374 C   0  0  0  0  0  0  0  0  0  0  0  0
    9.5014   -6.0768   28.5352 C   0  0  0  0  0  0  0  0  0  0  0  0
   10.2646   -6.3467   27.2573 C   0  0  1  0  0  0  0  0  0  0  0  0
   10.0237   -5.1634   26.3172 C   0  0  0  0  0  0  0  0  0  0  0  0
    8.6257   -5.0930   25.6803 C   0  0  0  0  0  0  0  0  0  0  0  0
    8.5852   -3.9370   24.7796 N   0  0  0  0  0  0  0  0  0  0  0  0
   11.6477   -6.3735   27.4950 O   0  0  0  0  0  0  0  0  0  0  0  0
    4.8720   -6.4915   26.2905 C   0  0  0  0  0  0  0  0  0  0  0  0
    3.3826   -6.7983   26.3200 C   0  0  0  0  0  0  0  0  0  0  0  0
    3.1086  -10.2354   34.0244 C   0  0  1  0  0  0  0  0  0  0  0  0
    2.6298   -6.1823   25.2054 N   0  0  0  0  0  0  0  0  0  0  0  0
    2.2929  -10.0436   35.1638 O   0  0  0  0  0  0  0  0  0  0  0  0
    6.5728   -8.2134   31.1805 C   0  0  2  0  0  0  0  0  0  0  0  0
    7.0632   -8.9394   32.3478 N   0  0  0  0  0  0  0  0  0  0  0  0
    0.9413   -6.3388   23.3734 C   0  0  0  0  0  0  0  0  0  0  0  0
   -0.4243   -6.9180   22.8820 N   0  0  0  0  0  0  0  0  0  0  0  0
    1.2701   -6.6828   24.8563 C   0  0  0  0  0  0  0  0  0  0  0  0
    9.5991   -5.5094   29.4339 O   0  0  0  0  0  0  0  0  0  0  0  0
    3.5024  -11.7091   33.8814 C   0  0  2  0  0  0  0  0  0  0  0  0
    4.1776  -12.1694   35.0407 O   0  0  0  0  0  0  0  0  0  0  0  0
    5.4071   -8.9644   30.5870 C   0  0  2  0  0  0  0  0  0  0  0  0
    4.3978  -11.8991   32.6231 C   0  0  2  0  0  0  0  0  0  0  0  0
    3.7255  -11.4387   31.4324 O   0  0  0  0  0  0  0  0  0  0  0  0
    4.8622   -8.2039   29.3027 C   0  0  2  0  0  0  0  0  0  0  0  0
    3.7343   -8.9541   28.7603 O   0  0  0  0  0  0  0  0  0  0  0  0
    4.7817  -13.3170   32.4250 C   0  0  0  0  0  0  0  0  0  0  0  0
    6.0665  -13.4926   32.8047 N   0  0  0  0  0  0  0  0  0  0  0  0
    6.0149   -8.1084   28.2436 C   0  0  1  0  0  0  0  0  0  0  0  0
    5.5601   -7.4707   27.0928 O   0  0  0  0  0  0  0  0  0  0  0  0
  1  2  1  1  0  0  0
  1  5  1  0  0  0  0
  1 29  1  0  0  0  0
  3  4  1  6  0  0  0
  3  7  1  0  0  0  0
  3 34  1  0  0  0  0
  5  6  1  1  0  0  0
  5 16  1  0  0  0  0
  7 19  1  0  0  0  0
  8  4  1  0  0  0  0
  8 24  2  0  0  0  0
  9  8  1  1  0  0  0
  9 10  1  0  0  0  0
  9 13  1  0  0  0  0
 10 11  1  0  0  0  0
 11 12  1  0  0  0  0
 14 15  1  0  0  0  0
 14 35  1  0  0  0  0
 15 17  1  0  0  0  0
 16 18  1  1  0  0  0
 16 25  1  0  0  0  0
 19 20  1  1  0  0  0
 19 27  1  0  0  0  0
 21 22  1  0  0  0  0
 21 23  1  0  0  0  0
 23 17  1  0  0  0  0
 25 26  1  1  0  0  0
 25 28  1  0  0  0  0
 27  2  1  1  0  0  0
 27 30  1  0  0  0  0
 28 29  1  0  0  0  0
 28 32  1  6  0  0  0
 30 31  1  6  0  0  0
 30 34  1  0  0  0  0
 32 33  2  0  0  0  0
 34 35  1  6  0  0  0
M  END
>  <CHROM.1>
-176.17095901,-67.21615953,100.09977337,-73.26526371,-177.96330073,-160.31014611
-76.06304607,162.44495784,175.68804423,-156.46056411,-165.39261302,-103.97672913
-75.92935239,5.34854917,-8.31022751,29.40210247,1.89871561,0.22329348,2.11168882

>  <Name>
2f4t_lig

>  <RI>
0

>  <Rbt.Current_Directory>
/home/itssahil/PROJECTS/Mol_Feturizer/New_Systems/rnas/2f4t

>  <Rbt.Executable>
rbdock ($Id: //depot/dev/client3/rdock/2013.1/src/exe/rbdock.cxx#4 $)

>  <Rbt.Library>
libRbt.so (2013.1, Build901 2013/11/27)

>  <Rbt.Parameter_File>
/export/apps/rDock/src/rDock_2013.1_src/data/scripts/dock_solv.prm

>  <Rbt.Receptor>
prm/pocket_docking_7.prm

>  <SCORE>
-21.273

>  <SCORE.INTER>
-12.768

>  <SCORE.INTER.CONST>
1

>  <SCORE.INTER.POLAR>
-2.20119

>  <SCORE.INTER.ROT>
13

>  <SCORE.INTER.SOLV>
16.2429

>  <SCORE.INTER.VDW>
-18.8557

>  <SCORE.INTER.norm>
-0.3648

>  <SCORE.INTRA>
-8.50497

>  <SCORE.INTRA.DIHEDRAL>
-14.7492

>  <SCORE.INTRA.DIHEDRAL.0>
23.8882

>  <SCORE.INTRA.POLAR>
0

>  <SCORE.INTRA.POLAR.0>
0

>  <SCORE.INTRA.REPUL>
0

>  <SCORE.INTRA.REPUL.0>
0

>  <SCORE.INTRA.SOLV>
-1.19293

>  <SCORE.INTRA.SOLV.lig_0>
-97.6888

>  <SCORE.INTRA.VDW>
-0.533898

>  <SCORE.INTRA.VDW.0>
-3.9206

>  <SCORE.INTRA.norm>
-0.242999

>  <SCORE.RESTR>
0

>  <SCORE.RESTR.CAVITY>
0

>  <SCORE.RESTR.norm>
0

>  <SCORE.SYSTEM>
0

>  <SCORE.SYSTEM.CONST>
0

>  <SCORE.SYSTEM.DIHEDRAL>
0

>  <SCORE.SYSTEM.SOLV>
0

>  <SCORE.SYSTEM.norm>
0

>  <SCORE.heavy>
35

>  <SCORE.norm>
-0.607799

>  <RMSD>
9.270

$$$$
2f4t_lig
 OpenBabel11021811433D
libRbt.so/2013.1/901 2013/11/27
 35 36  0  0  0  0  0  0  0  0999 V2000
    3.3178  -13.7466   30.1432 C   0  0  2  0  0  0  0  0  0  0  0  0
    3.2878  -12.4489   30.8231 O   0  0  0  0  0  0  0  0  0  0  0  0
    4.0047   -8.3477   29.6725 C   0  0  2  0  0  0  0  0  0  0  0  0
    4.7052   -7.1526   29.1788 N   0  0  0  0  0  0  0  0  0  0  0  0
    2.0956  -14.5431   30.6921 C   0  0  2  0  0  0  0  0  0  0  0  0
    0.8713  -13.8068   30.4816 N   0  0  0  0  0  0  0  0  0  0  0  0
    4.8711   -9.0314   30.7930 C   0  0  0  0  0  0  0  0  0  0  0  0
    6.3623   -7.5780   28.7407 C   0  0  0  0  0  0  0  0  0  0  0  0
    6.5191   -6.1243   28.3530 C   0  0  1  0  0  0  0  0  0  0  0  0
    7.5889   -5.5167   29.2631 C   0  0  0  0  0  0  0  0  0  0  0  0
    7.2553   -5.5013   30.7644 C   0  0  0  0  0  0  0  0  0  0  0  0
    8.3981   -4.9343   31.4866 N   0  0  0  0  0  0  0  0  0  0  0  0
    7.0140   -6.0044   27.0450 O   0  0  0  0  0  0  0  0  0  0  0  0
    2.7564   -7.9620   26.3607 C   0  0  0  0  0  0  0  0  0  0  0  0
    3.3090   -6.5629   26.5854 C   0  0  0  0  0  0  0  0  0  0  0  0
    2.2968  -14.8562   32.2133 C   0  0  1  0  0  0  0  0  0  0  0  0
    3.1353   -5.6648   25.4227 N   0  0  0  0  0  0  0  0  0  0  0  0
    1.1996  -15.5835   32.7304 O   0  0  0  0  0  0  0  0  0  0  0  0
    4.1983  -10.2958   31.3451 C   0  0  2  0  0  0  0  0  0  0  0  0
    5.0390  -10.9340   32.3532 N   0  0  0  0  0  0  0  0  0  0  0  0
    1.3032   -6.1374   23.7943 C   0  0  0  0  0  0  0  0  0  0  0  0
   -0.1571   -5.8390   23.3248 N   0  0  0  0  0  0  0  0  0  0  0  0
    1.7678   -5.2572   24.9921 C   0  0  0  0  0  0  0  0  0  0  0  0
    6.9358   -8.4779   28.7634 O   0  0  0  0  0  0  0  0  0  0  0  0
    3.5964  -15.6532   32.3665 C   0  0  2  0  0  0  0  0  0  0  0  0
    3.8334  -15.9820   33.7258 O   0  0  0  0  0  0  0  0  0  0  0  0
    3.9309  -11.2785   30.2325 C   0  0  2  0  0  0  0  0  0  0  0  0
    4.7900  -14.8372   31.7916 C   0  0  2  0  0  0  0  0  0  0  0  0
    4.5676  -14.4960   30.4075 O   0  0  0  0  0  0  0  0  0  0  0  0
    3.0295  -10.6043   29.1110 C   0  0  2  0  0  0  0  0  0  0  0  0
    2.7871  -11.5836   28.0569 O   0  0  0  0  0  0  0  0  0  0  0  0
    6.0684  -15.5806   31.8907 C   0  0  0  0  0  0  0  0  0  0  0  0
    6.6246  -15.3599   33.1022 N   0  0  0  0  0  0  0  0  0  0  0  0
    3.7862   -9.3574   28.5350 C   0  0  1  0  0  0  0  0  0  0  0  0
    3.0332   -8.7597   27.5282 O   0  0  0  0  0  0  0  0  0  0  0  0
  1  2  1  1  0  0  0
  1  5  1  0  0  0  0
  1 29  1  0  0  0  0
  3  4  1  6  0  0  0
  3  7  1  0  0  0  0
  3 34  1  0  0  0  0
  5  6  1  1  0  0  0
  5 16  1  0  0  0  0
  7 19  1  0  0  0  0
  8  4  1  0  0  0  0
  8 24  2  0  0  0  0
  9  8  1  1  0  0  0
  9 10  1  0  0  0  0
  9 13  1  0  0  0  0
 10 11  1  0  0  0  0
 11 12  1  0  0  0  0
 14 15  1  0  0  0  0
 14 35  1  0  0  0  0
 15 17  1  0  0  0  0
 16 18  1  6  0  0  0
 16 25  1  0  0  0  0
 19 20  1  1  0  0  0
 19 27  1  0  0  0  0
 21 22  1  0  0  0  0
 21 23  1  0  0  0  0
 23 17  1  0  0  0  0
 25 26  1  1  0  0  0
 25 28  1  0  0  0  0
 27  2  1  1  0  0  0
 27 30  1  0  0  0  0
 28 29  1  0  0  0  0
 28 32  1  6  0  0  0
 30 31  1  6  0  0  0
 30 34  1  0  0  0  0
 32 33  2  0  0  0  0
 34 35  1  6  0  0  0
M  END
>  <CHROM.1>
-156.51237389,51.38041010,117.15209554,-62.74084453,178.01752381,177.46787181
-54.57662295,65.84894590,176.63666946,-98.87424573,-158.37603282,-86.43542613
83.00440573,4.11110737,-10.17714926,29.47798770,1.63173893,0.61036587,2.56931477

>  <Name>
2f4t_lig

>  <RI>
0

>  <Rbt.Current_Directory>
/home/itssahil/PROJECTS/Mol_Feturizer/New_Systems/rnas/2f4t

>  <Rbt.Executable>
rbdock ($Id: //depot/dev/client3/rdock/2013.1/src/exe/rbdock.cxx#4 $)

>  <Rbt.Library>
libRbt.so (2013.1, Build901 2013/11/27)

>  <Rbt.Parameter_File>
/export/apps/rDock/src/rDock_2013.1_src/data/scripts/dock_solv.prm

>  <Rbt.Receptor>
prm/pocket_docking_4.prm

>  <SCORE>
-17.7376

>  <SCORE.INTER>
-12.0357

>  <SCORE.INTER.CONST>
1

>  <SCORE.INTER.POLAR>
-2.8892

>  <SCORE.INTER.ROT>
13

>  <SCORE.INTER.SOLV>
15.0849

>  <SCORE.INTER.VDW>
-15.6881

>  <SCORE.INTER.norm>
-0.343878

>  <SCORE.INTRA>
-5.70404

>  <SCORE.INTRA.DIHEDRAL>
-12.0793

>  <SCORE.INTRA.DIHEDRAL.0>
23.8882

>  <SCORE.INTRA.POLAR>
0

>  <SCORE.INTRA.POLAR.0>
0

>  <SCORE.INTRA.REPUL>
0

>  <SCORE.INTRA.REPUL.0>
0

>  <SCORE.INTRA.SOLV>
0.565585

>  <SCORE.INTRA.SOLV.lig_0>
-97.6888

>  <SCORE.INTRA.VDW>
0.0527979

>  <SCORE.INTRA.VDW.0>
-3.9206

>  <SCORE.INTRA.norm>
-0.162973

>  <SCORE.RESTR>
0.00217756

>  <SCORE.RESTR.CAVITY>
0.00217756

>  <SCORE.RESTR.norm>
6.22161e-05

>  <SCORE.SYSTEM>
0

>  <SCORE.SYSTEM.CONST>
0

>  <SCORE.SYSTEM.DIHEDRAL>
0

>  <SCORE.SYSTEM.SOLV>
0

>  <SCORE.SYSTEM.norm>
0

>  <SCORE.heavy>
35

>  <SCORE.norm>
-0.506789

>  <RMSD>
9.271

$$$$
2f4t_lig
 OpenBabel11021811433D
libRbt.so/2013.1/901 2013/11/27
 35 36  0  0  0  0  0  0  0  0999 V2000
    8.2380   -4.3105   25.7597 C   0  0  2  0  0  0  0  0  0  0  0  0
    7.5693   -5.0010   26.8657 O   0  0  0  0  0  0  0  0  0  0  0  0
    3.3732   -5.9360   27.2852 C   0  0  2  0  0  0  0  0  0  0  0  0
    1.9519   -5.7882   27.6329 N   0  0  0  0  0  0  0  0  0  0  0  0
    9.7659   -4.5089   25.9958 C   0  0  2  0  0  0  0  0  0  0  0  0
   10.0900   -5.9135   26.0826 N   0  0  0  0  0  0  0  0  0  0  0  0
    4.2531   -5.6056   28.5463 C   0  0  0  0  0  0  0  0  0  0  0  0
    1.5930   -4.0868   27.9413 C   0  0  0  0  0  0  0  0  0  0  0  0
    0.1739   -4.5435   28.1977 C   0  0  1  0  0  0  0  0  0  0  0  0
   -0.2339   -4.0291   29.5801 C   0  0  0  0  0  0  0  0  0  0  0  0
   -1.5770   -4.5529   30.1158 C   0  0  0  0  0  0  0  0  0  0  0  0
   -2.6580   -3.9096   29.3630 N   0  0  0  0  0  0  0  0  0  0  0  0
   -0.7162   -3.9503   27.2888 O   0  0  0  0  0  0  0  0  0  0  0  0
    1.7782   -5.4118   24.2473 C   0  0  0  0  0  0  0  0  0  0  0  0
    1.0254   -6.6293   24.7618 C   0  0  0  0  0  0  0  0  0  0  0  0
   10.2113   -3.7583   27.2960 C   0  0  1  0  0  0  0  0  0  0  0  0
   -0.0988   -7.0402   23.8924 N   0  0  0  0  0  0  0  0  0  0  0  0
   11.5972   -3.9219   27.5261 O   0  0  0  0  0  0  0  0  0  0  0  0
    5.7533   -5.7312   28.2463 C   0  0  2  0  0  0  0  0  0  0  0  0
    6.5489   -5.3807   29.4186 N   0  0  0  0  0  0  0  0  0  0  0  0
    0.5115   -7.5944   21.5362 C   0  0  0  0  0  0  0  0  0  0  0  0
    0.5953   -8.6800   20.4153 N   0  0  0  0  0  0  0  0  0  0  0  0
    0.0779   -8.1575   22.9219 C   0  0  0  0  0  0  0  0  0  0  0  0
    2.1665   -3.1867   27.9334 O   0  0  0  0  0  0  0  0  0  0  0  0
    9.8600   -2.2759   27.1328 C   0  0  2  0  0  0  0  0  0  0  0  0
   10.2500   -1.5325   28.2760 O   0  0  0  0  0  0  0  0  0  0  0  0
    6.1387   -4.8282   27.1013 C   0  0  2  0  0  0  0  0  0  0  0  0
    8.3329   -2.1174   26.8799 C   0  0  2  0  0  0  0  0  0  0  0  0
    7.9181   -2.8651   25.7178 O   0  0  0  0  0  0  0  0  0  0  0  0
    5.2752   -5.1772   25.8138 C   0  0  2  0  0  0  0  0  0  0  0  0
    5.6785   -4.2902   24.7277 O   0  0  0  0  0  0  0  0  0  0  0  0
    7.9475   -0.6994   26.6861 C   0  0  0  0  0  0  0  0  0  0  0  0
    7.2129   -0.2843   27.7415 N   0  0  0  0  0  0  0  0  0  0  0  0
    3.7575   -4.9728   26.1513 C   0  0  1  0  0  0  0  0  0  0  0  0
    2.9745   -5.2440   25.0327 O   0  0  0  0  0  0  0  0  0  0  0  0
  1  2  1  1  0  0  0
  1  5  1  0  0  0  0
  1 29  1  0  0  0  0
  3  4  1  1  0  0  0
  3  7  1  0  0  0  0
  3 34  1  0  0  0  0
  5  6  1  1  0  0  0
  5 16  1  0  0  0  0
  7 19  1  0  0  0  0
  8  4  1  0  0  0  0
  8 24  2  0  0  0  0
  9  8  1  6  0  0  0
  9 10  1  0  0  0  0
  9 13  1  0  0  0  0
 10 11  1  0  0  0  0
 11 12  1  0  0  0  0
 14 15  1  0  0  0  0
 14 35  1  0  0  0  0
 15 17  1  0  0  0  0
 16 18  1  6  0  0  0
 16 25  1  0  0  0  0
 19 20  1  1  0  0  0
 19 27  1  0  0  0  0
 21 22  1  0  0  0  0
 21 23  1  0  0  0  0
 23 17  1  0  0  0  0
 25 26  1  1  0  0  0
 25 28  1  0  0  0  0
 27  2  1  6  0  0  0
 27 30  1  0  0  0  0
 28 29  1  0  0  0  0
 28 32  1  6  0  0  0
 30 31  1  6  0  0  0
 30 34  1  0  0  0  0
 32 33  2  0  0  0  0
 34 35  1  6  0  0  0
M  END
>  <CHROM.1>
169.14681180,67.59659921,125.85358852,-171.76229094,-72.54852422,-170.18100762
-67.72380485,98.76944957,-174.70771715,-92.81596386,176.53801936,-110.99808702
58.39634207,4.50254403,-4.61365772,26.56468733,-0.24956673,-0.16522984,-2.13058738

>  <Name>
2f4t_lig

>  <RI>
0

>  <Rbt.Current_Directory>
/home/itssahil/PROJECTS/Mol_Feturizer/New_Systems/rnas/2f4t

>  <Rbt.Executable>
rbdock ($Id: //depot/dev/client3/rdock/2013.1/src/exe/rbdock.cxx#4 $)

>  <Rbt.Library>
libRbt.so (2013.1, Build901 2013/11/27)

>  <Rbt.Parameter_File>
/export/apps/rDock/src/rDock_2013.1_src/data/scripts/dock_solv.prm

>  <Rbt.Receptor>
prm/pocket_docking_8.prm

>  <SCORE>
-10.6523

>  <SCORE.INTER>
-2.48627

>  <SCORE.INTER.CONST>
1

>  <SCORE.INTER.POLAR>
-0.933253

>  <SCORE.INTER.ROT>
13

>  <SCORE.INTER.SOLV>
20.7856

>  <SCORE.INTER.VDW>
-17.7419

>  <SCORE.INTER.norm>
-0.0710363

>  <SCORE.INTRA>
-8.16599

>  <SCORE.INTRA.DIHEDRAL>
-16.8431

>  <SCORE.INTRA.DIHEDRAL.0>
23.8882

>  <SCORE.INTRA.POLAR>
0

>  <SCORE.INTRA.POLAR.0>
0

>  <SCORE.INTRA.REPUL>
0

>  <SCORE.INTRA.REPUL.0>
0

>  <SCORE.INTRA.SOLV>
0.995446

>  <SCORE.INTRA.SOLV.lig_0>
-97.6888

>  <SCORE.INTRA.VDW>
-0.242138

>  <SCORE.INTRA.VDW.0>
-3.9206

>  <SCORE.INTRA.norm>
-0.233314

>  <SCORE.RESTR>
0

>  <SCORE.RESTR.CAVITY>
0

>  <SCORE.RESTR.norm>
0

>  <SCORE.SYSTEM>
0

>  <SCORE.SYSTEM.CONST>
0

>  <SCORE.SYSTEM.DIHEDRAL>
0

>  <SCORE.SYSTEM.SOLV>
0

>  <SCORE.SYSTEM.norm>
0

>  <SCORE.heavy>
35

>  <SCORE.norm>
-0.30435

>  <RMSD>
9.281

$$$$
2f4t_lig
 OpenBabel11021811433D
libRbt.so/2013.1/901 2013/11/27
 35 36  0  0  0  0  0  0  0  0999 V2000
    3.8083  -14.6258   30.1713 C   0  0  2  0  0  0  0  0  0  0  0  0
    3.4794  -13.3293   30.7697 O   0  0  0  0  0  0  0  0  0  0  0  0
    4.7488   -9.2015   30.6850 C   0  0  2  0  0  0  0  0  0  0  0  0
    5.5852   -8.0171   30.4393 N   0  0  0  0  0  0  0  0  0  0  0  0
    2.6552  -15.5899   30.5840 C   0  0  2  0  0  0  0  0  0  0  0  0
    1.3772  -15.0652   30.1636 N   0  0  0  0  0  0  0  0  0  0  0  0
    5.5972  -10.2879   31.4423 C   0  0  0  0  0  0  0  0  0  0  0  0
    6.1231   -7.3436   31.9807 C   0  0  0  0  0  0  0  0  0  0  0  0
    6.8465   -6.3051   31.1522 C   0  0  1  0  0  0  0  0  0  0  0  0
    7.3187   -5.2030   32.1031 C   0  0  0  0  0  0  0  0  0  0  0  0
    7.9090   -3.9519   31.4313 C   0  0  0  0  0  0  0  0  0  0  0  0
    8.2737   -2.9929   32.4784 N   0  0  0  0  0  0  0  0  0  0  0  0
    8.0094   -6.8422   30.5784 O   0  0  0  0  0  0  0  0  0  0  0  0
    3.2525   -7.6448   27.9146 C   0  0  0  0  0  0  0  0  0  0  0  0
    3.5913   -6.4405   28.7796 C   0  0  0  0  0  0  0  0  0  0  0  0
    2.6748  -15.8201   32.1329 C   0  0  1  0  0  0  0  0  0  0  0  0
    3.3615   -5.1443   28.1044 N   0  0  0  0  0  0  0  0  0  0  0  0
    1.6379  -16.6970   32.5281 O   0  0  0  0  0  0  0  0  0  0  0  0
    4.7823  -11.5587   31.7208 C   0  0  2  0  0  0  0  0  0  0  0  0
    5.6017  -12.5660   32.3870 N   0  0  0  0  0  0  0  0  0  0  0  0
    3.6495   -4.1438   25.8356 C   0  0  0  0  0  0  0  0  0  0  0  0
    2.9397   -5.2942   25.0516 N   0  0  0  0  0  0  0  0  0  0  0  0
    4.3645   -4.6197   27.1347 C   0  0  0  0  0  0  0  0  0  0  0  0
    5.9705   -7.6016   33.0051 O   0  0  0  0  0  0  0  0  0  0  0  0
    4.0441  -16.3946   32.5105 C   0  0  2  0  0  0  0  0  0  0  0  0
    4.1252  -16.6396   33.9053 O   0  0  0  0  0  0  0  0  0  0  0  0
    4.2457  -12.1328   30.4333 C   0  0  2  0  0  0  0  0  0  0  0  0
    5.1702  -15.4166   32.0671 C   0  0  2  0  0  0  0  0  0  0  0  0
    5.1053  -15.1578   30.6492 O   0  0  0  0  0  0  0  0  0  0  0  0
    3.3613  -11.0504   29.6775 C   0  0  2  0  0  0  0  0  0  0  0  0
    2.8556  -11.6415   28.4430 O   0  0  0  0  0  0  0  0  0  0  0  0
    6.5186  -15.9431   32.3854 C   0  0  0  0  0  0  0  0  0  0  0  0
    6.7136  -15.9028   33.7218 N   0  0  0  0  0  0  0  0  0  0  0  0
    4.2532   -9.8003   29.3595 C   0  0  1  0  0  0  0  0  0  0  0  0
    3.5132   -8.8432   28.6709 O   0  0  0  0  0  0  0  0  0  0  0  0
  1  2  1  1  0  0  0
  1  5  1  0  0  0  0
  1 29  1  0  0  0  0
  3  4  1  6  0  0  0
  3  7  1  0  0  0  0
  3 34  1  0  0  0  0
  5  6  1  1  0  0  0
  5 16  1  0  0  0  0
  7 19  1  0  0  0  0
  8  4  1  0  0  0  0
  8 24  2  0  0  0  0
  9  8  1  1  0  0  0
  9 10  1  0  0  0  0
  9 13  1  0  0  0  0
 10 11  1  0  0  0  0
 11 12  1  0  0  0  0
 14 15  1  0  0  0  0
 14 35  1  0  0  0  0
 15 17  1  0  0  0  0
 16 18  1  6  0  0  0
 16 25  1  0  0  0  0
 19 20  1  6  0  0  0
 19 27  1  0  0  0  0
 21 22  1  0  0  0  0
 21 23  1  0  0  0  0
 23 17  1  0  0  0  0
 25 26  1  1  0  0  0
 25 28  1  0  0  0  0
 27  2  1  1  0  0  0
 27 30  1  0  0  0  0
 28 29  1  0  0  0  0
 28 32  1  6  0  0  0
 30 31  1  6  0  0  0
 30 34  1  0  0  0  0
 32 33  2  0  0  0  0
 34 35  1  1  0  0  0
M  END
>  <CHROM.1>
-171.21180656,-60.98554130,168.60128193,-171.83883274,178.52624465,-179.97675537
-64.57626267,-79.72374264,-64.12076797,132.41991961,-123.40842310,-71.10328226
70.22071221,4.65972877,-10.44212005,30.58065045,1.78153551,0.80983606,2.73567848

>  <Name>
2f4t_lig

>  <RI>
0

>  <Rbt.Current_Directory>
/home/itssahil/PROJECTS/Mol_Feturizer/New_Systems/rnas/2f4t

>  <Rbt.Executable>
rbdock ($Id: //depot/dev/client3/rdock/2013.1/src/exe/rbdock.cxx#4 $)

>  <Rbt.Library>
libRbt.so (2013.1, Build901 2013/11/27)

>  <Rbt.Parameter_File>
/export/apps/rDock/src/rDock_2013.1_src/data/scripts/dock_solv.prm

>  <Rbt.Receptor>
prm/pocket_docking_6.prm

>  <SCORE>
-10.0077

>  <SCORE.INTER>
-6.2971

>  <SCORE.INTER.CONST>
1

>  <SCORE.INTER.POLAR>
-1.96902

>  <SCORE.INTER.ROT>
13

>  <SCORE.INTER.SOLV>
15.0547

>  <SCORE.INTER.VDW>
-14.9196

>  <SCORE.INTER.norm>
-0.179917

>  <SCORE.INTRA>
-3.71058

>  <SCORE.INTRA.DIHEDRAL>
-11.4048

>  <SCORE.INTRA.DIHEDRAL.0>
23.8882

>  <SCORE.INTRA.POLAR>
0

>  <SCORE.INTRA.POLAR.0>
0

>  <SCORE.INTRA.REPUL>
0

>  <SCORE.INTRA.REPUL.0>
0

>  <SCORE.INTRA.SOLV>
4.19172

>  <SCORE.INTRA.SOLV.lig_0>
-97.6888

>  <SCORE.INTRA.VDW>
-0.104023

>  <SCORE.INTRA.VDW.0>
-3.9206

>  <SCORE.INTRA.norm>
-0.106017

>  <SCORE.RESTR>
0

>  <SCORE.RESTR.CAVITY>
0

>  <SCORE.RESTR.norm>
0

>  <SCORE.SYSTEM>
0

>  <SCORE.SYSTEM.CONST>
0

>  <SCORE.SYSTEM.DIHEDRAL>
0

>  <SCORE.SYSTEM.SOLV>
0

>  <SCORE.SYSTEM.norm>
0

>  <SCORE.heavy>
35

>  <SCORE.norm>
-0.285934

>  <RMSD>
9.323

$$$$
2f4t_lig
 OpenBabel11021811433D
libRbt.so/2013.1/901 2013/11/27
 35 36  0  0  0  0  0  0  0  0999 V2000
    8.5701   -3.4632   22.1791 C   0  0  2  0  0  0  0  0  0  0  0  0
    9.6399   -4.4335   22.4267 O   0  0  0  0  0  0  0  0  0  0  0  0
    9.8979   -4.4068   26.7383 C   0  0  2  0  0  0  0  0  0  0  0  0
   10.1415   -4.8732   28.1116 N   0  0  0  0  0  0  0  0  0  0  0  0
    8.8304   -2.8980   20.7500 C   0  0  2  0  0  0  0  0  0  0  0  0
    8.8791   -3.9670   19.7803 N   0  0  0  0  0  0  0  0  0  0  0  0
    8.9761   -5.4416   25.9946 C   0  0  0  0  0  0  0  0  0  0  0  0
   11.2193   -6.2717   28.0781 C   0  0  0  0  0  0  0  0  0  0  0  0
   11.1005   -6.2644   29.5861 C   0  0  1  0  0  0  0  0  0  0  0  0
    9.7568   -6.9020   29.9464 C   0  0  0  0  0  0  0  0  0  0  0  0
    9.2942   -6.7037   31.3996 C   0  0  0  0  0  0  0  0  0  0  0  0
    9.3691   -5.2748   31.7182 N   0  0  0  0  0  0  0  0  0  0  0  0
   12.0821   -7.0799   30.1707 O   0  0  0  0  0  0  0  0  0  0  0  0
   13.1970   -2.5317   26.8401 C   0  0  0  0  0  0  0  0  0  0  0  0
   13.3234   -2.2595   28.3312 C   0  0  0  0  0  0  0  0  0  0  0  0
   10.1626   -2.0749   20.7315 C   0  0  1  0  0  0  0  0  0  0  0  0
   12.2322   -1.4206   28.8735 N   0  0  0  0  0  0  0  0  0  0  0  0
   10.4152   -1.5486   19.4432 O   0  0  0  0  0  0  0  0  0  0  0  0
    8.6913   -5.0175   24.5471 C   0  0  2  0  0  0  0  0  0  0  0  0
    7.8687   -6.0125   23.8662 N   0  0  0  0  0  0  0  0  0  0  0  0
   10.8931   -3.0100   30.2563 C   0  0  0  0  0  0  0  0  0  0  0  0
   10.5149   -2.3722   31.6319 N   0  0  0  0  0  0  0  0  0  0  0  0
   10.8732   -1.9998   29.0712 C   0  0  0  0  0  0  0  0  0  0  0  0
   11.7036   -6.8261   27.3053 O   0  0  0  0  0  0  0  0  0  0  0  0
   10.0395   -0.9485   21.7628 C   0  0  2  0  0  0  0  0  0  0  0  0
   11.2134   -0.1529   21.7887 O   0  0  0  0  0  0  0  0  0  0  0  0
    9.9818   -4.8411   23.7865 C   0  0  2  0  0  0  0  0  0  0  0  0
    9.7611   -1.5475   23.1717 C   0  0  2  0  0  0  0  0  0  0  0  0
    8.5677   -2.3582   23.1653 O   0  0  0  0  0  0  0  0  0  0  0  0
   10.9056   -3.7733   24.5153 C   0  0  2  0  0  0  0  0  0  0  0  0
   12.1391   -3.6246   23.7501 O   0  0  0  0  0  0  0  0  0  0  0  0
    9.6047   -0.4928   24.2012 C   0  0  0  0  0  0  0  0  0  0  0  0
   10.6390   -0.5536   25.0686 N   0  0  0  0  0  0  0  0  0  0  0  0
   11.2199   -4.2813   25.9653 C   0  0  1  0  0  0  0  0  0  0  0  0
   12.0525   -3.3793   26.6219 O   0  0  0  0  0  0  0  0  0  0  0  0
  1  2  1  1  0  0  0
  1  5  1  0  0  0  0
  1 29  1  0  0  0  0
  3  4  1  1  0  0  0
  3  7  1  0  0  0  0
  3 34  1  0  0  0  0
  5  6  1  6  0  0  0
  5 16  1  0  0  0  0
  7 19  1  0  0  0  0
  8  4  1  0  0  0  0
  8 24  2  0  0  0  0
  9  8  1  6  0  0  0
  9 10  1  0  0  0  0
  9 13  1  0  0  0  0
 10 11  1  0  0  0  0
 11 12  1  0  0  0  0
 14 15  1  0  0  0  0
 14 35  1  0  0  0  0
 15 17  1  0  0  0  0
 16 18  1  6  0  0  0
 16 25  1  0  0  0  0
 19 20  1  6  0  0  0
 19 27  1  0  0  0  0
 21 22  1  0  0  0  0
 21 23  1  0  0  0  0
 23 17  1  0  0  0  0
 25 26  1  1  0  0  0
 25 28  1  0  0  0  0
 27  2  1  6  0  0  0
 27 30  1  0  0  0  0
 28 29  1  0  0  0  0
 28 32  1  1  0  0  0
 30 31  1  6  0  0  0
 30 34  1  0  0  0  0
 32 33  2  0  0  0  0
 34 35  1  1  0  0  0
M  END
>  <CHROM.1>
159.98687710,71.47189472,78.53073545,-166.48606815,51.15549729,-68.05505123
-159.52557708,74.24863162,92.76892823,70.67580736,41.06498834,-112.67019839
-171.98487104,10.42068161,-3.68367062,25.74708986,1.84206810,-1.11580734
-1.01614884

>  <Name>
2f4t_lig

>  <RI>
0

>  <Rbt.Current_Directory>
/home/itssahil/PROJECTS/Mol_Feturizer/New_Systems/rnas/2f4t

>  <Rbt.Executable>
rbdock ($Id: //depot/dev/client3/rdock/2013.1/src/exe/rbdock.cxx#4 $)

>  <Rbt.Library>
libRbt.so (2013.1, Build901 2013/11/27)

>  <Rbt.Parameter_File>
/export/apps/rDock/src/rDock_2013.1_src/data/scripts/dock_solv.prm

>  <Rbt.Receptor>
prm/blind_docking_60.prm

>  <SCORE>
-2.55334

>  <SCORE.INTER>
-7.10009

>  <SCORE.INTER.CONST>
1

>  <SCORE.INTER.POLAR>
-1.35979

>  <SCORE.INTER.ROT>
13

>  <SCORE.INTER.SOLV>
19.5497

>  <SCORE.INTER.VDW>
-18.984

>  <SCORE.INTER.norm>
-0.20286

>  <SCORE.INTRA>
-1.77062

>  <SCORE.INTRA.DIHEDRAL>
-11.6331

>  <SCORE.INTRA.DIHEDRAL.0>
23.8882

>  <SCORE.INTRA.POLAR>
0

>  <SCORE.INTRA.POLAR.0>
0

>  <SCORE.INTRA.REPUL>
0

>  <SCORE.INTRA.REPUL.0>
0

>  <SCORE.INTRA.SOLV>
8.54712

>  <SCORE.INTRA.SOLV.lig_0>
-97.6888

>  <SCORE.INTRA.VDW>
-0.227624

>  <SCORE.INTRA.VDW.0>
-3.9206

>  <SCORE.INTRA.norm>
-0.0505891

>  <SCORE.RESTR>
6.31737

>  <SCORE.RESTR.CAVITY>
6.31737

>  <SCORE.RESTR.norm>
0.180496

>  <SCORE.SYSTEM>
0

>  <SCORE.SYSTEM.CONST>
0

>  <SCORE.SYSTEM.DIHEDRAL>
0

>  <SCORE.SYSTEM.SOLV>
0

>  <SCORE.SYSTEM.norm>
0

>  <SCORE.heavy>
35

>  <SCORE.norm>
-0.0729526

>  <RMSD>
9.343

$$$$
2f4t_lig
 OpenBabel11021811433D
libRbt.so/2013.1/901 2013/11/27
 35 36  0  0  0  0  0  0  0  0999 V2000
    2.8960  -12.2987   33.1760 C   0  0  2  0  0  0  0  0  0  0  0  0
    3.7222  -11.1486   32.7993 O   0  0  0  0  0  0  0  0  0  0  0  0
    3.5011   -7.8787   29.9858 C   0  0  2  0  0  0  0  0  0  0  0  0
    3.3459   -7.1578   28.7135 N   0  0  0  0  0  0  0  0  0  0  0  0
    3.5915  -12.9339   34.4179 C   0  0  2  0  0  0  0  0  0  0  0  0
    3.7421  -11.9584   35.4721 N   0  0  0  0  0  0  0  0  0  0  0  0
    4.5674   -9.0210   29.8083 C   0  0  0  0  0  0  0  0  0  0  0  0
    4.8158   -6.2410   28.3707 C   0  0  0  0  0  0  0  0  0  0  0  0
    4.1160   -5.7977   27.1051 C   0  0  1  0  0  0  0  0  0  0  0  0
    4.9703   -4.7012   26.4650 C   0  0  0  0  0  0  0  0  0  0  0  0
    6.3526   -5.1450   25.9579 C   0  0  0  0  0  0  0  0  0  0  0  0
    7.1262   -3.9478   25.6152 N   0  0  0  0  0  0  0  0  0  0  0  0
    4.0650   -6.8415   26.1680 O   0  0  0  0  0  0  0  0  0  0  0  0
    0.3216   -6.4469   30.1758 C   0  0  0  0  0  0  0  0  0  0  0  0
    1.1324   -5.3660   29.4774 C   0  0  0  0  0  0  0  0  0  0  0  0
    4.9830  -13.5260   34.0110 C   0  0  1  0  0  0  0  0  0  0  0  0
    0.3259   -4.1975   29.0619 N   0  0  0  0  0  0  0  0  0  0  0  0
    5.6294  -14.1121   35.1240 O   0  0  0  0  0  0  0  0  0  0  0  0
    4.7694   -9.8216   31.1024 C   0  0  2  0  0  0  0  0  0  0  0  0
    5.7320  -10.9001   30.9016 N   0  0  0  0  0  0  0  0  0  0  0  0
    0.7197   -4.2816   26.5983 C   0  0  0  0  0  0  0  0  0  0  0  0
    0.1069   -4.3142   25.1612 N   0  0  0  0  0  0  0  0  0  0  0  0
   -0.3450   -4.1887   27.7311 C   0  0  0  0  0  0  0  0  0  0  0  0
    5.7473   -6.1033   28.8733 O   0  0  0  0  0  0  0  0  0  0  0  0
    4.7532  -14.5648   32.9084 C   0  0  2  0  0  0  0  0  0  0  0  0
    5.9781  -15.1521   32.5004 O   0  0  0  0  0  0  0  0  0  0  0  0
    3.4606  -10.4096   31.5675 C   0  0  2  0  0  0  0  0  0  0  0  0
    4.0410  -13.9012   31.6945 C   0  0  2  0  0  0  0  0  0  0  0  0
    2.7903  -13.3006   32.0904 O   0  0  0  0  0  0  0  0  0  0  0  0
    2.3869   -9.2575   31.7791 C   0  0  2  0  0  0  0  0  0  0  0  0
    1.1387   -9.8614   32.2335 O   0  0  0  0  0  0  0  0  0  0  0  0
    3.7700  -14.8752   30.6107 C   0  0  0  0  0  0  0  0  0  0  0  0
    4.7705  -14.8292   29.7037 N   0  0  0  0  0  0  0  0  0  0  0  0
    2.1690   -8.5119   30.4168 C   0  0  1  0  0  0  0  0  0  0  0  0
    1.2109   -7.5125   30.5625 O   0  0  0  0  0  0  0  0  0  0  0  0
  1  2  1  6  0  0  0
  1  5  1  0  0  0  0
  1 29  1  0  0  0  0
  3  4  1  6  0  0  0
  3  7  1  0  0  0  0
  3 34  1  0  0  0  0
  5  6  1  1  0  0  0
  5 16  1  0  0  0  0
  7 19  1  0  0  0  0
  8  4  1  0  0  0  0
  8 24  2  0  0  0  0
  9  8  1  1  0  0  0
  9 10  1  0  0  0  0
  9 13  1  0  0  0  0
 10 11  1  0  0  0  0
 11 12  1  0  0  0  0
 14 15  1  0  0  0  0
 14 35  1  0  0  0  0
 15 17  1  0  0  0  0
 16 18  1  1  0  0  0
 16 25  1  0  0  0  0
 19 20  1  6  0  0  0
 19 27  1  0  0  0  0
 21 22  1  0  0  0  0
 21 23  1  0  0  0  0
 23 17  1  0  0  0  0
 25 26  1  6  0  0  0
 25 28  1  0  0  0  0
 27  2  1  1  0  0  0
 27 30  1  0  0  0  0
 28 29  1  0  0  0  0
 28 32  1  6  0  0  0
 30 31  1  6  0  0  0
 30 34  1  0  0  0  0
 32 33  2  0  0  0  0
 34 35  1  1  0  0  0
M  END
>  <CHROM.1>
172.30311121,-68.94608779,170.91470447,65.59526079,-169.43474732,-178.56078941
-55.28633179,-88.13047344,178.59285865,-61.62991282,-151.56759071,-94.90162373
64.57971976,3.49600227,-9.16377866,30.24748264,1.40905387,-0.44129408,2.47445042

>  <Name>
2f4t_lig

>  <RI>
0

>  <Rbt.Current_Directory>
/home/itssahil/PROJECTS/Mol_Feturizer/New_Systems/rnas/2f4t

>  <Rbt.Executable>
rbdock ($Id: //depot/dev/client3/rdock/2013.1/src/exe/rbdock.cxx#4 $)

>  <Rbt.Library>
libRbt.so (2013.1, Build901 2013/11/27)

>  <Rbt.Parameter_File>
/export/apps/rDock/src/rDock_2013.1_src/data/scripts/dock_solv.prm

>  <Rbt.Receptor>
prm/pocket_docking_6.prm

>  <SCORE>
-6.28456

>  <SCORE.INTER>
1.3154

>  <SCORE.INTER.CONST>
1

>  <SCORE.INTER.POLAR>
-0.859417

>  <SCORE.INTER.ROT>
13

>  <SCORE.INTER.SOLV>
19.1269

>  <SCORE.INTER.VDW>
-14.9006

>  <SCORE.INTER.norm>
0.0375828

>  <SCORE.INTRA>
-7.60337

>  <SCORE.INTRA.DIHEDRAL>
-16.9072

>  <SCORE.INTRA.DIHEDRAL.0>
23.8882

>  <SCORE.INTRA.POLAR>
0

>  <SCORE.INTRA.POLAR.0>
0

>  <SCORE.INTRA.REPUL>
0

>  <SCORE.INTRA.REPUL.0>
0

>  <SCORE.INTRA.SOLV>
0.829718

>  <SCORE.INTRA.SOLV.lig_0>
-97.6888

>  <SCORE.INTRA.VDW>
0.435372

>  <SCORE.INTRA.VDW.0>
-3.9206

>  <SCORE.INTRA.norm>
-0.217239

>  <SCORE.RESTR>
0.00341036

>  <SCORE.RESTR.CAVITY>
0.00341036

>  <SCORE.RESTR.norm>
9.7439e-05

>  <SCORE.SYSTEM>
0

>  <SCORE.SYSTEM.CONST>
0

>  <SCORE.SYSTEM.DIHEDRAL>
0

>  <SCORE.SYSTEM.SOLV>
0

>  <SCORE.SYSTEM.norm>
0

>  <SCORE.heavy>
35

>  <SCORE.norm>
-0.179559

>  <RMSD>
9.343

$$$$
2f4t_lig
 OpenBabel11021811433D
libRbt.so/2013.1/901 2013/11/27
 35 36  0  0  0  0  0  0  0  0999 V2000
    3.3768  -13.6926   29.9377 C   0  0  2  0  0  0  0  0  0  0  0  0
    3.3484  -12.4012   30.6297 O   0  0  0  0  0  0  0  0  0  0  0  0
    4.4595   -8.3253   29.7297 C   0  0  2  0  0  0  0  0  0  0  0  0
    5.2782   -7.1731   29.3238 N   0  0  0  0  0  0  0  0  0  0  0  0
    2.0774  -14.4364   30.3713 C   0  0  2  0  0  0  0  0  0  0  0  0
    0.9102  -13.6420   30.0681 N   0  0  0  0  0  0  0  0  0  0  0  0
    5.2243   -9.1415   30.8355 C   0  0  0  0  0  0  0  0  0  0  0  0
    6.9191   -7.7138   28.9577 C   0  0  0  0  0  0  0  0  0  0  0  0
    7.2107   -6.2641   28.6391 C   0  0  1  0  0  0  0  0  0  0  0  0
    8.6544   -5.9804   29.0601 C   0  0  0  0  0  0  0  0  0  0  0  0
    9.7419   -6.5376   28.1264 C   0  0  0  0  0  0  0  0  0  0  0  0
   11.0512   -6.1352   28.6490 N   0  0  0  0  0  0  0  0  0  0  0  0
    7.1618   -6.0349   27.2551 O   0  0  0  0  0  0  0  0  0  0  0  0
    2.5333   -7.6791   26.9466 C   0  0  0  0  0  0  0  0  0  0  0  0
    2.8343   -7.5364   25.4625 C   0  0  0  0  0  0  0  0  0  0  0  0
    2.1345  -14.7725   31.8997 C   0  0  1  0  0  0  0  0  0  0  0  0
    2.2973   -6.2930   24.8673 N   0  0  0  0  0  0  0  0  0  0  0  0
    0.9654  -15.4527   32.3130 O   0  0  0  0  0  0  0  0  0  0  0  0
    4.4252  -10.3683   31.2967 C   0  0  2  0  0  0  0  0  0  0  0  0
    5.1722  -11.1310   32.2920 N   0  0  0  0  0  0  0  0  0  0  0  0
    0.5445   -4.9736   23.6764 C   0  0  0  0  0  0  0  0  0  0  0  0
   -0.9767   -4.7092   23.4353 N   0  0  0  0  0  0  0  0  0  0  0  0
    0.8276   -6.1282   24.6824 C   0  0  0  0  0  0  0  0  0  0  0  0
    7.4182   -8.6571   28.9740 O   0  0  0  0  0  0  0  0  0  0  0  0
    3.3787  -15.6306   32.1514 C   0  0  2  0  0  0  0  0  0  0  0  0
    3.4844  -15.9826   33.5213 O   0  0  0  0  0  0  0  0  0  0  0  0
    4.1111  -11.2634   30.1240 C   0  0  2  0  0  0  0  0  0  0  0  0
    4.6527  -14.8658   31.6898 C   0  0  2  0  0  0  0  0  0  0  0  0
    4.5642  -14.5019   30.2965 O   0  0  0  0  0  0  0  0  0  0  0  0
    3.3107  -10.4534   29.0157 C   0  0  2  0  0  0  0  0  0  0  0  0
    3.0197  -11.3504   27.9022 O   0  0  0  0  0  0  0  0  0  0  0  0
    5.8829  -15.6688   31.8864 C   0  0  0  0  0  0  0  0  0  0  0  0
    6.6542  -15.0865   32.8307 N   0  0  0  0  0  0  0  0  0  0  0  0
    4.1926   -9.2503   28.5320 C   0  0  1  0  0  0  0  0  0  0  0  0
    3.5294   -8.5357   27.5384 O   0  0  0  0  0  0  0  0  0  0  0  0
  1  2  1  1  0  0  0
  1  5  1  0  0  0  0
  1 29  1  0  0  0  0
  3  4  1  6  0  0  0
  3  7  1  0  0  0  0
  3 34  1  0  0  0  0
  5  6  1  1  0  0  0
  5 16  1  0  0  0  0
  7 19  1  0  0  0  0
  8  4  1  0  0  0  0
  8 24  2  0  0  0  0
  9  8  1  6  0  0  0
  9 10  1  0  0  0  0
  9 13  1  0  0  0  0
 10 11  1  0  0  0  0
 11 12  1  0  0  0  0
 14 15  1  0  0  0  0
 14 35  1  0  0  0  0
 15 17  1  0  0  0  0
 16 18  1  6  0  0  0
 16 25  1  0  0  0  0
 19 20  1  1  0  0  0
 19 27  1  0  0  0  0
 21 22  1  0  0  0  0
 21 23  1  0  0  0  0
 23 17  1  0  0  0  0
 25 26  1  1  0  0  0
 25 28  1  0  0  0  0
 27  2  1  1  0  0  0
 27 30  1  0  0  0  0
 28 29  1  0  0  0  0
 28 32  1  6  0  0  0
 30 31  1  6  0  0  0
 30 34  1  0  0  0  0
 32 33  2  0  0  0  0
 34 35  1  6  0  0  0
M  END
>  <CHROM.1>
-157.61386980,49.70413714,145.52442013,75.61283748,177.95292544,-155.13745912
179.94549117,-70.57863880,-179.05071938,-163.00470290,-153.31903321,-113.40479122
-50.55324681,4.28681621,-10.23146159,29.21614859,1.64517736,0.36934170,2.54835063

>  <Name>
2f4t_lig

>  <RI>
0

>  <Rbt.Current_Directory>
/home/itssahil/PROJECTS/Mol_Feturizer/New_Systems/rnas/2f4t

>  <Rbt.Executable>
rbdock ($Id: //depot/dev/client3/rdock/2013.1/src/exe/rbdock.cxx#4 $)

>  <Rbt.Library>
libRbt.so (2013.1, Build901 2013/11/27)

>  <Rbt.Parameter_File>
/export/apps/rDock/src/rDock_2013.1_src/data/scripts/dock_solv.prm

>  <Rbt.Receptor>
prm/pocket_docking_6.prm

>  <SCORE>
-19.2375

>  <SCORE.INTER>
-14.2696

>  <SCORE.INTER.CONST>
1

>  <SCORE.INTER.POLAR>
-2.91831

>  <SCORE.INTER.ROT>
13

>  <SCORE.INTER.SOLV>
20.941

>  <SCORE.INTER.VDW>
-19.0323

>  <SCORE.INTER.norm>
-0.407702

>  <SCORE.INTRA>
-4.9679

>  <SCORE.INTRA.DIHEDRAL>
-12.4018

>  <SCORE.INTRA.DIHEDRAL.0>
23.8882

>  <SCORE.INTRA.POLAR>
0

>  <SCORE.INTRA.POLAR.0>
0

>  <SCORE.INTRA.REPUL>
0

>  <SCORE.INTRA.REPUL.0>
0

>  <SCORE.INTRA.SOLV>
0.189466

>  <SCORE.INTRA.SOLV.lig_0>
-97.6888

>  <SCORE.INTRA.VDW>
1.13827

>  <SCORE.INTRA.VDW.0>
-3.9206

>  <SCORE.INTRA.norm>
-0.14194

>  <SCORE.RESTR>
0

>  <SCORE.RESTR.CAVITY>
0

>  <SCORE.RESTR.norm>
0

>  <SCORE.SYSTEM>
0

>  <SCORE.SYSTEM.CONST>
0

>  <SCORE.SYSTEM.DIHEDRAL>
0

>  <SCORE.SYSTEM.SOLV>
0

>  <SCORE.SYSTEM.norm>
0

>  <SCORE.heavy>
35

>  <SCORE.norm>
-0.549642

>  <RMSD>
9.365

$$$$
2f4t_lig
 OpenBabel11021811433D
libRbt.so/2013.1/901 2013/11/27
 35 36  0  0  0  0  0  0  0  0999 V2000
    5.2835  -14.1925   32.6430 C   0  0  2  0  0  0  0  0  0  0  0  0
    4.2014  -13.8053   31.7340 O   0  0  0  0  0  0  0  0  0  0  0  0
    3.6412  -10.0647   29.6480 C   0  0  2  0  0  0  0  0  0  0  0  0
    3.2237   -8.6803   29.3800 N   0  0  0  0  0  0  0  0  0  0  0  0
    5.0581  -15.7032   32.9539 C   0  0  2  0  0  0  0  0  0  0  0  0
    5.0222  -16.4748   31.7338 N   0  0  0  0  0  0  0  0  0  0  0  0
    2.4061  -10.8878   30.1681 C   0  0  0  0  0  0  0  0  0  0  0  0
    1.8738   -8.6802   28.2413 C   0  0  0  0  0  0  0  0  0  0  0  0
    1.9037   -7.1735   28.3716 C   0  0  1  0  0  0  0  0  0  0  0  0
    1.8356   -6.5866   26.9599 C   0  0  0  0  0  0  0  0  0  0  0  0
    2.9102   -7.0851   25.9791 C   0  0  0  0  0  0  0  0  0  0  0  0
    2.7774   -6.3348   24.7268 N   0  0  0  0  0  0  0  0  0  0  0  0
    0.7609   -6.7048   29.0383 O   0  0  0  0  0  0  0  0  0  0  0  0
    7.1637   -8.8004   30.2922 C   0  0  0  0  0  0  0  0  0  0  0  0
    7.3328   -7.9214   29.0625 C   0  0  0  0  0  0  0  0  0  0  0  0
    3.7329  -15.8933   33.7664 C   0  0  1  0  0  0  0  0  0  0  0  0
    6.4394   -6.7424   29.0512 N   0  0  0  0  0  0  0  0  0  0  0  0
    3.5119  -17.2583   34.0633 O   0  0  0  0  0  0  0  0  0  0  0  0
    2.7784  -12.3444   30.4778 C   0  0  2  0  0  0  0  0  0  0  0  0
    1.6271  -13.0762   30.9966 N   0  0  0  0  0  0  0  0  0  0  0  0
    4.9916   -5.0094   27.9871 C   0  0  0  0  0  0  0  0  0  0  0  0
    6.0052   -3.8205   28.0215 N   0  0  0  0  0  0  0  0  0  0  0  0
    5.6667   -6.4031   27.8226 C   0  0  0  0  0  0  0  0  0  0  0  0
    1.3272   -9.4393   27.7273 O   0  0  0  0  0  0  0  0  0  0  0  0
    3.8424  -15.0692   35.0535 C   0  0  2  0  0  0  0  0  0  0  0  0
    2.6742  -15.2073   35.8460 O   0  0  0  0  0  0  0  0  0  0  0  0
    3.8942  -12.3986   31.4913 C   0  0  2  0  0  0  0  0  0  0  0  0
    4.0860  -13.5723   34.7058 C   0  0  2  0  0  0  0  0  0  0  0  0
    5.2731  -13.4120   33.9016 O   0  0  0  0  0  0  0  0  0  0  0  0
    5.1573  -11.5949   30.9589 C   0  0  2  0  0  0  0  0  0  0  0  0
    6.2159  -11.6740   31.9600 O   0  0  0  0  0  0  0  0  0  0  0  0
    4.2282  -12.7369   35.9218 C   0  0  0  0  0  0  0  0  0  0  0  0
    4.3259  -11.4371   35.5660 N   0  0  0  0  0  0  0  0  0  0  0  0
    4.7429  -10.1017   30.7185 C   0  0  1  0  0  0  0  0  0  0  0  0
    5.8374   -9.3630   30.2775 O   0  0  0  0  0  0  0  0  0  0  0  0
  1  2  1  6  0  0  0
  1  5  1  0  0  0  0
  1 29  1  0  0  0  0
  3  4  1  1  0  0  0
  3  7  1  0  0  0  0
  3 34  1  0  0  0  0
  5  6  1  6  0  0  0
  5 16  1  0  0  0  0
  7 19  1  0  0  0  0
  8  4  1  0  0  0  0
  8 24  2  0  0  0  0
  9  8  1  6  0  0  0
  9 10  1  0  0  0  0
  9 13  1  0  0  0  0
 10 11  1  0  0  0  0
 11 12  1  0  0  0  0
 14 15  1  0  0  0  0
 14 35  1  0  0  0  0
 15 17  1  0  0  0  0
 16 18  1  1  0  0  0
 16 25  1  0  0  0  0
 19 20  1  1  0  0  0
 19 27  1  0  0  0  0
 21 22  1  0  0  0  0
 21 23  1  0  0  0  0
 23 17  1  0  0  0  0
 25 26  1  6  0  0  0
 25 28  1  0  0  0  0
 27  2  1  6  0  0  0
 27 30  1  0  0  0  0
 28 29  1  0  0  0  0
 28 32  1  1  0  0  0
 30 31  1  1  0  0  0
 30 34  1  0  0  0  0
 32 33  2  0  0  0  0
 34 35  1  6  0  0  0
M  END
>  <CHROM.1>
164.66112704,-55.99994845,133.12606992,-54.86951103,-174.72551759,64.59655273
-178.03377855,-132.90885639,68.28266786,-170.88696418,177.80085864,-174.95003376
-175.67120273,4.04903511,-10.74052707,30.78690043,-1.54111644,-0.44495490
-0.64129126

>  <Name>
2f4t_lig

>  <RI>
0

>  <Rbt.Current_Directory>
/home/itssahil/PROJECTS/Mol_Feturizer/New_Systems/rnas/2f4t

>  <Rbt.Executable>
rbdock ($Id: //depot/dev/client3/rdock/2013.1/src/exe/rbdock.cxx#4 $)

>  <Rbt.Library>
libRbt.so (2013.1, Build901 2013/11/27)

>  <Rbt.Parameter_File>
/export/apps/rDock/src/rDock_2013.1_src/data/scripts/dock_solv.prm

>  <Rbt.Receptor>
prm/pocket_docking_8.prm

>  <SCORE>
-11.6617

>  <SCORE.INTER>
-3.6266

>  <SCORE.INTER.CONST>
1

>  <SCORE.INTER.POLAR>
-1.31342

>  <SCORE.INTER.ROT>
13

>  <SCORE.INTER.SOLV>
13.0819

>  <SCORE.INTER.VDW>
-14.6669

>  <SCORE.INTER.norm>
-0.103617

>  <SCORE.INTRA>
-8.03507

>  <SCORE.INTRA.DIHEDRAL>
-16.8358

>  <SCORE.INTRA.DIHEDRAL.0>
23.8882

>  <SCORE.INTRA.POLAR>
0

>  <SCORE.INTRA.POLAR.0>
0

>  <SCORE.INTRA.REPUL>
0

>  <SCORE.INTRA.REPUL.0>
0

>  <SCORE.INTRA.SOLV>
1.58506

>  <SCORE.INTRA.SOLV.lig_0>
-97.6888

>  <SCORE.INTRA.VDW>
-0.409715

>  <SCORE.INTRA.VDW.0>
-3.9206

>  <SCORE.INTRA.norm>
-0.229573

>  <SCORE.RESTR>
0

>  <SCORE.RESTR.CAVITY>
0

>  <SCORE.RESTR.norm>
0

>  <SCORE.SYSTEM>
0

>  <SCORE.SYSTEM.CONST>
0

>  <SCORE.SYSTEM.DIHEDRAL>
0

>  <SCORE.SYSTEM.SOLV>
0

>  <SCORE.SYSTEM.norm>
0

>  <SCORE.heavy>
35

>  <SCORE.norm>
-0.33319

>  <RMSD>
9.368

$$$$
2f4t_lig
 OpenBabel11021811433D
libRbt.so/2013.1/901 2013/11/27
 35 36  0  0  0  0  0  0  0  0999 V2000
    4.1812  -15.2621   30.3870 C   0  0  2  0  0  0  0  0  0  0  0  0
    2.7704  -14.8689   30.4341 O   0  0  0  0  0  0  0  0  0  0  0  0
    1.2805  -11.0021   29.2155 C   0  0  2  0  0  0  0  0  0  0  0  0
    0.7878   -9.6193   29.3052 N   0  0  0  0  0  0  0  0  0  0  0  0
    4.2001  -16.8061   30.5997 C   0  0  2  0  0  0  0  0  0  0  0  0
    3.3810  -17.4668   29.6107 N   0  0  0  0  0  0  0  0  0  0  0  0
    0.4475  -11.9140   30.1893 C   0  0  0  0  0  0  0  0  0  0  0  0
    1.1118   -8.9803   30.9194 C   0  0  0  0  0  0  0  0  0  0  0  0
    0.4667   -7.7039   30.4266 C   0  0  1  0  0  0  0  0  0  0  0  0
   -0.6840   -7.3708   31.3789 C   0  0  0  0  0  0  0  0  0  0  0  0
   -1.8894   -8.3244   31.3256 C   0  0  0  0  0  0  0  0  0  0  0  0
   -1.5145   -9.5813   31.9804 N   0  0  0  0  0  0  0  0  0  0  0  0
    1.3604   -6.6249   30.5114 O   0  0  0  0  0  0  0  0  0  0  0  0
    3.9417   -9.0515   28.1213 C   0  0  0  0  0  0  0  0  0  0  0  0
    2.7626   -8.4578   27.3658 C   0  0  0  0  0  0  0  0  0  0  0  0
    3.7099  -17.1561   32.0452 C   0  0  1  0  0  0  0  0  0  0  0  0
    3.1212   -7.2862   26.5367 N   0  0  0  0  0  0  0  0  0  0  0  0
    3.7240  -18.5539   32.2606 O   0  0  0  0  0  0  0  0  0  0  0  0
    0.9206  -13.3738   30.1512 C   0  0  2  0  0  0  0  0  0  0  0  0
    0.1607  -14.1911   31.0918 N   0  0  0  0  0  0  0  0  0  0  0  0
    3.1140   -4.8400   26.0390 C   0  0  0  0  0  0  0  0  0  0  0  0
    4.4564   -4.5717   26.7925 N   0  0  0  0  0  0  0  0  0  0  0  0
    2.3046   -6.0415   26.6105 C   0  0  0  0  0  0  0  0  0  0  0  0
    1.5644   -9.3717   31.8032 O   0  0  0  0  0  0  0  0  0  0  0  0
    4.6287  -16.4444   33.0437 C   0  0  2  0  0  0  0  0  0  0  0  0
    4.2460  -16.7304   34.3792 O   0  0  0  0  0  0  0  0  0  0  0  0
    2.3866  -13.4614   30.4950 C   0  0  2  0  0  0  0  0  0  0  0  0
    4.6000  -14.9095   32.7900 C   0  0  2  0  0  0  0  0  0  0  0  0
    4.9898  -14.5991   31.4360 O   0  0  0  0  0  0  0  0  0  0  0  0
    3.2381  -12.5667   29.4952 C   0  0  2  0  0  0  0  0  0  0  0  0
    4.6480  -12.6805   29.8534 O   0  0  0  0  0  0  0  0  0  0  0  0
    5.4981  -14.1780   33.7148 C   0  0  0  0  0  0  0  0  0  0  0  0
    4.7623  -13.3800   34.5194 N   0  0  0  0  0  0  0  0  0  0  0  0
    2.7617  -11.0776   29.6173 C   0  0  1  0  0  0  0  0  0  0  0  0
    3.5092  -10.2619   28.7725 O   0  0  0  0  0  0  0  0  0  0  0  0
  1  2  1  1  0  0  0
  1  5  1  0  0  0  0
  1 29  1  0  0  0  0
  3  4  1  1  0  0  0
  3  7  1  0  0  0  0
  3 34  1  0  0  0  0
  5  6  1  6  0  0  0
  5 16  1  0  0  0  0
  7 19  1  0  0  0  0
  8  4  1  0  0  0  0
  8 24  2  0  0  0  0
  9  8  1  1  0  0  0
  9 10  1  0  0  0  0
  9 13  1  0  0  0  0
 10 11  1  0  0  0  0
 11 12  1  0  0  0  0
 14 15  1  0  0  0  0
 14 35  1  0  0  0  0
 15 17  1  0  0  0  0
 16 18  1  1  0  0  0
 16 25  1  0  0  0  0
 19 20  1  1  0  0  0
 19 27  1  0  0  0  0
 21 22  1  0  0  0  0
 21 23  1  0  0  0  0
 23 17  1  0  0  0  0
 25 26  1  1  0  0  0
 25 28  1  0  0  0  0
 27  2  1  6  0  0  0
 27 30  1  0  0  0  0
 28 29  1  0  0  0  0
 28 32  1  1  0  0  0
 30 31  1  1  0  0  0
 30 34  1  0  0  0  0
 32 33  2  0  0  0  0
 34 35  1  6  0  0  0
M  END
>  <CHROM.1>
169.63351772,65.47009106,123.92957355,-68.98322500,73.87136793,-173.82377000
-58.90034601,-131.52336713,-59.19846740,161.52902424,164.65571857,-115.10179762
59.95836659,2.61515506,-11.68109329,30.38607449,-1.30991535,0.61691339,-0.52937360

>  <Name>
2f4t_lig

>  <RI>
0

>  <Rbt.Current_Directory>
/home/itssahil/PROJECTS/Mol_Feturizer/New_Systems/rnas/2f4t

>  <Rbt.Executable>
rbdock ($Id: //depot/dev/client3/rdock/2013.1/src/exe/rbdock.cxx#4 $)

>  <Rbt.Library>
libRbt.so (2013.1, Build901 2013/11/27)

>  <Rbt.Parameter_File>
/export/apps/rDock/src/rDock_2013.1_src/data/scripts/dock_solv.prm

>  <Rbt.Receptor>
prm/pocket_docking_6.prm

>  <SCORE>
-13.925

>  <SCORE.INTER>
-8.22863

>  <SCORE.INTER.CONST>
1

>  <SCORE.INTER.POLAR>
-1.5782

>  <SCORE.INTER.ROT>
13

>  <SCORE.INTER.SOLV>
9.02332

>  <SCORE.INTER.VDW>
-15.4995

>  <SCORE.INTER.norm>
-0.235104

>  <SCORE.INTRA>
-5.69639

>  <SCORE.INTRA.DIHEDRAL>
-16.5232

>  <SCORE.INTRA.DIHEDRAL.0>
23.8882

>  <SCORE.INTRA.POLAR>
0

>  <SCORE.INTRA.POLAR.0>
0

>  <SCORE.INTRA.REPUL>
0

>  <SCORE.INTRA.REPUL.0>
0

>  <SCORE.INTRA.SOLV>
5.15262

>  <SCORE.INTRA.SOLV.lig_0>
-97.6888

>  <SCORE.INTRA.VDW>
-0.0111032

>  <SCORE.INTRA.VDW.0>
-3.9206

>  <SCORE.INTRA.norm>
-0.162754

>  <SCORE.RESTR>
0

>  <SCORE.RESTR.CAVITY>
0

>  <SCORE.RESTR.norm>
0

>  <SCORE.SYSTEM>
0

>  <SCORE.SYSTEM.CONST>
0

>  <SCORE.SYSTEM.DIHEDRAL>
0

>  <SCORE.SYSTEM.SOLV>
0

>  <SCORE.SYSTEM.norm>
0

>  <SCORE.heavy>
35

>  <SCORE.norm>
-0.397858

>  <RMSD>
9.395

$$$$
2f4t_lig
 OpenBabel11021811433D
libRbt.so/2013.1/901 2013/11/27
 35 36  0  0  0  0  0  0  0  0999 V2000
    2.9640  -12.5732   31.6044 C   0  0  2  0  0  0  0  0  0  0  0  0
    2.4587  -11.6548   30.5806 O   0  0  0  0  0  0  0  0  0  0  0  0
    4.4808   -8.2681   28.8202 C   0  0  2  0  0  0  0  0  0  0  0  0
    5.4794   -7.4903   28.0715 N   0  0  0  0  0  0  0  0  0  0  0  0
    3.6495  -13.7390   30.8295 C   0  0  2  0  0  0  0  0  0  0  0  0
    4.6755  -13.2317   29.9488 N   0  0  0  0  0  0  0  0  0  0  0  0
    5.2154   -9.1912   29.8603 C   0  0  0  0  0  0  0  0  0  0  0  0
    6.0624   -6.1577   29.0731 C   0  0  0  0  0  0  0  0  0  0  0  0
    6.9450   -5.8017   27.8973 C   0  0  1  0  0  0  0  0  0  0  0  0
    6.3904   -4.5179   27.2759 C   0  0  0  0  0  0  0  0  0  0  0  0
    6.3671   -3.2878   28.1986 C   0  0  0  0  0  0  0  0  0  0  0  0
    5.7850   -2.1646   27.4578 N   0  0  0  0  0  0  0  0  0  0  0  0
    8.2463   -5.4920   28.3224 O   0  0  0  0  0  0  0  0  0  0  0  0
    2.8743   -7.3986   25.8610 C   0  0  0  0  0  0  0  0  0  0  0  0
    1.4343   -6.9099   25.8310 C   0  0  0  0  0  0  0  0  0  0  0  0
    2.5806  -14.5501   30.0220 C   0  0  1  0  0  0  0  0  0  0  0  0
    0.4913   -7.8850   25.2407 N   0  0  0  0  0  0  0  0  0  0  0  0
    3.1820  -15.6168   29.3145 O   0  0  0  0  0  0  0  0  0  0  0  0
    4.2262  -10.0408   30.6704 C   0  0  2  0  0  0  0  0  0  0  0  0
    4.9329  -10.9173   31.5990 N   0  0  0  0  0  0  0  0  0  0  0  0
   -0.1188   -6.7938   23.0800 C   0  0  0  0  0  0  0  0  0  0  0  0
   -0.3120   -6.9382   21.5360 N   0  0  0  0  0  0  0  0  0  0  0  0
    0.4425   -8.0758   23.7633 C   0  0  0  0  0  0  0  0  0  0  0  0
    5.8474   -5.8124   30.0598 O   0  0  0  0  0  0  0  0  0  0  0  0
    1.5362  -15.0765   31.0119 C   0  0  2  0  0  0  0  0  0  0  0  0
    0.5404  -15.8346   30.3445 O   0  0  0  0  0  0  0  0  0  0  0  0
    3.3765  -10.8807   29.7497 C   0  0  2  0  0  0  0  0  0  0  0  0
    0.8875  -13.8889   31.7800 C   0  0  2  0  0  0  0  0  0  0  0  0
    1.8862  -13.1076   32.4683 O   0  0  0  0  0  0  0  0  0  0  0  0
    2.6067   -9.9519   28.7155 C   0  0  2  0  0  0  0  0  0  0  0  0
    1.7925  -10.7961   27.8474 O   0  0  0  0  0  0  0  0  0  0  0  0
   -0.1114  -14.3507   32.7729 C   0  0  0  0  0  0  0  0  0  0  0  0
    0.5125  -14.6499   33.9334 N   0  0  0  0  0  0  0  0  0  0  0  0
    3.6594   -9.1538   27.8705 C   0  0  1  0  0  0  0  0  0  0  0  0
    3.0158   -8.3500   26.9338 O   0  0  0  0  0  0  0  0  0  0  0  0
  1  2  1  6  0  0  0
  1  5  1  0  0  0  0
  1 29  1  0  0  0  0
  3  4  1  6  0  0  0
  3  7  1  0  0  0  0
  3 34  1  0  0  0  0
  5  6  1  6  0  0  0
  5 16  1  0  0  0  0
  7 19  1  0  0  0  0
  8  4  1  0  0  0  0
  8 24  2  0  0  0  0
  9  8  1  1  0  0  0
  9 10  1  0  0  0  0
  9 13  1  0  0  0  0
 10 11  1  0  0  0  0
 11 12  1  0  0  0  0
 14 15  1  0  0  0  0
 14 35  1  0  0  0  0
 15 17  1  0  0  0  0
 16 18  1  1  0  0  0
 16 25  1  0  0  0  0
 19 20  1  1  0  0  0
 19 27  1  0  0  0  0
 21 22  1  0  0  0  0
 21 23  1  0  0  0  0
 23 17  1  0  0  0  0
 25 26  1  6  0  0  0
 25 28  1  0  0  0  0
 27  2  1  1  0  0  0
 27 30  1  0  0  0  0
 28 29  1  0  0  0  0
 28 32  1  1  0  0  0
 30 31  1  6  0  0  0
 30 34  1  0  0  0  0
 32 33  2  0  0  0  0
 34 35  1  6  0  0  0
M  END
>  <CHROM.1>
-68.47129520,-77.21868018,108.66491663,60.94035374,-178.82911430,-76.46236426
-163.90279555,-76.09200952,-175.51565178,-67.69938650,-58.57425224,85.92857203
60.36557817,3.25410792,-9.73612412,28.79775743,-1.91302675,-0.69800101,-0.72136424

>  <Name>
2f4t_lig

>  <RI>
0

>  <Rbt.Current_Directory>
/home/itssahil/PROJECTS/Mol_Feturizer/New_Systems/rnas/2f4t

>  <Rbt.Executable>
rbdock ($Id: //depot/dev/client3/rdock/2013.1/src/exe/rbdock.cxx#4 $)

>  <Rbt.Library>
libRbt.so (2013.1, Build901 2013/11/27)

>  <Rbt.Parameter_File>
/export/apps/rDock/src/rDock_2013.1_src/data/scripts/dock_solv.prm

>  <Rbt.Receptor>
prm/pocket_docking_5.prm

>  <SCORE>
-3.99591

>  <SCORE.INTER>
-1.3062

>  <SCORE.INTER.CONST>
1

>  <SCORE.INTER.POLAR>
-0.916515

>  <SCORE.INTER.ROT>
13

>  <SCORE.INTER.SOLV>
15.4415

>  <SCORE.INTER.VDW>
-15.2296

>  <SCORE.INTER.norm>
-0.03732

>  <SCORE.INTRA>
-2.68971

>  <SCORE.INTRA.DIHEDRAL>
-16.9769

>  <SCORE.INTRA.DIHEDRAL.0>
23.8882

>  <SCORE.INTRA.POLAR>
0

>  <SCORE.INTRA.POLAR.0>
0

>  <SCORE.INTRA.REPUL>
0

>  <SCORE.INTRA.REPUL.0>
0

>  <SCORE.INTRA.SOLV>
4.61414

>  <SCORE.INTRA.SOLV.lig_0>
-97.6888

>  <SCORE.INTRA.VDW>
3.49167

>  <SCORE.INTRA.VDW.0>
-3.9206

>  <SCORE.INTRA.norm>
-0.0768487

>  <SCORE.RESTR>
0

>  <SCORE.RESTR.CAVITY>
0

>  <SCORE.RESTR.norm>
0

>  <SCORE.SYSTEM>
0

>  <SCORE.SYSTEM.CONST>
0

>  <SCORE.SYSTEM.DIHEDRAL>
0

>  <SCORE.SYSTEM.SOLV>
0

>  <SCORE.SYSTEM.norm>
0

>  <SCORE.heavy>
35

>  <SCORE.norm>
-0.114169

>  <RMSD>
9.411

$$$$
2f4t_lig
 OpenBabel11021811433D
libRbt.so/2013.1/901 2013/11/27
 35 36  0  0  0  0  0  0  0  0999 V2000
    3.5624  -14.1440   30.7928 C   0  0  2  0  0  0  0  0  0  0  0  0
    3.2547  -13.0064   31.6637 O   0  0  0  0  0  0  0  0  0  0  0  0
    3.3916   -8.7500   30.9416 C   0  0  2  0  0  0  0  0  0  0  0  0
    3.9339   -7.3946   30.7645 N   0  0  0  0  0  0  0  0  0  0  0  0
    2.4950  -15.2317   31.1203 C   0  0  2  0  0  0  0  0  0  0  0  0
    1.1615  -14.7077   30.9397 N   0  0  0  0  0  0  0  0  0  0  0  0
    3.9355   -9.3548   32.2877 C   0  0  0  0  0  0  0  0  0  0  0  0
    5.6987   -7.4606   30.7575 C   0  0  0  0  0  0  0  0  0  0  0  0
    5.6470   -5.9622   30.5569 C   0  0  1  0  0  0  0  0  0  0  0  0
    6.9728   -5.3837   31.0566 C   0  0  0  0  0  0  0  0  0  0  0  0
    7.0462   -3.8490   31.1240 C   0  0  0  0  0  0  0  0  0  0  0  0
    6.2183   -3.3949   32.2453 N   0  0  0  0  0  0  0  0  0  0  0  0
    5.5773   -5.6407   29.1924 O   0  0  0  0  0  0  0  0  0  0  0  0
    3.2147   -8.1783   27.5106 C   0  0  0  0  0  0  0  0  0  0  0  0
    2.5354   -6.9317   28.0563 C   0  0  0  0  0  0  0  0  0  0  0  0
    2.6897  -15.7530   32.5841 C   0  0  1  0  0  0  0  0  0  0  0  0
    2.1324   -5.9704   27.0065 N   0  0  0  0  0  0  0  0  0  0  0  0
    1.7328  -16.7454   32.9001 O   0  0  0  0  0  0  0  0  0  0  0  0
    3.4133  -10.7782   32.5279 C   0  0  2  0  0  0  0  0  0  0  0  0
    3.9634  -11.3325   33.7609 N   0  0  0  0  0  0  0  0  0  0  0  0
    1.0898   -3.8880   26.1075 C   0  0  0  0  0  0  0  0  0  0  0  0
   -0.0134   -4.6272   25.2838 N   0  0  0  0  0  0  0  0  0  0  0  0
    1.5379   -4.6572   27.3853 C   0  0  0  0  0  0  0  0  0  0  0  0
    6.4196   -8.2415   30.8556 O   0  0  0  0  0  0  0  0  0  0  0  0
    4.1110  -16.3124   32.7041 C   0  0  2  0  0  0  0  0  0  0  0  0
    4.3506  -16.8153   34.0086 O   0  0  0  0  0  0  0  0  0  0  0  0
    3.7847  -11.6769   31.3749 C   0  0  2  0  0  0  0  0  0  0  0  0
    5.1477  -15.2068   32.3520 C   0  0  2  0  0  0  0  0  0  0  0  0
    4.9212  -14.6852   31.0261 O   0  0  0  0  0  0  0  0  0  0  0  0
    3.2115  -11.0882   30.0148 C   0  0  2  0  0  0  0  0  0  0  0  0
    3.5841  -11.9845   28.9254 O   0  0  0  0  0  0  0  0  0  0  0  0
    6.5402  -15.7091   32.4256 C   0  0  0  0  0  0  0  0  0  0  0  0
    6.8033  -16.1233   33.6846 N   0  0  0  0  0  0  0  0  0  0  0  0
    3.8223   -9.6626   29.7828 C   0  0  1  0  0  0  0  0  0  0  0  0
    3.3604   -9.1302   28.5824 O   0  0  0  0  0  0  0  0  0  0  0  0
  1  2  1  1  0  0  0
  1  5  1  0  0  0  0
  1 29  1  0  0  0  0
  3  4  1  6  0  0  0
  3  7  1  0  0  0  0
  3 34  1  0  0  0  0
  5  6  1  1  0  0  0
  5 16  1  0  0  0  0
  7 19  1  0  0  0  0
  8  4  1  0  0  0  0
  8 24  2  0  0  0  0
  9  8  1  6  0  0  0
  9 10  1  0  0  0  0
  9 13  1  0  0  0  0
 10 11  1  0  0  0  0
 11 12  1  0  0  0  0
 14 15  1  0  0  0  0
 14 35  1  0  0  0  0
 15 17  1  0  0  0  0
 16 18  1  6  0  0  0
 16 25  1  0  0  0  0
 19 20  1  1  0  0  0
 19 27  1  0  0  0  0
 21 22  1  0  0  0  0
 21 23  1  0  0  0  0
 23 17  1  0  0  0  0
 25 26  1  1  0  0  0
 25 28  1  0  0  0  0
 27  2  1  1  0  0  0
 27 30  1  0  0  0  0
 28 29  1  0  0  0  0
 28 32  1  6  0  0  0
 30 31  1  6  0  0  0
 30 34  1  0  0  0  0
 32 33  2  0  0  0  0
 34 35  1  6  0  0  0
M  END
>  <CHROM.1>
-162.02548879,58.33707190,156.40862859,-171.71839262,72.37461538,-170.60696676
-65.91347758,-175.85312998,61.82758784,-175.12116259,-173.91757009,-61.03802637
61.88907725,3.91997798,-10.29229630,30.62548891,1.53896956,0.69601326,2.80702906

>  <Name>
2f4t_lig

>  <RI>
0

>  <Rbt.Current_Directory>
/home/itssahil/PROJECTS/Mol_Feturizer/New_Systems/rnas/2f4t

>  <Rbt.Executable>
rbdock ($Id: //depot/dev/client3/rdock/2013.1/src/exe/rbdock.cxx#4 $)

>  <Rbt.Library>
libRbt.so (2013.1, Build901 2013/11/27)

>  <Rbt.Parameter_File>
/export/apps/rDock/src/rDock_2013.1_src/data/scripts/dock_solv.prm

>  <Rbt.Receptor>
prm/pocket_docking_5.prm

>  <SCORE>
-11.7451

>  <SCORE.INTER>
-4.19271

>  <SCORE.INTER.CONST>
1

>  <SCORE.INTER.POLAR>
-2.01742

>  <SCORE.INTER.ROT>
13

>  <SCORE.INTER.SOLV>
9.90286

>  <SCORE.INTER.VDW>
-11.638

>  <SCORE.INTER.norm>
-0.119792

>  <SCORE.INTRA>
-7.55239

>  <SCORE.INTRA.DIHEDRAL>
-17.6414

>  <SCORE.INTRA.DIHEDRAL.0>
23.8882

>  <SCORE.INTRA.POLAR>
0

>  <SCORE.INTRA.POLAR.0>
0

>  <SCORE.INTRA.REPUL>
0

>  <SCORE.INTRA.REPUL.0>
0

>  <SCORE.INTRA.SOLV>
2.13218

>  <SCORE.INTRA.SOLV.lig_0>
-97.6888

>  <SCORE.INTRA.VDW>
0.202219

>  <SCORE.INTRA.VDW.0>
-3.9206

>  <SCORE.INTRA.norm>
-0.215783

>  <SCORE.RESTR>
0

>  <SCORE.RESTR.CAVITY>
0

>  <SCORE.RESTR.norm>
0

>  <SCORE.SYSTEM>
0

>  <SCORE.SYSTEM.CONST>
0

>  <SCORE.SYSTEM.DIHEDRAL>
0

>  <SCORE.SYSTEM.SOLV>
0

>  <SCORE.SYSTEM.norm>
0

>  <SCORE.heavy>
35

>  <SCORE.norm>
-0.335574

>  <RMSD>
9.464

$$$$
2f4t_lig
 OpenBabel11021811433D
libRbt.so/2013.1/901 2013/11/27
 35 36  0  0  0  0  0  0  0  0999 V2000
    4.1390  -15.4242   29.8753 C   0  0  2  0  0  0  0  0  0  0  0  0
    2.7891  -15.0500   30.3054 O   0  0  0  0  0  0  0  0  0  0  0  0
    1.2729  -11.0078   30.4437 C   0  0  2  0  0  0  0  0  0  0  0  0
    0.8879   -9.6932   30.9789 N   0  0  0  0  0  0  0  0  0  0  0  0
    4.1413  -16.9804   29.7862 C   0  0  2  0  0  0  0  0  0  0  0  0
    3.1011  -17.4414   28.8969 N   0  0  0  0  0  0  0  0  0  0  0  0
    0.6324  -12.1373   31.3311 C   0  0  0  0  0  0  0  0  0  0  0  0
    0.4886   -8.6063   29.6454 C   0  0  0  0  0  0  0  0  0  0  0  0
    0.2048   -7.5736   30.7137 C   0  0  1  0  0  0  0  0  0  0  0  0
   -0.0045   -6.2296   30.0124 C   0  0  0  0  0  0  0  0  0  0  0  0
    1.2216   -5.6655   29.2750 C   0  0  0  0  0  0  0  0  0  0  0  0
    0.8541   -4.3739   28.6871 N   0  0  0  0  0  0  0  0  0  0  0  0
   -1.0012   -7.8541   31.3749 O   0  0  0  0  0  0  0  0  0  0  0  0
    4.4285   -9.3939   29.0787 C   0  0  0  0  0  0  0  0  0  0  0  0
    3.7919   -8.3356   28.1908 C   0  0  0  0  0  0  0  0  0  0  0  0
    3.9629  -17.6011   31.2128 C   0  0  1  0  0  0  0  0  0  0  0  0
    4.7754   -7.5221   27.4427 N   0  0  0  0  0  0  0  0  0  0  0  0
    3.9670  -19.0143   31.1546 O   0  0  0  0  0  0  0  0  0  0  0  0
    1.0059  -13.5395   30.8303 C   0  0  2  0  0  0  0  0  0  0  0  0
    0.4340  -14.5688   31.6926 N   0  0  0  0  0  0  0  0  0  0  0  0
    5.6556   -5.3488   26.5863 C   0  0  0  0  0  0  0  0  0  0  0  0
    5.3520   -3.8536   26.2485 N   0  0  0  0  0  0  0  0  0  0  0  0
    4.3834   -6.1909   26.8990 C   0  0  0  0  0  0  0  0  0  0  0  0
    0.4743   -8.6986   28.5822 O   0  0  0  0  0  0  0  0  0  0  0  0
    5.1045  -17.0916   32.0987 C   0  0  2  0  0  0  0  0  0  0  0  0
    5.0096  -17.6284   33.4082 O   0  0  0  0  0  0  0  0  0  0  0  0
    2.5048  -13.7038   30.7943 C   0  0  2  0  0  0  0  0  0  0  0  0
    5.0833  -15.5366   32.1490 C   0  0  2  0  0  0  0  0  0  0  0  0
    5.1820  -14.9724   30.8248 O   0  0  0  0  0  0  0  0  0  0  0  0
    3.1566  -12.5844   29.8739 C   0  0  2  0  0  0  0  0  0  0  0  0
    4.6028  -12.7779   29.8581 O   0  0  0  0  0  0  0  0  0  0  0  0
    6.1895  -14.9936   32.9727 C   0  0  0  0  0  0  0  0  0  0  0  0
    6.1210  -13.6442   32.9849 N   0  0  0  0  0  0  0  0  0  0  0  0
    2.8003  -11.1748   30.4617 C   0  0  1  0  0  0  0  0  0  0  0  0
    3.3816  -10.1710   29.6921 O   0  0  0  0  0  0  0  0  0  0  0  0
  1  2  1  1  0  0  0
  1  5  1  0  0  0  0
  1 29  1  0  0  0  0
  3  4  1  1  0  0  0
  3  7  1  0  0  0  0
  3 34  1  0  0  0  0
  5  6  1  6  0  0  0
  5 16  1  0  0  0  0
  7 19  1  0  0  0  0
  8  4  1  0  0  0  0
  8 24  2  0  0  0  0
  9  8  1  6  0  0  0
  9 10  1  0  0  0  0
  9 13  1  0  0  0  0
 10 11  1  0  0  0  0
 11 12  1  0  0  0  0
 14 15  1  0  0  0  0
 14 35  1  0  0  0  0
 15 17  1  0  0  0  0
 16 18  1  6  0  0  0
 16 25  1  0  0  0  0
 19 20  1  1  0  0  0
 19 27  1  0  0  0  0
 21 22  1  0  0  0  0
 21 23  1  0  0  0  0
 23 17  1  0  0  0  0
 25 26  1  1  0  0  0
 25 28  1  0  0  0  0
 27  2  1  6  0  0  0
 27 30  1  0  0  0  0
 28 29  1  0  0  0  0
 28 32  1  1  0  0  0
 30 31  1  1  0  0  0
 30 34  1  0  0  0  0
 32 33  2  0  0  0  0
 34 35  1  6  0  0  0
M  END
>  <CHROM.1>
165.59437901,-138.43073351,170.76916346,-64.62263242,-178.97176585,-176.63725074
176.38884609,-159.73105406,-169.91557765,161.37557389,166.41471669,-179.82277410
178.03848779,3.03574541,-11.61979716,30.12372442,-1.38994704,0.35069578,-0.33856961

>  <Name>
2f4t_lig

>  <RI>
0

>  <Rbt.Current_Directory>
/home/itssahil/PROJECTS/Mol_Feturizer/New_Systems/rnas/2f4t

>  <Rbt.Executable>
rbdock ($Id: //depot/dev/client3/rdock/2013.1/src/exe/rbdock.cxx#4 $)

>  <Rbt.Library>
libRbt.so (2013.1, Build901 2013/11/27)

>  <Rbt.Parameter_File>
/export/apps/rDock/src/rDock_2013.1_src/data/scripts/dock_solv.prm

>  <Rbt.Receptor>
prm/pocket_docking_7.prm

>  <SCORE>
-17.116

>  <SCORE.INTER>
-8.91444

>  <SCORE.INTER.CONST>
1

>  <SCORE.INTER.POLAR>
-2.21329

>  <SCORE.INTER.ROT>
13

>  <SCORE.INTER.SOLV>
13.1715

>  <SCORE.INTER.VDW>
-15.2225

>  <SCORE.INTER.norm>
-0.254698

>  <SCORE.INTRA>
-8.20152

>  <SCORE.INTRA.DIHEDRAL>
-17.1717

>  <SCORE.INTRA.DIHEDRAL.0>
23.8882

>  <SCORE.INTRA.POLAR>
0

>  <SCORE.INTRA.POLAR.0>
0

>  <SCORE.INTRA.REPUL>
0

>  <SCORE.INTRA.REPUL.0>
0

>  <SCORE.INTRA.SOLV>
-0.428835

>  <SCORE.INTRA.SOLV.lig_0>
-97.6888

>  <SCORE.INTRA.VDW>
0.598729

>  <SCORE.INTRA.VDW.0>
-3.9206

>  <SCORE.INTRA.norm>
-0.234329

>  <SCORE.RESTR>
0

>  <SCORE.RESTR.CAVITY>
0

>  <SCORE.RESTR.norm>
0

>  <SCORE.SYSTEM>
0

>  <SCORE.SYSTEM.CONST>
0

>  <SCORE.SYSTEM.DIHEDRAL>
0

>  <SCORE.SYSTEM.SOLV>
0

>  <SCORE.SYSTEM.norm>
0

>  <SCORE.heavy>
35

>  <SCORE.norm>
-0.489027

>  <RMSD>
9.571

$$$$
2f4t_lig
 OpenBabel11021811433D
libRbt.so/2013.1/901 2013/11/27
 35 36  0  0  0  0  0  0  0  0999 V2000
    3.1711  -14.7474   32.9804 C   0  0  2  0  0  0  0  0  0  0  0  0
    3.6860  -13.4293   33.3606 O   0  0  0  0  0  0  0  0  0  0  0  0
    4.2750   -9.5538   31.5466 C   0  0  2  0  0  0  0  0  0  0  0  0
    4.1370   -8.4330   30.6045 N   0  0  0  0  0  0  0  0  0  0  0  0
    3.0364  -15.5512   34.3091 C   0  0  2  0  0  0  0  0  0  0  0  0
    2.1929  -14.8480   35.2469 N   0  0  0  0  0  0  0  0  0  0  0  0
    4.5800  -10.8716   30.7441 C   0  0  0  0  0  0  0  0  0  0  0  0
    2.8270   -8.7726   29.4699 C   0  0  0  0  0  0  0  0  0  0  0  0
    3.1466   -7.4242   28.8635 C   0  0  1  0  0  0  0  0  0  0  0  0
    2.8007   -7.4941   27.3744 C   0  0  0  0  0  0  0  0  0  0  0  0
    2.9333   -6.1736   26.5974 C   0  0  0  0  0  0  0  0  0  0  0  0
    2.5597   -6.4187   25.2012 N   0  0  0  0  0  0  0  0  0  0  0  0
    2.3233   -6.4235   29.4029 O   0  0  0  0  0  0  0  0  0  0  0  0
    1.8824   -7.5735   33.6809 C   0  0  0  0  0  0  0  0  0  0  0  0
    1.3815   -6.6148   32.6116 C   0  0  0  0  0  0  0  0  0  0  0  0
    4.4519  -15.8105   34.9268 C   0  0  1  0  0  0  0  0  0  0  0  0
    2.4629   -5.8612   31.9397 N   0  0  0  0  0  0  0  0  0  0  0  0
    4.3522  -16.5436   36.1322 O   0  0  0  0  0  0  0  0  0  0  0  0
    4.7254  -12.0859   31.6718 C   0  0  2  0  0  0  0  0  0  0  0  0
    4.9673  -13.3021   30.9020 N   0  0  0  0  0  0  0  0  0  0  0  0
    3.2033   -3.9686   33.3892 C   0  0  0  0  0  0  0  0  0  0  0  0
    2.8343   -2.8563   32.3555 N   0  0  0  0  0  0  0  0  0  0  0  0
    3.6034   -5.3238   32.7346 C   0  0  0  0  0  0  0  0  0  0  0  0
    2.1501   -9.5856   29.3288 O   0  0  0  0  0  0  0  0  0  0  0  0
    5.2878  -16.5748   33.8949 C   0  0  2  0  0  0  0  0  0  0  0  0
    6.5842  -16.8544   34.3978 O   0  0  0  0  0  0  0  0  0  0  0  0
    3.4786  -12.2674   32.5009 C   0  0  2  0  0  0  0  0  0  0  0  0
    5.3847  -15.7530   32.5772 C   0  0  2  0  0  0  0  0  0  0  0  0
    4.0742  -15.4616   32.0488 O   0  0  0  0  0  0  0  0  0  0  0  0
    3.1814  -10.9504   33.3388 C   0  0  2  0  0  0  0  0  0  0  0  0
    1.9750  -11.1644   34.1311 O   0  0  0  0  0  0  0  0  0  0  0  0
    6.1614  -16.4658   31.5353 C   0  0  0  0  0  0  0  0  0  0  0  0
    5.3368  -17.2735   30.8329 N   0  0  0  0  0  0  0  0  0  0  0  0
    2.9780   -9.7537   32.3459 C   0  0  1  0  0  0  0  0  0  0  0  0
    2.6874   -8.5881   33.0494 O   0  0  0  0  0  0  0  0  0  0  0  0
  1  2  1  1  0  0  0
  1  5  1  0  0  0  0
  1 29  1  0  0  0  0
  3  4  1  6  0  0  0
  3  7  1  0  0  0  0
  3 34  1  0  0  0  0
  5  6  1  1  0  0  0
  5 16  1  0  0  0  0
  7 19  1  0  0  0  0
  8  4  1  0  0  0  0
  8 24  2  0  0  0  0
  9  8  1  1  0  0  0
  9 10  1  0  0  0  0
  9 13  1  0  0  0  0
 10 11  1  0  0  0  0
 11 12  1  0  0  0  0
 14 15  1  0  0  0  0
 14 35  1  0  0  0  0
 15 17  1  0  0  0  0
 16 18  1  1  0  0  0
 16 25  1  0  0  0  0
 19 20  1  6  0  0  0
 19 27  1  0  0  0  0
 21 22  1  0  0  0  0
 21 23  1  0  0  0  0
 23 17  1  0  0  0  0
 25 26  1  1  0  0  0
 25 28  1  0  0  0  0
 27  2  1  1  0  0  0
 27 30  1  0  0  0  0
 28 29  1  0  0  0  0
 28 32  1  6  0  0  0
 30 31  1  6  0  0  0
 30 34  1  0  0  0  0
 32 33  2  0  0  0  0
 34 35  1  1  0  0  0
M  END
>  <CHROM.1>
-156.95444917,59.20201936,149.91446740,174.58979719,-179.69566350,-64.31501454
-80.99494013,-40.89162573,-61.23930985,-82.48894169,-97.10252695,87.50930900
148.84820368,3.55307643,-10.87830150,31.90764627,-0.77617236,1.31169525,-1.11138991

>  <Name>
2f4t_lig

>  <RI>
0

>  <Rbt.Current_Directory>
/home/itssahil/PROJECTS/Mol_Feturizer/New_Systems/rnas/2f4t

>  <Rbt.Executable>
rbdock ($Id: //depot/dev/client3/rdock/2013.1/src/exe/rbdock.cxx#4 $)

>  <Rbt.Library>
libRbt.so (2013.1, Build901 2013/11/27)

>  <Rbt.Parameter_File>
/export/apps/rDock/src/rDock_2013.1_src/data/scripts/dock_solv.prm

>  <Rbt.Receptor>
prm/pocket_docking_5.prm

>  <SCORE>
-2.04264

>  <SCORE.INTER>
-2.66588

>  <SCORE.INTER.CONST>
1

>  <SCORE.INTER.POLAR>
-2.54294

>  <SCORE.INTER.ROT>
13

>  <SCORE.INTER.SOLV>
9.63065

>  <SCORE.INTER.VDW>
-8.77766

>  <SCORE.INTER.norm>
-0.0761679

>  <SCORE.INTRA>
0.623233

>  <SCORE.INTRA.DIHEDRAL>
-6.9612

>  <SCORE.INTRA.DIHEDRAL.0>
23.8882

>  <SCORE.INTRA.POLAR>
0

>  <SCORE.INTRA.POLAR.0>
0

>  <SCORE.INTRA.REPUL>
0

>  <SCORE.INTRA.REPUL.0>
0

>  <SCORE.INTRA.SOLV>
6.99449

>  <SCORE.INTRA.SOLV.lig_0>
-97.6888

>  <SCORE.INTRA.VDW>
0.606593

>  <SCORE.INTRA.VDW.0>
-3.9206

>  <SCORE.INTRA.norm>
0.0178067

>  <SCORE.RESTR>
0

>  <SCORE.RESTR.CAVITY>
0

>  <SCORE.RESTR.norm>
0

>  <SCORE.SYSTEM>
0

>  <SCORE.SYSTEM.CONST>
0

>  <SCORE.SYSTEM.DIHEDRAL>
0

>  <SCORE.SYSTEM.SOLV>
0

>  <SCORE.SYSTEM.norm>
0

>  <SCORE.heavy>
35

>  <SCORE.norm>
-0.0583612

>  <RMSD>
9.634

$$$$
2f4t_lig
 OpenBabel11021811433D
libRbt.so/2013.1/901 2013/11/27
 35 36  0  0  0  0  0  0  0  0999 V2000
    3.7923  -15.5577   29.9775 C   0  0  2  0  0  0  0  0  0  0  0  0
    2.5285  -15.2484   30.6516 O   0  0  0  0  0  0  0  0  0  0  0  0
    0.3834  -11.4996   30.7011 C   0  0  2  0  0  0  0  0  0  0  0  0
   -0.0406  -10.1549   31.1190 N   0  0  0  0  0  0  0  0  0  0  0  0
    3.8924  -17.1130   29.9534 C   0  0  2  0  0  0  0  0  0  0  0  0
    2.7355  -17.6882   29.3082 N   0  0  0  0  0  0  0  0  0  0  0  0
    0.3426  -12.4655   31.9417 C   0  0  0  0  0  0  0  0  0  0  0  0
   -1.7736   -9.9672   30.8357 C   0  0  0  0  0  0  0  0  0  0  0  0
   -1.6068   -8.5750   31.4031 C   0  0  1  0  0  0  0  0  0  0  0  0
   -1.1565   -7.6618   30.2606 C   0  0  0  0  0  0  0  0  0  0  0  0
   -0.7847   -6.2250   30.6638 C   0  0  0  0  0  0  0  0  0  0  0  0
   -1.9677   -5.5882   31.2503 N   0  0  0  0  0  0  0  0  0  0  0  0
   -2.8369   -8.0619   31.8434 O   0  0  0  0  0  0  0  0  0  0  0  0
    2.4294   -9.9285   27.9154 C   0  0  0  0  0  0  0  0  0  0  0  0
    3.7280   -9.2567   28.3347 C   0  0  0  0  0  0  0  0  0  0  0  0
    4.0428  -17.6650   31.4111 C   0  0  1  0  0  0  0  0  0  0  0  0
    3.5554   -8.2560   29.4105 N   0  0  0  0  0  0  0  0  0  0  0  0
    4.1401  -19.0760   31.4112 O   0  0  0  0  0  0  0  0  0  0  0  0
    0.7860  -13.8884   31.5741 C   0  0  2  0  0  0  0  0  0  0  0  0
    0.7787  -14.7548   32.7485 N   0  0  0  0  0  0  0  0  0  0  0  0
    2.5538   -7.5986   31.6005 C   0  0  0  0  0  0  0  0  0  0  0  0
    3.3353   -6.2506   31.7183 N   0  0  0  0  0  0  0  0  0  0  0  0
    3.3223   -8.7012   30.8136 C   0  0  0  0  0  0  0  0  0  0  0  0
   -2.5401  -10.5947   30.4383 O   0  0  0  0  0  0  0  0  0  0  0  0
    5.2945  -17.0351   32.0309 C   0  0  2  0  0  0  0  0  0  0  0  0
    5.4974  -17.5044   33.3540 O   0  0  0  0  0  0  0  0  0  0  0  0
    2.1735  -13.8714   30.9829 C   0  0  2  0  0  0  0  0  0  0  0  0
    5.1683  -15.4843   32.0207 C   0  0  2  0  0  0  0  0  0  0  0  0
    4.9643  -14.9882   30.6814 O   0  0  0  0  0  0  0  0  0  0  0  0
    2.2148  -12.9214   29.7098 C   0  0  2  0  0  0  0  0  0  0  0  0
    3.5673  -12.9345   29.1623 O   0  0  0  0  0  0  0  0  0  0  0  0
    6.3708  -14.8267   32.5852 C   0  0  0  0  0  0  0  0  0  0  0  0
    6.0589  -13.5681   32.9652 N   0  0  0  0  0  0  0  0  0  0  0  0
    1.8168  -11.4694   30.1482 C   0  0  1  0  0  0  0  0  0  0  0  0
    1.8708  -10.6051   29.0583 O   0  0  0  0  0  0  0  0  0  0  0  0
  1  2  1  1  0  0  0
  1  5  1  0  0  0  0
  1 29  1  0  0  0  0
  3  4  1  1  0  0  0
  3  7  1  0  0  0  0
  3 34  1  0  0  0  0
  5  6  1  1  0  0  0
  5 16  1  0  0  0  0
  7 19  1  0  0  0  0
  8  4  1  0  0  0  0
  8 24  2  0  0  0  0
  9  8  1  6  0  0  0
  9 10  1  0  0  0  0
  9 13  1  0  0  0  0
 10 11  1  0  0  0  0
 11 12  1  0  0  0  0
 14 15  1  0  0  0  0
 14 35  1  0  0  0  0
 15 17  1  0  0  0  0
 16 18  1  6  0  0  0
 16 25  1  0  0  0  0
 19 20  1  1  0  0  0
 19 27  1  0  0  0  0
 21 22  1  0  0  0  0
 21 23  1  0  0  0  0
 23 17  1  0  0  0  0
 25 26  1  1  0  0  0
 25 28  1  0  0  0  0
 27  2  1  6  0  0  0
 27 30  1  0  0  0  0
 28 29  1  0  0  0  0
 28 32  1  6  0  0  0
 30 31  1  1  0  0  0
 30 34  1  0  0  0  0
 32 33  2  0  0  0  0
 34 35  1  6  0  0  0
M  END
>  <CHROM.1>
173.27843088,-93.60500198,84.91529724,-173.72527036,-61.08757518,-60.16334806
-54.56441794,74.94684397,-62.14018646,-154.27515049,176.11401095,-159.79699671
-173.21066496,2.13113740,-12.20669929,30.85113526,-1.08143584,0.06029164
-0.10898563

>  <Name>
2f4t_lig

>  <RI>
0

>  <Rbt.Current_Directory>
/home/itssahil/PROJECTS/Mol_Feturizer/New_Systems/rnas/2f4t

>  <Rbt.Executable>
rbdock ($Id: //depot/dev/client3/rdock/2013.1/src/exe/rbdock.cxx#4 $)

>  <Rbt.Library>
libRbt.so (2013.1, Build901 2013/11/27)

>  <Rbt.Parameter_File>
/export/apps/rDock/src/rDock_2013.1_src/data/scripts/dock_solv.prm

>  <Rbt.Receptor>
prm/pocket_docking_7.prm

>  <SCORE>
-14.8884

>  <SCORE.INTER>
-6.28747

>  <SCORE.INTER.CONST>
1

>  <SCORE.INTER.POLAR>
-1.43975

>  <SCORE.INTER.ROT>
13

>  <SCORE.INTER.SOLV>
8.85658

>  <SCORE.INTER.VDW>
-14.6114

>  <SCORE.INTER.norm>
-0.179642

>  <SCORE.INTRA>
-8.60096

>  <SCORE.INTRA.DIHEDRAL>
-18.648

>  <SCORE.INTRA.DIHEDRAL.0>
23.8882

>  <SCORE.INTRA.POLAR>
0

>  <SCORE.INTRA.POLAR.0>
0

>  <SCORE.INTRA.REPUL>
0

>  <SCORE.INTRA.REPUL.0>
0

>  <SCORE.INTRA.SOLV>
2.67339

>  <SCORE.INTRA.SOLV.lig_0>
-97.6888

>  <SCORE.INTRA.VDW>
-0.613683

>  <SCORE.INTRA.VDW.0>
-3.9206

>  <SCORE.INTRA.norm>
-0.245742

>  <SCORE.RESTR>
0

>  <SCORE.RESTR.CAVITY>
0

>  <SCORE.RESTR.norm>
0

>  <SCORE.SYSTEM>
0

>  <SCORE.SYSTEM.CONST>
0

>  <SCORE.SYSTEM.DIHEDRAL>
0

>  <SCORE.SYSTEM.SOLV>
0

>  <SCORE.SYSTEM.norm>
0

>  <SCORE.heavy>
35

>  <SCORE.norm>
-0.425384

>  <RMSD>
9.635

$$$$
2f4t_lig
 OpenBabel11021811433D
libRbt.so/2013.1/901 2013/11/27
 35 36  0  0  0  0  0  0  0  0999 V2000
    2.2370   -1.8839   27.3290 C   0  0  2  0  0  0  0  0  0  0  0  0
    2.8870   -3.1388   26.9419 O   0  0  0  0  0  0  0  0  0  0  0  0
    1.4300   -6.3947   24.5060 C   0  0  2  0  0  0  0  0  0  0  0  0
    0.7169   -7.6221   24.1217 N   0  0  0  0  0  0  0  0  0  0  0  0
    3.3851   -0.9319   27.7820 C   0  0  2  0  0  0  0  0  0  0  0  0
    4.3636   -0.7776   26.7313 N   0  0  0  0  0  0  0  0  0  0  0  0
    2.2908   -6.6757   25.7920 C   0  0  0  0  0  0  0  0  0  0  0  0
    0.4347   -7.6201   22.3784 C   0  0  0  0  0  0  0  0  0  0  0  0
   -0.2300   -8.9620   22.5927 C   0  0  1  0  0  0  0  0  0  0  0  0
   -1.6663   -8.6978   23.0499 C   0  0  0  0  0  0  0  0  0  0  0  0
   -2.4514   -9.9320   23.5248 C   0  0  0  0  0  0  0  0  0  0  0  0
   -2.7201  -10.7847   22.3630 N   0  0  0  0  0  0  0  0  0  0  0  0
   -0.3349   -9.6686   21.3844 O   0  0  0  0  0  0  0  0  0  0  0  0
   -1.2969   -4.3403   22.8475 C   0  0  0  0  0  0  0  0  0  0  0  0
   -2.5948   -4.1684   23.6218 C   0  0  0  0  0  0  0  0  0  0  0  0
    4.0569   -1.4816   29.0855 C   0  0  1  0  0  0  0  0  0  0  0  0
   -3.7942   -4.1041   22.7582 N   0  0  0  0  0  0  0  0  0  0  0  0
    5.0996   -0.6288   29.5165 O   0  0  0  0  0  0  0  0  0  0  0  0
    3.0549   -5.4268   26.2534 C   0  0  2  0  0  0  0  0  0  0  0  0
    3.8132   -5.7013   27.4699 N   0  0  0  0  0  0  0  0  0  0  0  0
   -3.3804   -2.6182   20.7954 C   0  0  0  0  0  0  0  0  0  0  0  0
   -3.7257   -3.6640   19.6868 N   0  0  0  0  0  0  0  0  0  0  0  0
   -4.1828   -2.8168   22.1152 C   0  0  0  0  0  0  0  0  0  0  0  0
    0.6585   -6.9434   21.5839 O   0  0  0  0  0  0  0  0  0  0  0  0
    2.9746   -1.6023   30.1632 C   0  0  2  0  0  0  0  0  0  0  0  0
    3.5208   -2.0854   31.3798 O   0  0  0  0  0  0  0  0  0  0  0  0
    2.0978   -4.2908   26.5151 C   0  0  2  0  0  0  0  0  0  0  0  0
    1.8374   -2.5429   29.6699 C   0  0  2  0  0  0  0  0  0  0  0  0
    1.2673   -2.0651   28.4337 O   0  0  0  0  0  0  0  0  0  0  0  0
    1.2461   -3.9804   25.2101 C   0  0  2  0  0  0  0  0  0  0  0  0
    0.3380   -2.8751   25.4982 O   0  0  0  0  0  0  0  0  0  0  0  0
    0.7498   -2.6687   30.6690 C   0  0  0  0  0  0  0  0  0  0  0  0
    0.7372   -3.9257   31.1647 N   0  0  0  0  0  0  0  0  0  0  0  0
    0.4364   -5.2644   24.8165 C   0  0  1  0  0  0  0  0  0  0  0  0
   -0.3435   -5.0159   23.6905 O   0  0  0  0  0  0  0  0  0  0  0  0
  1  2  1  1  0  0  0
  1  5  1  0  0  0  0
  1 29  1  0  0  0  0
  3  4  1  1  0  0  0
  3  7  1  0  0  0  0
  3 34  1  0  0  0  0
  5  6  1  6  0  0  0
  5 16  1  0  0  0  0
  7 19  1  0  0  0  0
  8  4  1  0  0  0  0
  8 24  2  0  0  0  0
  9  8  1  6  0  0  0
  9 10  1  0  0  0  0
  9 13  1  0  0  0  0
 10 11  1  0  0  0  0
 11 12  1  0  0  0  0
 14 15  1  0  0  0  0
 14 35  1  0  0  0  0
 15 17  1  0  0  0  0
 16 18  1  1  0  0  0
 16 25  1  0  0  0  0
 19 20  1  1  0  0  0
 19 27  1  0  0  0  0
 21 22  1  0  0  0  0
 21 23  1  0  0  0  0
 23 17  1  0  0  0  0
 25 26  1  1  0  0  0
 25 28  1  0  0  0  0
 27  2  1  6  0  0  0
 27 30  1  0  0  0  0
 28 29  1  0  0  0  0
 28 32  1  1  0  0  0
 30 31  1  1  0  0  0
 30 34  1  0  0  0  0
 32 33  2  0  0  0  0
 34 35  1  6  0  0  0
M  END
>  <CHROM.1>
177.29524646,-151.85385153,82.54098802,-171.20685946,-69.33826525,-152.53094467
-53.56311558,-82.78538506,65.89280698,83.75407869,-177.37023125,-112.04960047
-171.13101581,0.65566321,-4.59847258,25.46250556,0.77067368,-0.81267722,0.31539877

>  <Name>
2f4t_lig

>  <RI>
0

>  <Rbt.Current_Directory>
/home/itssahil/PROJECTS/Mol_Feturizer/New_Systems/rnas/2f4t

>  <Rbt.Executable>
rbdock ($Id: //depot/dev/client3/rdock/2013.1/src/exe/rbdock.cxx#4 $)

>  <Rbt.Library>
libRbt.so (2013.1, Build901 2013/11/27)

>  <Rbt.Parameter_File>
/export/apps/rDock/src/rDock_2013.1_src/data/scripts/dock_solv.prm

>  <Rbt.Receptor>
prm/pocket_docking_6.prm

>  <SCORE>
-19.9102

>  <SCORE.INTER>
-12.6255

>  <SCORE.INTER.CONST>
1

>  <SCORE.INTER.POLAR>
0

>  <SCORE.INTER.ROT>
13

>  <SCORE.INTER.SOLV>
14.088

>  <SCORE.INTER.VDW>
-25.3797

>  <SCORE.INTER.norm>
-0.360729

>  <SCORE.INTRA>
-7.28466

>  <SCORE.INTRA.DIHEDRAL>
-16.6581

>  <SCORE.INTRA.DIHEDRAL.0>
23.8882

>  <SCORE.INTRA.POLAR>
0

>  <SCORE.INTRA.POLAR.0>
0

>  <SCORE.INTRA.REPUL>
0

>  <SCORE.INTRA.REPUL.0>
0

>  <SCORE.INTRA.SOLV>
2.61716

>  <SCORE.INTRA.SOLV.lig_0>
-97.6888

>  <SCORE.INTRA.VDW>
-0.2642

>  <SCORE.INTRA.VDW.0>
-3.9206

>  <SCORE.INTRA.norm>
-0.208133

>  <SCORE.RESTR>
0

>  <SCORE.RESTR.CAVITY>
0

>  <SCORE.RESTR.norm>
0

>  <SCORE.SYSTEM>
0

>  <SCORE.SYSTEM.CONST>
0

>  <SCORE.SYSTEM.DIHEDRAL>
0

>  <SCORE.SYSTEM.SOLV>
0

>  <SCORE.SYSTEM.norm>
0

>  <SCORE.heavy>
35

>  <SCORE.norm>
-0.568862

>  <RMSD>
9.668

$$$$
2f4t_lig
 OpenBabel11021811433D
libRbt.so/2013.1/901 2013/11/27
 35 36  0  0  0  0  0  0  0  0999 V2000
    3.6937  -14.6003   30.1128 C   0  0  2  0  0  0  0  0  0  0  0  0
    3.2771  -13.2901   30.6200 O   0  0  0  0  0  0  0  0  0  0  0  0
    4.2494   -9.1014   30.2119 C   0  0  2  0  0  0  0  0  0  0  0  0
    4.9518   -7.8799   29.7909 N   0  0  0  0  0  0  0  0  0  0  0  0
    2.6023  -15.6070   30.5872 C   0  0  2  0  0  0  0  0  0  0  0  0
    1.2961  -15.1964   30.1281 N   0  0  0  0  0  0  0  0  0  0  0  0
    5.2871  -10.1114   30.8257 C   0  0  0  0  0  0  0  0  0  0  0  0
    6.1397   -8.2803   28.5470 C   0  0  0  0  0  0  0  0  0  0  0  0
    6.4652   -6.8031   28.5340 C   0  0  1  0  0  0  0  0  0  0  0  0
    7.7273   -6.6011   29.3755 C   0  0  0  0  0  0  0  0  0  0  0  0
    8.0870   -5.1406   29.6960 C   0  0  0  0  0  0  0  0  0  0  0  0
    8.3716   -4.4470   28.4362 N   0  0  0  0  0  0  0  0  0  0  0  0
    6.7937   -6.3732   27.2388 O   0  0  0  0  0  0  0  0  0  0  0  0
    2.1776   -7.6915   27.7904 C   0  0  0  0  0  0  0  0  0  0  0  0
    2.7230   -7.6730   26.3707 C   0  0  0  0  0  0  0  0  0  0  0  0
    2.6254  -15.7293   32.1483 C   0  0  1  0  0  0  0  0  0  0  0  0
    2.0601   -6.6813   25.4956 N   0  0  0  0  0  0  0  0  0  0  0  0
    1.6445  -16.6428   32.5996 O   0  0  0  0  0  0  0  0  0  0  0  0
    4.6172  -11.4168   31.2769 C   0  0  2  0  0  0  0  0  0  0  0  0
    5.6051  -12.3525   31.8048 N   0  0  0  0  0  0  0  0  0  0  0  0
    0.2890   -6.1797   23.8095 C   0  0  0  0  0  0  0  0  0  0  0  0
    0.6631   -4.6632   23.7624 N   0  0  0  0  0  0  0  0  0  0  0  0
    1.4809   -7.1071   24.1900 C   0  0  0  0  0  0  0  0  0  0  0  0
    6.4435   -9.1822   28.0637 O   0  0  0  0  0  0  0  0  0  0  0  0
    4.0262  -16.1863   32.5684 C   0  0  2  0  0  0  0  0  0  0  0  0
    4.1126  -16.3298   33.9769 O   0  0  0  0  0  0  0  0  0  0  0  0
    3.8935  -12.0636   30.1224 C   0  0  2  0  0  0  0  0  0  0  0  0
    5.0898  -15.1697   32.0623 C   0  0  2  0  0  0  0  0  0  0  0  0
    5.0188  -15.0130   30.6298 O   0  0  0  0  0  0  0  0  0  0  0  0
    2.8210  -11.0597   29.5167 C   0  0  2  0  0  0  0  0  0  0  0  0
    2.1382  -11.7199   28.4090 O   0  0  0  0  0  0  0  0  0  0  0  0
    6.4672  -15.5844   32.4198 C   0  0  0  0  0  0  0  0  0  0  0  0
    6.5612  -15.7246   33.7604 N   0  0  0  0  0  0  0  0  0  0  0  0
    3.5606   -9.7718   29.0130 C   0  0  1  0  0  0  0  0  0  0  0  0
    2.6498   -8.8824   28.4499 O   0  0  0  0  0  0  0  0  0  0  0  0
  1  2  1  1  0  0  0
  1  5  1  0  0  0  0
  1 29  1  0  0  0  0
  3  4  1  6  0  0  0
  3  7  1  0  0  0  0
  3 34  1  0  0  0  0
  5  6  1  1  0  0  0
  5 16  1  0  0  0  0
  7 19  1  0  0  0  0
  8  4  1  0  0  0  0
  8 24  2  0  0  0  0
  9  8  1  6  0  0  0
  9 10  1  0  0  0  0
  9 13  1  0  0  0  0
 10 11  1  0  0  0  0
 11 12  1  0  0  0  0
 14 15  1  0  0  0  0
 14 35  1  0  0  0  0
 15 17  1  0  0  0  0
 16 18  1  6  0  0  0
 16 25  1  0  0  0  0
 19 20  1  6  0  0  0
 19 27  1  0  0  0  0
 21 22  1  0  0  0  0
 21 23  1  0  0  0  0
 23 17  1  0  0  0  0
 25 26  1  1  0  0  0
 25 28  1  0  0  0  0
 27  2  1  1  0  0  0
 27 30  1  0  0  0  0
 28 29  1  0  0  0  0
 28 32  1  6  0  0  0
 30 31  1  6  0  0  0
 30 34  1  0  0  0  0
 32 33  2  0  0  0  0
 34 35  1  1  0  0  0
M  END
>  <CHROM.1>
-166.15862629,61.46940229,99.61242855,-169.59774300,-63.12832594,166.29379308
65.65392776,-126.74554574,56.01063307,151.60078792,-115.86656219,-57.68423459
62.46870579,4.14697139,-10.75711634,29.48576795,1.57857050,0.51498466,2.59910740

>  <Name>
2f4t_lig

>  <RI>
0

>  <Rbt.Current_Directory>
/home/itssahil/PROJECTS/Mol_Feturizer/New_Systems/rnas/2f4t

>  <Rbt.Executable>
rbdock ($Id: //depot/dev/client3/rdock/2013.1/src/exe/rbdock.cxx#4 $)

>  <Rbt.Library>
libRbt.so (2013.1, Build901 2013/11/27)

>  <Rbt.Parameter_File>
/export/apps/rDock/src/rDock_2013.1_src/data/scripts/dock_solv.prm

>  <Rbt.Receptor>
prm/pocket_docking_5.prm

>  <SCORE>
-12.8789

>  <SCORE.INTER>
-11.1038

>  <SCORE.INTER.CONST>
1

>  <SCORE.INTER.POLAR>
-2.02515

>  <SCORE.INTER.ROT>
13

>  <SCORE.INTER.SOLV>
19.816

>  <SCORE.INTER.VDW>
-19.524

>  <SCORE.INTER.norm>
-0.317252

>  <SCORE.INTRA>
-1.77505

>  <SCORE.INTRA.DIHEDRAL>
-8.92624

>  <SCORE.INTRA.DIHEDRAL.0>
23.8882

>  <SCORE.INTRA.POLAR>
0

>  <SCORE.INTRA.POLAR.0>
0

>  <SCORE.INTRA.REPUL>
0

>  <SCORE.INTRA.REPUL.0>
0

>  <SCORE.INTRA.SOLV>
5.61682

>  <SCORE.INTRA.SOLV.lig_0>
-97.6888

>  <SCORE.INTRA.VDW>
-0.12034

>  <SCORE.INTRA.VDW.0>
-3.9206

>  <SCORE.INTRA.norm>
-0.0507156

>  <SCORE.RESTR>
0

>  <SCORE.RESTR.CAVITY>
0

>  <SCORE.RESTR.norm>
0

>  <SCORE.SYSTEM>
0

>  <SCORE.SYSTEM.CONST>
0

>  <SCORE.SYSTEM.DIHEDRAL>
0

>  <SCORE.SYSTEM.SOLV>
0

>  <SCORE.SYSTEM.norm>
0

>  <SCORE.heavy>
35

>  <SCORE.norm>
-0.367967

>  <RMSD>
9.673

$$$$
2f4t_lig
 OpenBabel11021811433D
libRbt.so/2013.1/901 2013/11/27
 35 36  0  0  0  0  0  0  0  0999 V2000
    2.6456   -1.5214   27.8041 C   0  0  2  0  0  0  0  0  0  0  0  0
    3.2914   -2.7049   27.2301 O   0  0  0  0  0  0  0  0  0  0  0  0
    1.4700   -5.7614   24.7811 C   0  0  2  0  0  0  0  0  0  0  0  0
    0.7762   -7.0035   24.4091 N   0  0  0  0  0  0  0  0  0  0  0  0
    3.7909   -0.6798   28.4442 C   0  0  2  0  0  0  0  0  0  0  0  0
    4.8040   -0.3687   27.4632 N   0  0  0  0  0  0  0  0  0  0  0  0
    2.6757   -6.1049   25.7307 C   0  0  0  0  0  0  0  0  0  0  0  0
    1.0531   -7.3454   22.6987 C   0  0  0  0  0  0  0  0  0  0  0  0
    0.2053   -8.5788   22.9183 C   0  0  1  0  0  0  0  0  0  0  0  0
   -1.2528   -8.1872   22.6686 C   0  0  0  0  0  0  0  0  0  0  0  0
   -2.2995   -9.2568   23.0228 C   0  0  0  0  0  0  0  0  0  0  0  0
   -2.2005   -9.5440   24.4570 N   0  0  0  0  0  0  0  0  0  0  0  0
    0.5053   -9.5691   21.9700 O   0  0  0  0  0  0  0  0  0  0  0  0
   -1.2664   -4.0000   23.5458 C   0  0  0  0  0  0  0  0  0  0  0  0
   -1.0692   -4.9674   22.3887 C   0  0  0  0  0  0  0  0  0  0  0  0
    4.4141   -1.4526   29.6552 C   0  0  1  0  0  0  0  0  0  0  0  0
   -2.3357   -5.5070   21.8470 N   0  0  0  0  0  0  0  0  0  0  0  0
    5.4535   -0.7032   30.2539 O   0  0  0  0  0  0  0  0  0  0  0  0
    3.4383   -4.8457   26.1660 C   0  0  2  0  0  0  0  0  0  0  0  0
    4.5260   -5.1859   27.0777 N   0  0  0  0  0  0  0  0  0  0  0  0
   -1.5672   -6.3653   19.6324 C   0  0  0  0  0  0  0  0  0  0  0  0
   -1.4939   -6.0913   18.0957 N   0  0  0  0  0  0  0  0  0  0  0  0
   -2.5969   -5.4676   20.3801 C   0  0  0  0  0  0  0  0  0  0  0  0
    1.5892   -6.8587   21.9147 O   0  0  0  0  0  0  0  0  0  0  0  0
    3.2968   -1.7333   30.6654 C   0  0  2  0  0  0  0  0  0  0  0  0
    3.7981   -2.4236   31.7986 O   0  0  0  0  0  0  0  0  0  0  0  0
    2.5069   -3.8763   26.8499 C   0  0  2  0  0  0  0  0  0  0  0  0
    2.1639   -2.5571   29.9880 C   0  0  2  0  0  0  0  0  0  0  0  0
    1.6392   -1.8683   28.8339 O   0  0  0  0  0  0  0  0  0  0  0  0
    1.3022   -3.5002   25.8845 C   0  0  2  0  0  0  0  0  0  0  0  0
    0.4276   -2.5586   26.5756 O   0  0  0  0  0  0  0  0  0  0  0  0
    1.0437   -2.8295   30.9196 C   0  0  0  0  0  0  0  0  0  0  0  0
    0.0319   -1.9694   30.6705 N   0  0  0  0  0  0  0  0  0  0  0  0
    0.5178   -4.8083   25.5202 C   0  0  1  0  0  0  0  0  0  0  0  0
   -0.5632   -4.5082   24.6961 O   0  0  0  0  0  0  0  0  0  0  0  0
  1  2  1  1  0  0  0
  1  5  1  0  0  0  0
  1 29  1  0  0  0  0
  3  4  1  1  0  0  0
  3  7  1  0  0  0  0
  3 34  1  0  0  0  0
  5  6  1  6  0  0  0
  5 16  1  0  0  0  0
  7 19  1  0  0  0  0
  8  4  1  0  0  0  0
  8 24  2  0  0  0  0
  9  8  1  6  0  0  0
  9 10  1  0  0  0  0
  9 13  1  0  0  0  0
 10 11  1  0  0  0  0
 11 12  1  0  0  0  0
 14 15  1  0  0  0  0
 14 35  1  0  0  0  0
 15 17  1  0  0  0  0
 16 18  1  1  0  0  0
 16 25  1  0  0  0  0
 19 20  1  1  0  0  0
 19 27  1  0  0  0  0
 21 22  1  0  0  0  0
 21 23  1  0  0  0  0
 23 17  1  0  0  0  0
 25 26  1  1  0  0  0
 25 28  1  0  0  0  0
 27  2  1  6  0  0  0
 27 30  1  0  0  0  0
 28 29  1  0  0  0  0
 28 32  1  1  0  0  0
 30 31  1  1  0  0  0
 30 34  1  0  0  0  0
 32 33  2  0  0  0  0
 34 35  1  6  0  0  0
M  END
>  <CHROM.1>
164.25041276,-110.52115676,88.82098808,-172.14504732,61.30063745,121.49228811
76.25338449,129.90456420,-163.92983089,64.44706981,174.11409064,100.80374259
-61.31816883,1.16519045,-4.58443037,25.62745979,0.69308017,-0.99999156,0.17562820

>  <Name>
2f4t_lig

>  <RI>
0

>  <Rbt.Current_Directory>
/home/itssahil/PROJECTS/Mol_Feturizer/New_Systems/rnas/2f4t

>  <Rbt.Executable>
rbdock ($Id: //depot/dev/client3/rdock/2013.1/src/exe/rbdock.cxx#4 $)

>  <Rbt.Library>
libRbt.so (2013.1, Build901 2013/11/27)

>  <Rbt.Parameter_File>
/export/apps/rDock/src/rDock_2013.1_src/data/scripts/dock_solv.prm

>  <Rbt.Receptor>
prm/pocket_docking_6.prm

>  <SCORE>
-11.8204

>  <SCORE.INTER>
-8.52634

>  <SCORE.INTER.CONST>
1

>  <SCORE.INTER.POLAR>
0

>  <SCORE.INTER.ROT>
13

>  <SCORE.INTER.SOLV>
20.4469

>  <SCORE.INTER.VDW>
-24.7665

>  <SCORE.INTER.norm>
-0.24361

>  <SCORE.INTRA>
-3.29403

>  <SCORE.INTRA.DIHEDRAL>
-9.73489

>  <SCORE.INTRA.DIHEDRAL.0>
23.8882

>  <SCORE.INTRA.POLAR>
0

>  <SCORE.INTRA.POLAR.0>
0

>  <SCORE.INTRA.REPUL>
0

>  <SCORE.INTRA.REPUL.0>
0

>  <SCORE.INTRA.SOLV>
2.34211

>  <SCORE.INTRA.SOLV.lig_0>
-97.6888

>  <SCORE.INTRA.VDW>
0.402362

>  <SCORE.INTRA.VDW.0>
-3.9206

>  <SCORE.INTRA.norm>
-0.094115

>  <SCORE.RESTR>
0

>  <SCORE.RESTR.CAVITY>
0

>  <SCORE.RESTR.norm>
0

>  <SCORE.SYSTEM>
0

>  <SCORE.SYSTEM.CONST>
0

>  <SCORE.SYSTEM.DIHEDRAL>
0

>  <SCORE.SYSTEM.SOLV>
0

>  <SCORE.SYSTEM.norm>
0

>  <SCORE.heavy>
35

>  <SCORE.norm>
-0.337725

>  <RMSD>
9.675

$$$$
2f4t_lig
 OpenBabel11021811433D
libRbt.so/2013.1/901 2013/11/27
 35 36  0  0  0  0  0  0  0  0999 V2000
    3.3222  -14.1349   32.0676 C   0  0  2  0  0  0  0  0  0  0  0  0
    2.8147  -12.8590   32.5792 O   0  0  0  0  0  0  0  0  0  0  0  0
    4.3679   -8.8321   32.4102 C   0  0  2  0  0  0  0  0  0  0  0  0
    5.2094   -7.6616   32.7009 N   0  0  0  0  0  0  0  0  0  0  0  0
    2.0730  -15.0506   31.8929 C   0  0  2  0  0  0  0  0  0  0  0  0
    1.0998  -14.4254   31.0283 N   0  0  0  0  0  0  0  0  0  0  0  0
    3.8225   -9.4272   33.7600 C   0  0  0  0  0  0  0  0  0  0  0  0
    4.1826   -6.2653   33.0398 C   0  0  0  0  0  0  0  0  0  0  0  0
    5.4723   -5.5013   33.2430 C   0  0  1  0  0  0  0  0  0  0  0  0
    5.9878   -5.0902   31.8620 C   0  0  0  0  0  0  0  0  0  0  0  0
    7.3881   -4.4549   31.8361 C   0  0  0  0  0  0  0  0  0  0  0  0
    7.7112   -4.1036   30.4500 N   0  0  0  0  0  0  0  0  0  0  0  0
    5.2421   -4.3045   33.9394 O   0  0  0  0  0  0  0  0  0  0  0  0
    5.6814   -8.6920   29.2407 C   0  0  0  0  0  0  0  0  0  0  0  0
    4.4676   -9.1307   28.4359 C   0  0  0  0  0  0  0  0  0  0  0  0
    1.4434  -15.3738   33.2898 C   0  0  1  0  0  0  0  0  0  0  0  0
    3.9368   -8.0762   27.5444 N   0  0  0  0  0  0  0  0  0  0  0  0
    0.3098  -16.2086   33.1538 O   0  0  0  0  0  0  0  0  0  0  0  0
    2.9420  -10.6627   33.5264 C   0  0  2  0  0  0  0  0  0  0  0  0
    2.4818  -11.2203   34.7943 N   0  0  0  0  0  0  0  0  0  0  0  0
    2.0899   -6.7052   26.5744 C   0  0  0  0  0  0  0  0  0  0  0  0
    2.6887   -6.3875   25.1664 N   0  0  0  0  0  0  0  0  0  0  0  0
    2.5049   -8.0991   27.1313 C   0  0  0  0  0  0  0  0  0  0  0  0
    3.1286   -6.1003   33.0710 O   0  0  0  0  0  0  0  0  0  0  0  0
    2.5158  -16.0514   34.1490 C   0  0  2  0  0  0  0  0  0  0  0  0
    2.0054  -16.3839   35.4300 O   0  0  0  0  0  0  0  0  0  0  0  0
    3.7083  -11.7205   32.7721 C   0  0  2  0  0  0  0  0  0  0  0  0
    3.7536  -15.1185   34.2857 C   0  0  2  0  0  0  0  0  0  0  0  0
    4.2887  -14.7719   32.9915 O   0  0  0  0  0  0  0  0  0  0  0  0
    4.2360  -11.1353   31.3923 C   0  0  2  0  0  0  0  0  0  0  0  0
    4.9654  -12.1854   30.6892 O   0  0  0  0  0  0  0  0  0  0  0  0
    4.8330  -15.7436   35.0863 C   0  0  0  0  0  0  0  0  0  0  0  0
    5.0551  -15.0057   36.1962 N   0  0  0  0  0  0  0  0  0  0  0  0
    5.1795   -9.9176   31.6863 C   0  0  1  0  0  0  0  0  0  0  0  0
    5.6818   -9.3990   30.4962 O   0  0  0  0  0  0  0  0  0  0  0  0
  1  2  1  1  0  0  0
  1  5  1  0  0  0  0
  1 29  1  0  0  0  0
  3  4  1  1  0  0  0
  3  7  1  0  0  0  0
  3 34  1  0  0  0  0
  5  6  1  6  0  0  0
  5 16  1  0  0  0  0
  7 19  1  0  0  0  0
  8  4  1  0  0  0  0
  8 24  2  0  0  0  0
  9  8  1  6  0  0  0
  9 10  1  0  0  0  0
  9 13  1  0  0  0  0
 10 11  1  0  0  0  0
 11 12  1  0  0  0  0
 14 15  1  0  0  0  0
 14 35  1  0  0  0  0
 15 17  1  0  0  0  0
 16 18  1  6  0  0  0
 16 25  1  0  0  0  0
 19 20  1  1  0  0  0
 19 27  1  0  0  0  0
 21 22  1  0  0  0  0
 21 23  1  0  0  0  0
 23 17  1  0  0  0  0
 25 26  1  1  0  0  0
 25 28  1  0  0  0  0
 27  2  1  6  0  0  0
 27 30  1  0  0  0  0
 28 29  1  0  0  0  0
 28 32  1  1  0  0  0
 30 31  1  1  0  0  0
 30 34  1  0  0  0  0
 32 33  2  0  0  0  0
 34 35  1  6  0  0  0
M  END
>  <CHROM.1>
-175.58426144,-78.49118097,81.81774200,-172.49382684,-179.01628597,149.34299368
-47.35283418,-154.74572843,72.50390581,163.03225616,-170.17207380,-117.64812207
-46.50334165,3.89637428,-10.46590242,31.93782962,2.11881952,1.12053780,2.27803440

>  <Name>
2f4t_lig

>  <RI>
0

>  <Rbt.Current_Directory>
/home/itssahil/PROJECTS/Mol_Feturizer/New_Systems/rnas/2f4t

>  <Rbt.Executable>
rbdock ($Id: //depot/dev/client3/rdock/2013.1/src/exe/rbdock.cxx#4 $)

>  <Rbt.Library>
libRbt.so (2013.1, Build901 2013/11/27)

>  <Rbt.Parameter_File>
/export/apps/rDock/src/rDock_2013.1_src/data/scripts/dock_solv.prm

>  <Rbt.Receptor>
prm/pocket_docking_5.prm

>  <SCORE>
-7.59975

>  <SCORE.INTER>
0.458977

>  <SCORE.INTER.CONST>
1

>  <SCORE.INTER.POLAR>
-1.63016

>  <SCORE.INTER.ROT>
13

>  <SCORE.INTER.SOLV>
9.86504

>  <SCORE.INTER.VDW>
-9.81516

>  <SCORE.INTER.norm>
0.0131136

>  <SCORE.INTRA>
-8.05873

>  <SCORE.INTRA.DIHEDRAL>
-15.0658

>  <SCORE.INTRA.DIHEDRAL.0>
23.8882

>  <SCORE.INTRA.POLAR>
0

>  <SCORE.INTRA.POLAR.0>
0

>  <SCORE.INTRA.REPUL>
0

>  <SCORE.INTRA.REPUL.0>
0

>  <SCORE.INTRA.SOLV>
-0.805749

>  <SCORE.INTRA.SOLV.lig_0>
-97.6888

>  <SCORE.INTRA.VDW>
-0.12293

>  <SCORE.INTRA.VDW.0>
-3.9206

>  <SCORE.INTRA.norm>
-0.230249

>  <SCORE.RESTR>
0

>  <SCORE.RESTR.CAVITY>
0

>  <SCORE.RESTR.norm>
0

>  <SCORE.SYSTEM>
0

>  <SCORE.SYSTEM.CONST>
0

>  <SCORE.SYSTEM.DIHEDRAL>
0

>  <SCORE.SYSTEM.SOLV>
0

>  <SCORE.SYSTEM.norm>
0

>  <SCORE.heavy>
35

>  <SCORE.norm>
-0.217136

>  <RMSD>
9.682

$$$$
2f4t_lig
 OpenBabel11021811433D
libRbt.so/2013.1/901 2013/11/27
 35 36  0  0  0  0  0  0  0  0999 V2000
    2.0961  -12.4220   31.4321 C   0  0  2  0  0  0  0  0  0  0  0  0
    1.5710  -11.7388   30.2468 O   0  0  0  0  0  0  0  0  0  0  0  0
    0.9883   -7.5713   29.2725 C   0  0  2  0  0  0  0  0  0  0  0  0
    1.2592   -6.1322   29.1374 N   0  0  0  0  0  0  0  0  0  0  0  0
    3.5926  -12.7261   31.1200 C   0  0  2  0  0  0  0  0  0  0  0  0
    4.3012  -11.5120   30.7894 N   0  0  0  0  0  0  0  0  0  0  0  0
    1.2801   -8.0176   30.7521 C   0  0  0  0  0  0  0  0  0  0  0  0
   -0.2131   -5.2191   29.4802 C   0  0  0  0  0  0  0  0  0  0  0  0
    0.6200   -3.9840   29.2184 C   0  0  1  0  0  0  0  0  0  0  0  0
    0.5642   -3.6995   27.7158 C   0  0  0  0  0  0  0  0  0  0  0  0
    1.4527   -2.5449   27.2234 C   0  0  0  0  0  0  0  0  0  0  0  0
    2.8553   -2.9279   27.4108 N   0  0  0  0  0  0  0  0  0  0  0  0
    0.0598   -2.8591   29.8437 O   0  0  0  0  0  0  0  0  0  0  0  0
    1.6033   -7.1132   25.8695 C   0  0  0  0  0  0  0  0  0  0  0  0
    0.7462   -7.7646   24.7951 C   0  0  0  0  0  0  0  0  0  0  0  0
    3.6985  -13.7627   29.9510 C   0  0  1  0  0  0  0  0  0  0  0  0
    0.6044   -6.9428   23.5731 N   0  0  0  0  0  0  0  0  0  0  0  0
    5.0499  -14.0564   29.6549 O   0  0  0  0  0  0  0  0  0  0  0  0
    1.0262   -9.5175   30.9580 C   0  0  2  0  0  0  0  0  0  0  0  0
    1.3424   -9.9151   32.3263 N   0  0  0  0  0  0  0  0  0  0  0  0
    0.3808   -8.6161   21.7343 C   0  0  0  0  0  0  0  0  0  0  0  0
   -0.4624   -9.1609   20.5366 N   0  0  0  0  0  0  0  0  0  0  0  0
   -0.2740   -7.4043   22.4610 C   0  0  0  0  0  0  0  0  0  0  0  0
   -1.2126   -5.4819   29.7471 O   0  0  0  0  0  0  0  0  0  0  0  0
    2.9475  -15.0305   30.3707 C   0  0  2  0  0  0  0  0  0  0  0  0
    3.0149  -16.0201   29.3568 O   0  0  0  0  0  0  0  0  0  0  0  0
    1.8646  -10.3295   30.0027 C   0  0  2  0  0  0  0  0  0  0  0  0
    1.4645  -14.6865   30.6926 C   0  0  2  0  0  0  0  0  0  0  0  0
    1.3761  -13.6826   31.7251 O   0  0  0  0  0  0  0  0  0  0  0  0
    1.5523   -9.9056   28.5035 C   0  0  2  0  0  0  0  0  0  0  0  0
    2.3749  -10.7140   27.6096 O   0  0  0  0  0  0  0  0  0  0  0  0
    0.7020  -15.8788   31.1327 C   0  0  0  0  0  0  0  0  0  0  0  0
   -0.5556  -15.5118   31.4638 N   0  0  0  0  0  0  0  0  0  0  0  0
    1.8871   -8.3837   28.3273 C   0  0  1  0  0  0  0  0  0  0  0  0
    1.6502   -7.9872   27.0141 O   0  0  0  0  0  0  0  0  0  0  0  0
  1  2  1  6  0  0  0
  1  5  1  0  0  0  0
  1 29  1  0  0  0  0
  3  4  1  1  0  0  0
  3  7  1  0  0  0  0
  3 34  1  0  0  0  0
  5  6  1  6  0  0  0
  5 16  1  0  0  0  0
  7 19  1  0  0  0  0
  8  4  1  0  0  0  0
  8 24  2  0  0  0  0
  9  8  1  6  0  0  0
  9 10  1  0  0  0  0
  9 13  1  0  0  0  0
 10 11  1  0  0  0  0
 11 12  1  0  0  0  0
 14 15  1  0  0  0  0
 14 35  1  0  0  0  0
 15 17  1  0  0  0  0
 16 18  1  1  0  0  0
 16 25  1  0  0  0  0
 19 20  1  1  0  0  0
 19 27  1  0  0  0  0
 21 22  1  0  0  0  0
 21 23  1  0  0  0  0
 23 17  1  0  0  0  0
 25 26  1  6  0  0  0
 25 28  1  0  0  0  0
 27  2  1  6  0  0  0
 27 30  1  0  0  0  0
 28 29  1  0  0  0  0
 28 32  1  1  0  0  0
 30 31  1  6  0  0  0
 30 34  1  0  0  0  0
 32 33  2  0  0  0  0
 34 35  1  6  0  0  0
M  END
>  <CHROM.1>
-77.52609245,-90.54245918,87.42339800,-174.91394908,66.16536262,178.96430342
-166.28091919,-176.21854897,-179.28908749,-71.50455075,-74.61331204,176.87095986
63.46784544,1.46874380,-9.40915153,28.59860520,-0.16346242,-1.40137693,0.96136484

>  <Name>
2f4t_lig

>  <RI>
0

>  <Rbt.Current_Directory>
/home/itssahil/PROJECTS/Mol_Feturizer/New_Systems/rnas/2f4t

>  <Rbt.Executable>
rbdock ($Id: //depot/dev/client3/rdock/2013.1/src/exe/rbdock.cxx#4 $)

>  <Rbt.Library>
libRbt.so (2013.1, Build901 2013/11/27)

>  <Rbt.Parameter_File>
/export/apps/rDock/src/rDock_2013.1_src/data/scripts/dock_solv.prm

>  <Rbt.Receptor>
prm/pocket_docking_5.prm

>  <SCORE>
-12.4097

>  <SCORE.INTER>
-7.04714

>  <SCORE.INTER.CONST>
1

>  <SCORE.INTER.POLAR>
-0.916515

>  <SCORE.INTER.ROT>
13

>  <SCORE.INTER.SOLV>
10.6216

>  <SCORE.INTER.VDW>
-17.4502

>  <SCORE.INTER.norm>
-0.201347

>  <SCORE.INTRA>
-5.37272

>  <SCORE.INTRA.DIHEDRAL>
-16.1781

>  <SCORE.INTRA.DIHEDRAL.0>
23.8882

>  <SCORE.INTRA.POLAR>
0

>  <SCORE.INTRA.POLAR.0>
0

>  <SCORE.INTRA.REPUL>
0

>  <SCORE.INTRA.REPUL.0>
0

>  <SCORE.INTRA.SOLV>
3.58805

>  <SCORE.INTRA.SOLV.lig_0>
-97.6888

>  <SCORE.INTRA.VDW>
0.922292

>  <SCORE.INTRA.VDW.0>
-3.9206

>  <SCORE.INTRA.norm>
-0.153506

>  <SCORE.RESTR>
0.010196

>  <SCORE.RESTR.CAVITY>
0.010196

>  <SCORE.RESTR.norm>
0.000291314

>  <SCORE.SYSTEM>
0

>  <SCORE.SYSTEM.CONST>
0

>  <SCORE.SYSTEM.DIHEDRAL>
0

>  <SCORE.SYSTEM.SOLV>
0

>  <SCORE.SYSTEM.norm>
0

>  <SCORE.heavy>
35

>  <SCORE.norm>
-0.354562

>  <RMSD>
9.726

$$$$
2f4t_lig
 OpenBabel11021811433D
libRbt.so/2013.1/901 2013/11/27
 35 36  0  0  0  0  0  0  0  0999 V2000
   11.2843   -2.9486   21.8061 C   0  0  2  0  0  0  0  0  0  0  0  0
   11.2684   -2.2628   23.1010 O   0  0  0  0  0  0  0  0  0  0  0  0
   11.5286   -3.1316   27.3241 C   0  0  2  0  0  0  0  0  0  0  0  0
   11.4535   -3.8776   28.5892 N   0  0  0  0  0  0  0  0  0  0  0  0
    9.8624   -2.7473   21.2003 C   0  0  2  0  0  0  0  0  0  0  0  0
    9.5420   -1.3422   21.1079 N   0  0  0  0  0  0  0  0  0  0  0  0
   10.1624   -3.2711   26.5574 C   0  0  0  0  0  0  0  0  0  0  0  0
   11.0476   -5.5640   28.2575 C   0  0  0  0  0  0  0  0  0  0  0  0
   11.1235   -5.7649   29.7549 C   0  0  1  0  0  0  0  0  0  0  0  0
    9.7806   -5.3318   30.3474 C   0  0  0  0  0  0  0  0  0  0  0  0
    9.5713   -5.6629   31.8345 C   0  0  0  0  0  0  0  0  0  0  0  0
   10.8512   -5.4976   32.5300 N   0  0  0  0  0  0  0  0  0  0  0  0
   11.2629   -7.1251   30.0721 O   0  0  0  0  0  0  0  0  0  0  0  0
   15.0572   -2.9617   27.6261 C   0  0  0  0  0  0  0  0  0  0  0  0
   14.6778   -1.6279   28.2509 C   0  0  0  0  0  0  0  0  0  0  0  0
    8.7970   -3.5004   22.0664 C   0  0  1  0  0  0  0  0  0  0  0  0
   14.3853   -1.7150   29.6985 N   0  0  0  0  0  0  0  0  0  0  0  0
    7.4988   -3.3342   21.5304 O   0  0  0  0  0  0  0  0  0  0  0  0
   10.1785   -2.5212   25.2181 C   0  0  2  0  0  0  0  0  0  0  0  0
    8.9161   -2.6990   24.5077 N   0  0  0  0  0  0  0  0  0  0  0  0
   12.0292   -0.9185   29.4845 C   0  0  0  0  0  0  0  0  0  0  0  0
   10.5352   -1.0763   29.9143 N   0  0  0  0  0  0  0  0  0  0  0  0
   12.9879   -1.9395   30.1655 C   0  0  0  0  0  0  0  0  0  0  0  0
   10.8496   -6.1268   27.3726 O   0  0  0  0  0  0  0  0  0  0  0  0
    9.1807   -4.9832   22.1080 C   0  0  2  0  0  0  0  0  0  0  0  0
    8.2452   -5.7288   22.8701 O   0  0  0  0  0  0  0  0  0  0  0  0
   11.3070   -3.0186   24.3497 C   0  0  2  0  0  0  0  0  0  0  0  0
   10.6109   -5.1446   22.6994 C   0  0  2  0  0  0  0  0  0  0  0  0
   11.5773   -4.3947   21.9343 O   0  0  0  0  0  0  0  0  0  0  0  0
   12.6945   -2.8518   25.1058 C   0  0  2  0  0  0  0  0  0  0  0  0
   13.7607   -3.3363   24.2354 O   0  0  0  0  0  0  0  0  0  0  0  0
   11.0397   -6.5630   22.7333 C   0  0  0  0  0  0  0  0  0  0  0  0
   10.0922   -7.3336   22.1552 N   0  0  0  0  0  0  0  0  0  0  0  0
   12.6514   -3.6856   26.4332 C   0  0  1  0  0  0  0  0  0  0  0  0
   13.8654   -3.5827   27.1065 O   0  0  0  0  0  0  0  0  0  0  0  0
  1  2  1  1  0  0  0
  1  5  1  0  0  0  0
  1 29  1  0  0  0  0
  3  4  1  1  0  0  0
  3  7  1  0  0  0  0
  3 34  1  0  0  0  0
  5  6  1  1  0  0  0
  5 16  1  0  0  0  0
  7 19  1  0  0  0  0
  8  4  1  0  0  0  0
  8 24  2  0  0  0  0
  9  8  1  6  0  0  0
  9 10  1  0  0  0  0
  9 13  1  0  0  0  0
 10 11  1  0  0  0  0
 11 12  1  0  0  0  0
 14 15  1  0  0  0  0
 14 35  1  0  0  0  0
 15 17  1  0  0  0  0
 16 18  1  6  0  0  0
 16 25  1  0  0  0  0
 19 20  1  6  0  0  0
 19 27  1  0  0  0  0
 21 22  1  0  0  0  0
 21 23  1  0  0  0  0
 23 17  1  0  0  0  0
 25 26  1  1  0  0  0
 25 28  1  0  0  0  0
 27  2  1  6  0  0  0
 27 30  1  0  0  0  0
 28 29  1  0  0  0  0
 28 32  1  6  0  0  0
 30 31  1  6  0  0  0
 30 34  1  0  0  0  0
 32 33  2  0  0  0  0
 34 35  1  1  0  0  0
M  END
>  <CHROM.1>
110.06240752,56.86276624,82.75256433,170.80745379,36.54475971,92.39169204
44.87864007,-92.19488880,-179.98252792,-50.65535710,-129.12596142,3.89169326
-79.13863643,11.13792998,-3.82858438,25.99609296,-1.95168191,0.83706988,1.85934077

>  <Name>
2f4t_lig

>  <RI>
0

>  <Rbt.Current_Directory>
/home/itssahil/PROJECTS/Mol_Feturizer/New_Systems/rnas/2f4t

>  <Rbt.Executable>
rbdock ($Id: //depot/dev/client3/rdock/2013.1/src/exe/rbdock.cxx#4 $)

>  <Rbt.Library>
libRbt.so (2013.1, Build901 2013/11/27)

>  <Rbt.Parameter_File>
/export/apps/rDock/src/rDock_2013.1_src/data/scripts/dock_solv.prm

>  <Rbt.Receptor>
prm/blind_docking_60.prm

>  <SCORE>
14.0021

>  <SCORE.INTER>
0.335836

>  <SCORE.INTER.CONST>
1

>  <SCORE.INTER.POLAR>
-0.00740809

>  <SCORE.INTER.ROT>
13

>  <SCORE.INTER.SOLV>
21.5109

>  <SCORE.INTER.VDW>
-19.1884

>  <SCORE.INTER.norm>
0.00959532

>  <SCORE.INTRA>
10.1508

>  <SCORE.INTRA.DIHEDRAL>
0.455719

>  <SCORE.INTRA.DIHEDRAL.0>
23.8882

>  <SCORE.INTRA.POLAR>
0

>  <SCORE.INTRA.POLAR.0>
0

>  <SCORE.INTRA.REPUL>
0

>  <SCORE.INTRA.REPUL.0>
0

>  <SCORE.INTRA.SOLV>
11.1673

>  <SCORE.INTRA.SOLV.lig_0>
-97.6888

>  <SCORE.INTRA.VDW>
4.33925

>  <SCORE.INTRA.VDW.0>
-3.9206

>  <SCORE.INTRA.norm>
0.290022

>  <SCORE.RESTR>
3.51555

>  <SCORE.RESTR.CAVITY>
3.51555

>  <SCORE.RESTR.norm>
0.100444

>  <SCORE.SYSTEM>
0

>  <SCORE.SYSTEM.CONST>
0

>  <SCORE.SYSTEM.DIHEDRAL>
0

>  <SCORE.SYSTEM.SOLV>
0

>  <SCORE.SYSTEM.norm>
0

>  <SCORE.heavy>
35

>  <SCORE.norm>
0.400061

>  <RMSD>
9.740

$$$$
2f4t_lig
 OpenBabel11021811433D
libRbt.so/2013.1/901 2013/11/27
 35 36  0  0  0  0  0  0  0  0999 V2000
    3.9078   -3.8793   33.7300 C   0  0  2  0  0  0  0  0  0  0  0  0
    3.3928   -2.8104   32.8699 O   0  0  0  0  0  0  0  0  0  0  0  0
    1.4863   -3.1341   29.0076 C   0  0  2  0  0  0  0  0  0  0  0  0
    1.3256   -3.2330   27.5491 N   0  0  0  0  0  0  0  0  0  0  0  0
    3.9248   -3.2927   35.1740 C   0  0  2  0  0  0  0  0  0  0  0  0
    2.6104   -2.8283   35.5509 N   0  0  0  0  0  0  0  0  0  0  0  0
    2.4150   -1.9106   29.3456 C   0  0  0  0  0  0  0  0  0  0  0  0
   -0.2804   -3.8640   27.1732 C   0  0  0  0  0  0  0  0  0  0  0  0
    0.1252   -3.7326   25.7218 C   0  0  1  0  0  0  0  0  0  0  0  0
    0.8475   -5.0223   25.3258 C   0  0  0  0  0  0  0  0  0  0  0  0
    1.3322   -5.0932   23.8680 C   0  0  0  0  0  0  0  0  0  0  0  0
    2.0825   -6.3399   23.6899 N   0  0  0  0  0  0  0  0  0  0  0  0
   -1.0031   -3.6531   24.8907 O   0  0  0  0  0  0  0  0  0  0  0  0
    0.8746   -6.8731   29.2623 C   0  0  0  0  0  0  0  0  0  0  0  0
    0.2697   -7.1879   30.6218 C   0  0  0  0  0  0  0  0  0  0  0  0
    4.9695   -2.1301   35.2701 C   0  0  1  0  0  0  0  0  0  0  0  0
   -0.3972   -8.5072   30.6810 N   0  0  0  0  0  0  0  0  0  0  0  0
    5.0041   -1.5865   36.5754 O   0  0  0  0  0  0  0  0  0  0  0  0
    2.6324   -1.7576   30.8574 C   0  0  2  0  0  0  0  0  0  0  0  0
    3.5289   -0.6419   31.1433 N   0  0  0  0  0  0  0  0  0  0  0  0
   -2.2753  -10.0895   31.1286 C   0  0  0  0  0  0  0  0  0  0  0  0
   -1.3674  -11.1668   31.8046 N   0  0  0  0  0  0  0  0  0  0  0  0
   -1.7492   -8.6332   31.2954 C   0  0  0  0  0  0  0  0  0  0  0  0
   -1.1171   -4.1786   27.7562 O   0  0  0  0  0  0  0  0  0  0  0  0
    6.3411   -2.6903   34.8795 C   0  0  2  0  0  0  0  0  0  0  0  0
    7.3407   -1.6870   34.9577 O   0  0  0  0  0  0  0  0  0  0  0  0
    3.2186   -3.0213   31.4356 C   0  0  2  0  0  0  0  0  0  0  0  0
    6.2819   -3.2837   33.4424 C   0  0  2  0  0  0  0  0  0  0  0  0
    5.2717   -4.3092   33.3446 O   0  0  0  0  0  0  0  0  0  0  0  0
    2.2696   -4.2574   31.1249 C   0  0  2  0  0  0  0  0  0  0  0  0
    2.8640   -5.4581   31.7030 O   0  0  0  0  0  0  0  0  0  0  0  0
    7.5810   -3.8658   33.0292 C   0  0  0  0  0  0  0  0  0  0  0  0
    8.2239   -2.9994   32.2158 N   0  0  0  0  0  0  0  0  0  0  0  0
    2.1303   -4.4107   29.5705 C   0  0  1  0  0  0  0  0  0  0  0  0
    1.3257   -5.5047   29.2645 O   0  0  0  0  0  0  0  0  0  0  0  0
  1  2  1  6  0  0  0
  1  5  1  0  0  0  0
  1 29  1  0  0  0  0
  3  4  1  6  0  0  0
  3  7  1  0  0  0  0
  3 34  1  0  0  0  0
  5  6  1  6  0  0  0
  5 16  1  0  0  0  0
  7 19  1  0  0  0  0
  8  4  1  0  0  0  0
  8 24  2  0  0  0  0
  9  8  1  1  0  0  0
  9 10  1  0  0  0  0
  9 13  1  0  0  0  0
 10 11  1  0  0  0  0
 11 12  1  0  0  0  0
 14 15  1  0  0  0  0
 14 35  1  0  0  0  0
 15 17  1  0  0  0  0
 16 18  1  1  0  0  0
 16 25  1  0  0  0  0
 19 20  1  6  0  0  0
 19 27  1  0  0  0  0
 21 22  1  0  0  0  0
 21 23  1  0  0  0  0
 23 17  1  0  0  0  0
 25 26  1  6  0  0  0
 25 28  1  0  0  0  0
 27  2  1  1  0  0  0
 27 30  1  0  0  0  0
 28 29  1  0  0  0  0
 28 32  1  1  0  0  0
 30 31  1  6  0  0  0
 30 34  1  0  0  0  0
 32 33  2  0  0  0  0
 34 35  1  1  0  0  0
M  END
>  <CHROM.1>
-178.93377575,-147.49953059,86.88464637,179.41295856,175.83961102,172.04570659
73.48715471,-133.54791315,60.20159427,175.36419152,178.04119277,-101.13431730
-174.70996817,2.43318985,-4.37768859,30.72888611,0.54386677,0.82316702,2.00763046

>  <Name>
2f4t_lig

>  <RI>
0

>  <Rbt.Current_Directory>
/home/itssahil/PROJECTS/Mol_Feturizer/New_Systems/rnas/2f4t

>  <Rbt.Executable>
rbdock ($Id: //depot/dev/client3/rdock/2013.1/src/exe/rbdock.cxx#4 $)

>  <Rbt.Library>
libRbt.so (2013.1, Build901 2013/11/27)

>  <Rbt.Parameter_File>
/export/apps/rDock/src/rDock_2013.1_src/data/scripts/dock_solv.prm

>  <Rbt.Receptor>
prm/pocket_docking_7.prm

>  <SCORE>
-15.5879

>  <SCORE.INTER>
-6.0858

>  <SCORE.INTER.CONST>
1

>  <SCORE.INTER.POLAR>
-0.938083

>  <SCORE.INTER.ROT>
13

>  <SCORE.INTER.SOLV>
13.8622

>  <SCORE.INTER.VDW>
-17.8176

>  <SCORE.INTER.norm>
-0.17388

>  <SCORE.INTRA>
-9.50215

>  <SCORE.INTRA.DIHEDRAL>
-18.325

>  <SCORE.INTRA.DIHEDRAL.0>
23.8882

>  <SCORE.INTRA.POLAR>
0

>  <SCORE.INTRA.POLAR.0>
0

>  <SCORE.INTRA.REPUL>
0

>  <SCORE.INTRA.REPUL.0>
0

>  <SCORE.INTRA.SOLV>
-0.115539

>  <SCORE.INTRA.SOLV.lig_0>
-97.6888

>  <SCORE.INTRA.VDW>
-0.281878

>  <SCORE.INTRA.VDW.0>
-3.9206

>  <SCORE.INTRA.norm>
-0.27149

>  <SCORE.RESTR>
0

>  <SCORE.RESTR.CAVITY>
0

>  <SCORE.RESTR.norm>
0

>  <SCORE.SYSTEM>
0

>  <SCORE.SYSTEM.CONST>
0

>  <SCORE.SYSTEM.DIHEDRAL>
0

>  <SCORE.SYSTEM.SOLV>
0

>  <SCORE.SYSTEM.norm>
0

>  <SCORE.heavy>
35

>  <SCORE.norm>
-0.44537

>  <RMSD>
9.758

$$$$
2f4t_lig
 OpenBabel11021811433D
libRbt.so/2013.1/901 2013/11/27
 35 36  0  0  0  0  0  0  0  0999 V2000
    3.6464  -13.8550   30.6635 C   0  0  2  0  0  0  0  0  0  0  0  0
    3.2656  -12.7459   31.5422 O   0  0  0  0  0  0  0  0  0  0  0  0
    3.4077   -8.4495   31.1199 C   0  0  2  0  0  0  0  0  0  0  0  0
    3.9536   -7.0880   31.0147 N   0  0  0  0  0  0  0  0  0  0  0  0
    2.5412  -14.9393   30.8435 C   0  0  2  0  0  0  0  0  0  0  0  0
    1.2372  -14.3911   30.5527 N   0  0  0  0  0  0  0  0  0  0  0  0
    4.0079   -9.1524   32.3924 C   0  0  0  0  0  0  0  0  0  0  0  0
    2.6795   -5.9788   30.4998 C   0  0  0  0  0  0  0  0  0  0  0  0
    3.7349   -4.8983   30.5824 C   0  0  1  0  0  0  0  0  0  0  0  0
    3.1347   -3.6207   29.9913 C   0  0  0  0  0  0  0  0  0  0  0  0
    2.6865   -3.7132   28.5230 C   0  0  0  0  0  0  0  0  0  0  0  0
    2.1421   -2.4122   28.1226 N   0  0  0  0  0  0  0  0  0  0  0  0
    4.0408   -4.5968   31.9187 O   0  0  0  0  0  0  0  0  0  0  0  0
    2.9757   -8.4572   27.3464 C   0  0  0  0  0  0  0  0  0  0  0  0
    2.1468   -7.1904   27.1991 C   0  0  0  0  0  0  0  0  0  0  0  0
    2.5854  -15.5162   32.2986 C   0  0  1  0  0  0  0  0  0  0  0  0
    1.7976   -6.8721   25.7973 N   0  0  0  0  0  0  0  0  0  0  0  0
    1.5923  -16.5065   32.4816 O   0  0  0  0  0  0  0  0  0  0  0  0
    3.4844  -10.5863   32.5547 C   0  0  2  0  0  0  0  0  0  0  0  0
    4.0860  -11.2307   33.7179 N   0  0  0  0  0  0  0  0  0  0  0  0
    0.7755   -7.3463   23.5697 C   0  0  0  0  0  0  0  0  0  0  0  0
    0.3970   -5.8722   23.2149 N   0  0  0  0  0  0  0  0  0  0  0  0
    0.7385   -7.6520   25.0963 C   0  0  0  0  0  0  0  0  0  0  0  0
    1.6461   -6.0864   30.2555 O   0  0  0  0  0  0  0  0  0  0  0  0
    3.9824  -16.0989   32.5365 C   0  0  2  0  0  0  0  0  0  0  0  0
    4.0872  -16.6522   33.8383 O   0  0  0  0  0  0  0  0  0  0  0  0
    3.7938  -11.4021   31.3244 C   0  0  2  0  0  0  0  0  0  0  0  0
    5.0596  -14.9953   32.3297 C   0  0  2  0  0  0  0  0  0  0  0  0
    4.9701  -14.4226   31.0085 O   0  0  0  0  0  0  0  0  0  0  0  0
    3.1635  -10.7142   30.0382 C   0  0  2  0  0  0  0  0  0  0  0  0
    3.4771  -11.5322   28.8713 O   0  0  0  0  0  0  0  0  0  0  0  0
    6.4331  -15.5188   32.5207 C   0  0  0  0  0  0  0  0  0  0  0  0
    6.5895  -15.9149   33.8030 N   0  0  0  0  0  0  0  0  0  0  0  0
    3.7759   -9.2792   29.8801 C   0  0  1  0  0  0  0  0  0  0  0  0
    3.2638   -8.6594   28.7436 O   0  0  0  0  0  0  0  0  0  0  0  0
  1  2  1  1  0  0  0
  1  5  1  0  0  0  0
  1 29  1  0  0  0  0
  3  4  1  6  0  0  0
  3  7  1  0  0  0  0
  3 34  1  0  0  0  0
  5  6  1  1  0  0  0
  5 16  1  0  0  0  0
  7 19  1  0  0  0  0
  8  4  1  0  0  0  0
  8 24  2  0  0  0  0
  9  8  1  1  0  0  0
  9 10  1  0  0  0  0
  9 13  1  0  0  0  0
 10 11  1  0  0  0  0
 11 12  1  0  0  0  0
 14 15  1  0  0  0  0
 14 35  1  0  0  0  0
 15 17  1  0  0  0  0
 16 18  1  6  0  0  0
 16 25  1  0  0  0  0
 19 20  1  1  0  0  0
 19 27  1  0  0  0  0
 21 22  1  0  0  0  0
 21 23  1  0  0  0  0
 23 17  1  0  0  0  0
 25 26  1  1  0  0  0
 25 28  1  0  0  0  0
 27  2  1  1  0  0  0
 27 30  1  0  0  0  0
 28 29  1  0  0  0  0
 28 32  1  6  0  0  0
 30 31  1  6  0  0  0
 30 34  1  0  0  0  0
 32 33  2  0  0  0  0
 34 35  1  6  0  0  0
M  END
>  <CHROM.1>
-159.57450626,-140.00470599,171.76274201,-60.05678798,-179.95551429,179.50703977
178.69272776,75.16396665,-65.86390110,-167.59596961,-166.88333836,-64.35736583
-179.72051792,3.17049188,-10.13168351,30.17503460,1.15447793,1.14868123,3.07478111

>  <Name>
2f4t_lig

>  <RI>
0

>  <Rbt.Current_Directory>
/home/itssahil/PROJECTS/Mol_Feturizer/New_Systems/rnas/2f4t

>  <Rbt.Executable>
rbdock ($Id: //depot/dev/client3/rdock/2013.1/src/exe/rbdock.cxx#4 $)

>  <Rbt.Library>
libRbt.so (2013.1, Build901 2013/11/27)

>  <Rbt.Parameter_File>
/export/apps/rDock/src/rDock_2013.1_src/data/scripts/dock_solv.prm

>  <Rbt.Receptor>
prm/pocket_docking_6.prm

>  <SCORE>
-13.3631

>  <SCORE.INTER>
-5.46405

>  <SCORE.INTER.CONST>
1

>  <SCORE.INTER.POLAR>
-1.98874

>  <SCORE.INTER.ROT>
13

>  <SCORE.INTER.SOLV>
12.0601

>  <SCORE.INTER.VDW>
-13.3003

>  <SCORE.INTER.norm>
-0.156116

>  <SCORE.INTRA>
-7.89903

>  <SCORE.INTRA.DIHEDRAL>
-17.1364

>  <SCORE.INTRA.DIHEDRAL.0>
23.8882

>  <SCORE.INTRA.POLAR>
0

>  <SCORE.INTRA.POLAR.0>
0

>  <SCORE.INTRA.REPUL>
0

>  <SCORE.INTRA.REPUL.0>
0

>  <SCORE.INTRA.SOLV>
1.09305

>  <SCORE.INTRA.SOLV.lig_0>
-97.6888

>  <SCORE.INTRA.VDW>
0.122651

>  <SCORE.INTRA.VDW.0>
-3.9206

>  <SCORE.INTRA.norm>
-0.225687

>  <SCORE.RESTR>
0

>  <SCORE.RESTR.CAVITY>
0

>  <SCORE.RESTR.norm>
0

>  <SCORE.SYSTEM>
0

>  <SCORE.SYSTEM.CONST>
0

>  <SCORE.SYSTEM.DIHEDRAL>
0

>  <SCORE.SYSTEM.SOLV>
0

>  <SCORE.SYSTEM.norm>
0

>  <SCORE.heavy>
35

>  <SCORE.norm>
-0.381802

>  <RMSD>
9.823

$$$$
2f4t_lig
 OpenBabel11021811433D
libRbt.so/2013.1/901 2013/11/27
 35 36  0  0  0  0  0  0  0  0999 V2000
    4.7629   -0.7927   33.6560 C   0  0  2  0  0  0  0  0  0  0  0  0
    5.1215   -0.6912   32.2389 O   0  0  0  0  0  0  0  0  0  0  0  0
    3.9529   -2.9872   28.7719 C   0  0  2  0  0  0  0  0  0  0  0  0
    3.8713   -4.1001   27.8140 N   0  0  0  0  0  0  0  0  0  0  0  0
    5.2020    0.5554   34.3038 C   0  0  2  0  0  0  0  0  0  0  0  0
    4.5827    1.6712   33.6278 N   0  0  0  0  0  0  0  0  0  0  0  0
    5.4637   -2.6351   29.0309 C   0  0  0  0  0  0  0  0  0  0  0  0
    2.7000   -3.7085   26.5517 C   0  0  0  0  0  0  0  0  0  0  0  0
    3.0448   -5.0584   25.9625 C   0  0  1  0  0  0  0  0  0  0  0  0
    1.9633   -6.0458   26.4066 C   0  0  0  0  0  0  0  0  0  0  0  0
    2.2632   -7.5292   26.1332 C   0  0  0  0  0  0  0  0  0  0  0  0
    1.1578   -8.3308   26.6666 N   0  0  0  0  0  0  0  0  0  0  0  0
    2.9822   -5.0247   24.5606 O   0  0  0  0  0  0  0  0  0  0  0  0
    0.8371   -4.4295   29.3702 C   0  0  0  0  0  0  0  0  0  0  0  0
   -0.4389   -3.7610   29.8586 C   0  0  0  0  0  0  0  0  0  0  0  0
    6.7621    0.6858   34.2690 C   0  0  1  0  0  0  0  0  0  0  0  0
   -1.6629   -4.5388   29.5663 N   0  0  0  0  0  0  0  0  0  0  0  0
    7.1822    1.9016   34.8571 O   0  0  0  0  0  0  0  0  0  0  0  0
    5.6192   -1.4836   30.0340 C   0  0  2  0  0  0  0  0  0  0  0  0
    7.0286   -1.2028   30.2886 N   0  0  0  0  0  0  0  0  0  0  0  0
   -3.9331   -5.0816   30.4513 C   0  0  0  0  0  0  0  0  0  0  0  0
   -3.3945   -5.7434   31.7604 N   0  0  0  0  0  0  0  0  0  0  0  0
   -3.0030   -3.9689   29.8838 C   0  0  0  0  0  0  0  0  0  0  0  0
    2.0651   -2.8743   26.3514 O   0  0  0  0  0  0  0  0  0  0  0  0
    7.3559   -0.5121   35.0174 C   0  0  2  0  0  0  0  0  0  0  0  0
    8.7728   -0.4489   35.0345 O   0  0  0  0  0  0  0  0  0  0  0  0
    4.9417   -1.8257   31.3374 C   0  0  2  0  0  0  0  0  0  0  0  0
    6.8817   -1.8385   34.3564 C   0  0  2  0  0  0  0  0  0  0  0  0
    5.4415   -1.9217   34.3330 O   0  0  0  0  0  0  0  0  0  0  0  0
    3.4068   -2.1524   31.0877 C   0  0  2  0  0  0  0  0  0  0  0  0
    2.7840   -2.4720   32.3680 O   0  0  0  0  0  0  0  0  0  0  0  0
    7.4077   -3.0296   35.0646 C   0  0  0  0  0  0  0  0  0  0  0  0
    7.2406   -4.1240   34.2899 N   0  0  0  0  0  0  0  0  0  0  0  0
    3.3015   -3.3731   30.1090 C   0  0  1  0  0  0  0  0  0  0  0  0
    1.9666   -3.7027   29.8918 O   0  0  0  0  0  0  0  0  0  0  0  0
  1  2  1  6  0  0  0
  1  5  1  0  0  0  0
  1 29  1  0  0  0  0
  3  4  1  6  0  0  0
  3  7  1  0  0  0  0
  3 34  1  0  0  0  0
  5  6  1  6  0  0  0
  5 16  1  0  0  0  0
  7 19  1  0  0  0  0
  8  4  1  0  0  0  0
  8 24  2  0  0  0  0
  9  8  1  1  0  0  0
  9 10  1  0  0  0  0
  9 13  1  0  0  0  0
 10 11  1  0  0  0  0
 11 12  1  0  0  0  0
 14 15  1  0  0  0  0
 14 35  1  0  0  0  0
 15 17  1  0  0  0  0
 16 18  1  1  0  0  0
 16 25  1  0  0  0  0
 19 20  1  1  0  0  0
 19 27  1  0  0  0  0
 21 22  1  0  0  0  0
 21 23  1  0  0  0  0
 23 17  1  0  0  0  0
 25 26  1  6  0  0  0
 25 28  1  0  0  0  0
 27  2  1  1  0  0  0
 27 30  1  0  0  0  0
 28 29  1  0  0  0  0
 28 32  1  1  0  0  0
 30 31  1  1  0  0  0
 30 34  1  0  0  0  0
 32 33  2  0  0  0  0
 34 35  1  6  0  0  0
M  END
>  <CHROM.1>
175.44556308,-131.96150954,98.43472225,-169.06879396,177.72626323,-170.86104999
-178.54682250,-175.13526522,59.97211942,-140.39682272,-170.25383090,-165.62857836
62.57985970,3.52679036,-2.86474552,30.72424459,0.87196040,0.24707742,1.12282427

>  <Name>
2f4t_lig

>  <RI>
0

>  <Rbt.Current_Directory>
/home/itssahil/PROJECTS/Mol_Feturizer/New_Systems/rnas/2f4t

>  <Rbt.Executable>
rbdock ($Id: //depot/dev/client3/rdock/2013.1/src/exe/rbdock.cxx#4 $)

>  <Rbt.Library>
libRbt.so (2013.1, Build901 2013/11/27)

>  <Rbt.Parameter_File>
/export/apps/rDock/src/rDock_2013.1_src/data/scripts/dock_solv.prm

>  <Rbt.Receptor>
prm/pocket_docking_8.prm

>  <SCORE>
-10.5562

>  <SCORE.INTER>
-1.22676

>  <SCORE.INTER.CONST>
1

>  <SCORE.INTER.POLAR>
-0.926005

>  <SCORE.INTER.ROT>
13

>  <SCORE.INTER.SOLV>
11.8148

>  <SCORE.INTER.VDW>
-13.9361

>  <SCORE.INTER.norm>
-0.0350503

>  <SCORE.INTRA>
-9.33486

>  <SCORE.INTRA.DIHEDRAL>
-16.8041

>  <SCORE.INTRA.DIHEDRAL.0>
23.8882

>  <SCORE.INTRA.POLAR>
0

>  <SCORE.INTRA.POLAR.0>
0

>  <SCORE.INTRA.REPUL>
0

>  <SCORE.INTRA.REPUL.0>
0

>  <SCORE.INTRA.SOLV>
0.161221

>  <SCORE.INTRA.SOLV.lig_0>
-97.6888

>  <SCORE.INTRA.VDW>
-1.0134

>  <SCORE.INTRA.VDW.0>
-3.9206

>  <SCORE.INTRA.norm>
-0.26671

>  <SCORE.RESTR>
0.00541474

>  <SCORE.RESTR.CAVITY>
0.00541474

>  <SCORE.RESTR.norm>
0.000154707

>  <SCORE.SYSTEM>
0

>  <SCORE.SYSTEM.CONST>
0

>  <SCORE.SYSTEM.DIHEDRAL>
0

>  <SCORE.SYSTEM.SOLV>
0

>  <SCORE.SYSTEM.norm>
0

>  <SCORE.heavy>
35

>  <SCORE.norm>
-0.301606

>  <RMSD>
9.992

$$$$
2f4t_lig
 OpenBabel11021811433D
libRbt.so/2013.1/901 2013/11/27
 35 36  0  0  0  0  0  0  0  0999 V2000
    3.1942   -3.5255   27.3234 C   0  0  2  0  0  0  0  0  0  0  0  0
    2.1417   -3.1667   26.3691 O   0  0  0  0  0  0  0  0  0  0  0  0
    0.2846   -5.3261   23.1217 C   0  0  2  0  0  0  0  0  0  0  0  0
   -0.3633   -6.4177   22.3793 N   0  0  0  0  0  0  0  0  0  0  0  0
    2.9291   -2.6622   28.5939 C   0  0  2  0  0  0  0  0  0  0  0  0
    1.5928   -2.8871   29.0931 N   0  0  0  0  0  0  0  0  0  0  0  0
    1.5962   -5.8670   23.8004 C   0  0  0  0  0  0  0  0  0  0  0  0
   -0.5448   -7.8229   23.4335 C   0  0  0  0  0  0  0  0  0  0  0  0
   -1.1934   -8.4968   22.2447 C   0  0  1  0  0  0  0  0  0  0  0  0
   -1.0840  -10.0087   22.4548 C   0  0  0  0  0  0  0  0  0  0  0  0
   -1.4437  -10.8776   21.2380 C   0  0  0  0  0  0  0  0  0  0  0  0
   -0.4821  -10.5962   20.1679 N   0  0  0  0  0  0  0  0  0  0  0  0
   -2.5674   -8.2139   22.1957 O   0  0  0  0  0  0  0  0  0  0  0  0
   -2.6600   -3.5326   22.7599 C   0  0  0  0  0  0  0  0  0  0  0  0
   -4.1149   -3.8325   23.0865 C   0  0  0  0  0  0  0  0  0  0  0  0
    3.1492   -1.1460   28.2695 C   0  0  1  0  0  0  0  0  0  0  0  0
   -5.0716   -3.2242   22.1360 N   0  0  0  0  0  0  0  0  0  0  0  0
    2.9180   -0.3447   29.4117 O   0  0  0  0  0  0  0  0  0  0  0  0
    2.3174   -4.7752   24.6031 C   0  0  2  0  0  0  0  0  0  0  0  0
    3.5079   -5.3108   25.2559 N   0  0  0  0  0  0  0  0  0  0  0  0
   -5.9205   -1.1286   23.1940 C   0  0  0  0  0  0  0  0  0  0  0  0
   -7.4213   -1.5594   23.2555 N   0  0  0  0  0  0  0  0  0  0  0  0
   -5.1416   -1.7423   21.9931 C   0  0  0  0  0  0  0  0  0  0  0  0
   -0.2895   -8.0367   24.4476 O   0  0  0  0  0  0  0  0  0  0  0  0
    4.5858   -0.9715   27.7664 C   0  0  2  0  0  0  0  0  0  0  0  0
    4.8569    0.3877   27.4647 O   0  0  0  0  0  0  0  0  0  0  0  0
    1.3985   -4.1980   25.6506 C   0  0  2  0  0  0  0  0  0  0  0  0
    4.8201   -1.8609   26.5113 C   0  0  2  0  0  0  0  0  0  0  0  0
    4.5519   -3.2488   26.8005 O   0  0  0  0  0  0  0  0  0  0  0  0
    0.0844   -3.6210   24.9686 C   0  0  2  0  0  0  0  0  0  0  0  0
   -0.7758   -3.0670   26.0089 O   0  0  0  0  0  0  0  0  0  0  0  0
    6.2080   -1.7485   26.0036 C   0  0  0  0  0  0  0  0  0  0  0  0
    6.1840   -1.3525   24.7119 N   0  0  0  0  0  0  0  0  0  0  0  0
   -0.6486   -4.7853   24.2161 C   0  0  1  0  0  0  0  0  0  0  0  0
   -1.8213   -4.3172   23.6301 O   0  0  0  0  0  0  0  0  0  0  0  0
  1  2  1  6  0  0  0
  1  5  1  0  0  0  0
  1 29  1  0  0  0  0
  3  4  1  1  0  0  0
  3  7  1  0  0  0  0
  3 34  1  0  0  0  0
  5  6  1  6  0  0  0
  5 16  1  0  0  0  0
  7 19  1  0  0  0  0
  8  4  1  0  0  0  0
  8 24  2  0  0  0  0
  9  8  1  1  0  0  0
  9 10  1  0  0  0  0
  9 13  1  0  0  0  0
 10 11  1  0  0  0  0
 11 12  1  0  0  0  0
 14 15  1  0  0  0  0
 14 35  1  0  0  0  0
 15 17  1  0  0  0  0
 16 18  1  1  0  0  0
 16 25  1  0  0  0  0
 19 20  1  1  0  0  0
 19 27  1  0  0  0  0
 21 22  1  0  0  0  0
 21 23  1  0  0  0  0
 23 17  1  0  0  0  0
 25 26  1  6  0  0  0
 25 28  1  0  0  0  0
 27  2  1  6  0  0  0
 27 30  1  0  0  0  0
 28 29  1  0  0  0  0
 28 32  1  1  0  0  0
 30 31  1  1  0  0  0
 30 34  1  0  0  0  0
 32 33  2  0  0  0  0
 34 35  1  6  0  0  0
M  END
>  <CHROM.1>
-133.22979329,51.31604236,158.02714632,-168.86149043,63.65446197,-172.19137402
-175.23309738,-62.05433033,-64.53802367,-77.15230644,-73.39192122,-123.00294432
-57.11670082,0.40378155,-4.25066729,24.71578014,-0.71375984,0.35188142,-2.70027153

>  <Name>
2f4t_lig

>  <RI>
0

>  <Rbt.Current_Directory>
/home/itssahil/PROJECTS/Mol_Feturizer/New_Systems/rnas/2f4t

>  <Rbt.Executable>
rbdock ($Id: //depot/dev/client3/rdock/2013.1/src/exe/rbdock.cxx#4 $)

>  <Rbt.Library>
libRbt.so (2013.1, Build901 2013/11/27)

>  <Rbt.Parameter_File>
/export/apps/rDock/src/rDock_2013.1_src/data/scripts/dock_solv.prm

>  <Rbt.Receptor>
prm/pocket_docking_8.prm

>  <SCORE>
-15.7081

>  <SCORE.INTER>
-12.4377

>  <SCORE.INTER.CONST>
1

>  <SCORE.INTER.POLAR>
-0.189402

>  <SCORE.INTER.ROT>
13

>  <SCORE.INTER.SOLV>
18.5928

>  <SCORE.INTER.VDW>
-26.1247

>  <SCORE.INTER.norm>
-0.355362

>  <SCORE.INTRA>
-3.27049

>  <SCORE.INTRA.DIHEDRAL>
-13.3436

>  <SCORE.INTRA.DIHEDRAL.0>
23.8882

>  <SCORE.INTRA.POLAR>
0

>  <SCORE.INTRA.POLAR.0>
0

>  <SCORE.INTRA.REPUL>
0

>  <SCORE.INTRA.REPUL.0>
0

>  <SCORE.INTRA.SOLV>
3.90659

>  <SCORE.INTRA.SOLV.lig_0>
-97.6888

>  <SCORE.INTRA.VDW>
1.44801

>  <SCORE.INTRA.VDW.0>
-3.9206

>  <SCORE.INTRA.norm>
-0.0934426

>  <SCORE.RESTR>
0

>  <SCORE.RESTR.CAVITY>
0

>  <SCORE.RESTR.norm>
0

>  <SCORE.SYSTEM>
0

>  <SCORE.SYSTEM.CONST>
0

>  <SCORE.SYSTEM.DIHEDRAL>
0

>  <SCORE.SYSTEM.SOLV>
0

>  <SCORE.SYSTEM.norm>
0

>  <SCORE.heavy>
35

>  <SCORE.norm>
-0.448804

>  <RMSD>
10.099

$$$$
2f4t_lig
 OpenBabel11021811433D
libRbt.so/2013.1/901 2013/11/27
 35 36  0  0  0  0  0  0  0  0999 V2000
    3.5810  -11.4322   35.3507 C   0  0  2  0  0  0  0  0  0  0  0  0
    3.4388  -12.2860   34.1683 O   0  0  0  0  0  0  0  0  0  0  0  0
    5.1088  -16.1145   33.0679 C   0  0  2  0  0  0  0  0  0  0  0  0
    6.0933  -17.1265   32.6567 N   0  0  0  0  0  0  0  0  0  0  0  0
    2.1341  -11.1907   35.8778 C   0  0  2  0  0  0  0  0  0  0  0  0
    1.4731  -12.4464   36.1458 N   0  0  0  0  0  0  0  0  0  0  0  0
    5.1740  -14.8945   32.0774 C   0  0  0  0  0  0  0  0  0  0  0  0
    5.6485  -17.7753   31.0756 C   0  0  0  0  0  0  0  0  0  0  0  0
    6.8878  -18.6339   31.1985 C   0  0  1  0  0  0  0  0  0  0  0  0
    6.4297  -20.0735   31.4424 C   0  0  0  0  0  0  0  0  0  0  0  0
    5.5781  -20.2965   32.7034 C   0  0  0  0  0  0  0  0  0  0  0  0
    4.9630  -21.6244   32.6174 N   0  0  0  0  0  0  0  0  0  0  0  0
    7.6036  -18.6575   29.9913 O   0  0  0  0  0  0  0  0  0  0  0  0
    4.8366  -17.8371   36.0549 C   0  0  0  0  0  0  0  0  0  0  0  0
    3.4817  -17.4717   36.6416 C   0  0  0  0  0  0  0  0  0  0  0  0
    1.3177  -10.3474   34.8412 C   0  0  1  0  0  0  0  0  0  0  0  0
    2.5107  -16.9927   35.6334 N   0  0  0  0  0  0  0  0  0  0  0  0
    0.0016  -10.1128   35.3030 O   0  0  0  0  0  0  0  0  0  0  0  0
    4.1744  -13.7937   32.4587 C   0  0  2  0  0  0  0  0  0  0  0  0
    4.2820  -12.6565   31.5502 N   0  0  0  0  0  0  0  0  0  0  0  0
    0.2278  -17.6389   36.4094 C   0  0  0  0  0  0  0  0  0  0  0  0
   -1.2096  -17.1801   36.8161 N   0  0  0  0  0  0  0  0  0  0  0  0
    1.1870  -16.4612   36.0654 C   0  0  0  0  0  0  0  0  0  0  0  0
    4.8490  -17.5982   30.3910 O   0  0  0  0  0  0  0  0  0  0  0  0
    2.0575   -9.0246   34.6168 C   0  0  2  0  0  0  0  0  0  0  0  0
    1.3615   -8.2036   33.6930 O   0  0  0  0  0  0  0  0  0  0  0  0
    4.4230  -13.3224   33.8697 C   0  0  2  0  0  0  0  0  0  0  0  0
    3.5020   -9.3041   34.1102 C   0  0  2  0  0  0  0  0  0  0  0  0
    4.2268  -10.1362   35.0396 O   0  0  0  0  0  0  0  0  0  0  0  0
    4.3278  -14.5449   34.8804 C   0  0  2  0  0  0  0  0  0  0  0  0
    4.5671  -14.0515   36.2325 O   0  0  0  0  0  0  0  0  0  0  0  0
    4.2694   -8.0527   33.9058 C   0  0  0  0  0  0  0  0  0  0  0  0
    4.8025   -8.0494   32.6642 N   0  0  0  0  0  0  0  0  0  0  0  0
    5.4087  -15.6113   34.4885 C   0  0  1  0  0  0  0  0  0  0  0  0
    5.3698  -16.6846   35.3741 O   0  0  0  0  0  0  0  0  0  0  0  0
  1  2  1  6  0  0  0
  1  5  1  0  0  0  0
  1 29  1  0  0  0  0
  3  4  1  6  0  0  0
  3  7  1  0  0  0  0
  3 34  1  0  0  0  0
  5  6  1  6  0  0  0
  5 16  1  0  0  0  0
  7 19  1  0  0  0  0
  8  4  1  0  0  0  0
  8 24  2  0  0  0  0
  9  8  1  6  0  0  0
  9 10  1  0  0  0  0
  9 13  1  0  0  0  0
 10 11  1  0  0  0  0
 11 12  1  0  0  0  0
 14 15  1  0  0  0  0
 14 35  1  0  0  0  0
 15 17  1  0  0  0  0
 16 18  1  1  0  0  0
 16 25  1  0  0  0  0
 19 20  1  6  0  0  0
 19 27  1  0  0  0  0
 21 22  1  0  0  0  0
 21 23  1  0  0  0  0
 23 17  1  0  0  0  0
 25 26  1  6  0  0  0
 25 28  1  0  0  0  0
 27  2  1  1  0  0  0
 27 30  1  0  0  0  0
 28 29  1  0  0  0  0
 28 32  1  1  0  0  0
 30 31  1  1  0  0  0
 30 34  1  0  0  0  0
 32 33  2  0  0  0  0
 34 35  1  1  0  0  0
M  END
>  <CHROM.1>
-143.61007760,-64.79326743,108.36092408,-59.56686177,166.51051553,57.56462530
-53.26509228,-173.60524152,-177.54007349,-78.51373271,-167.22730982,-128.16682655
-54.71033384,3.82440980,-14.50321300,33.98663756,-2.00409833,-0.78489184
3.04073367

>  <Name>
2f4t_lig

>  <RI>
0

>  <Rbt.Current_Directory>
/home/itssahil/PROJECTS/Mol_Feturizer/New_Systems/rnas/2f4t

>  <Rbt.Executable>
rbdock ($Id: //depot/dev/client3/rdock/2013.1/src/exe/rbdock.cxx#4 $)

>  <Rbt.Library>
libRbt.so (2013.1, Build901 2013/11/27)

>  <Rbt.Parameter_File>
/export/apps/rDock/src/rDock_2013.1_src/data/scripts/dock_solv.prm

>  <Rbt.Receptor>
prm/pocket_docking_8.prm

>  <SCORE>
-9.22299

>  <SCORE.INTER>
-2.46588

>  <SCORE.INTER.CONST>
1

>  <SCORE.INTER.POLAR>
-1.21313

>  <SCORE.INTER.ROT>
13

>  <SCORE.INTER.SOLV>
8.72374

>  <SCORE.INTER.VDW>
-12.7747

>  <SCORE.INTER.norm>
-0.0704537

>  <SCORE.INTRA>
-6.76071

>  <SCORE.INTRA.DIHEDRAL>
-13.7743

>  <SCORE.INTRA.DIHEDRAL.0>
23.8882

>  <SCORE.INTRA.POLAR>
0

>  <SCORE.INTRA.POLAR.0>
0

>  <SCORE.INTRA.REPUL>
0

>  <SCORE.INTRA.REPUL.0>
0

>  <SCORE.INTRA.SOLV>
2.07523

>  <SCORE.INTRA.SOLV.lig_0>
-97.6888

>  <SCORE.INTRA.VDW>
-0.911181

>  <SCORE.INTRA.VDW.0>
-3.9206

>  <SCORE.INTRA.norm>
-0.193163

>  <SCORE.RESTR>
0.00359803

>  <SCORE.RESTR.CAVITY>
0.00359803

>  <SCORE.RESTR.norm>
0.000102801

>  <SCORE.SYSTEM>
0

>  <SCORE.SYSTEM.CONST>
0

>  <SCORE.SYSTEM.DIHEDRAL>
0

>  <SCORE.SYSTEM.SOLV>
0

>  <SCORE.SYSTEM.norm>
0

>  <SCORE.heavy>
35

>  <SCORE.norm>
-0.263514

>  <RMSD>
10.099

$$$$
2f4t_lig
 OpenBabel11021811433D
libRbt.so/2013.1/901 2013/11/27
 35 36  0  0  0  0  0  0  0  0999 V2000
    5.0269  -16.4571   33.6074 C   0  0  2  0  0  0  0  0  0  0  0  0
    5.7139  -15.1629   33.6249 O   0  0  0  0  0  0  0  0  0  0  0  0
    2.4457  -12.4519   34.4163 C   0  0  2  0  0  0  0  0  0  0  0  0
    1.7223  -11.2510   34.8604 N   0  0  0  0  0  0  0  0  0  0  0  0
    6.0737  -17.4877   33.0864 C   0  0  2  0  0  0  0  0  0  0  0  0
    7.2588  -17.4719   33.9115 N   0  0  0  0  0  0  0  0  0  0  0  0
    3.3645  -12.9660   35.5847 C   0  0  0  0  0  0  0  0  0  0  0  0
    0.2554  -11.7290   35.7197 C   0  0  0  0  0  0  0  0  0  0  0  0
    0.0066  -10.2477   35.8995 C   0  0  1  0  0  0  0  0  0  0  0  0
   -1.4845   -9.9980   35.6626 C   0  0  0  0  0  0  0  0  0  0  0  0
   -1.8896   -8.5282   35.4613 C   0  0  0  0  0  0  0  0  0  0  0  0
   -1.5806   -7.7906   36.6900 N   0  0  0  0  0  0  0  0  0  0  0  0
    0.2569   -9.8539   37.2233 O   0  0  0  0  0  0  0  0  0  0  0  0
    1.5522  -10.8403   31.4953 C   0  0  0  0  0  0  0  0  0  0  0  0
    1.9691   -9.3838   31.6305 C   0  0  0  0  0  0  0  0  0  0  0  0
    6.4359  -17.1792   31.5944 C   0  0  1  0  0  0  0  0  0  0  0  0
    0.8437   -8.4323   31.5013 N   0  0  0  0  0  0  0  0  0  0  0  0
    7.3822  -18.1070   31.1003 O   0  0  0  0  0  0  0  0  0  0  0  0
    4.1582  -14.2163   35.1808 C   0  0  2  0  0  0  0  0  0  0  0  0
    5.0326  -14.6499   36.2660 N   0  0  0  0  0  0  0  0  0  0  0  0
   -1.0718   -7.3133   30.3567 C   0  0  0  0  0  0  0  0  0  0  0  0
   -0.6367   -5.8496   30.6887 N   0  0  0  0  0  0  0  0  0  0  0  0
    0.1218   -8.3018   30.2039 C   0  0  0  0  0  0  0  0  0  0  0  0
   -0.1969  -12.6634   35.9677 O   0  0  0  0  0  0  0  0  0  0  0  0
    5.1445  -17.2314   30.7714 C   0  0  2  0  0  0  0  0  0  0  0  0
    5.4044  -16.9719   29.4014 O   0  0  0  0  0  0  0  0  0  0  0  0
    4.9938  -13.9368   33.9565 C   0  0  2  0  0  0  0  0  0  0  0  0
    4.1173  -16.2052   31.3307 C   0  0  2  0  0  0  0  0  0  0  0  0
    3.8382  -16.4558   32.7239 O   0  0  0  0  0  0  0  0  0  0  0  0
    4.0680  -13.4465   32.7618 C   0  0  2  0  0  0  0  0  0  0  0  0
    4.9075  -13.1922   31.5958 O   0  0  0  0  0  0  0  0  0  0  0  0
    2.8376  -16.2387   30.5837 C   0  0  0  0  0  0  0  0  0  0  0  0
    2.7404  -15.1369   29.8078 N   0  0  0  0  0  0  0  0  0  0  0  0
    3.3287  -12.1345   33.1994 C   0  0  1  0  0  0  0  0  0  0  0  0
    2.5293  -11.6630   32.1619 O   0  0  0  0  0  0  0  0  0  0  0  0
  1  2  1  6  0  0  0
  1  5  1  0  0  0  0
  1 29  1  0  0  0  0
  3  4  1  1  0  0  0
  3  7  1  0  0  0  0
  3 34  1  0  0  0  0
  5  6  1  1  0  0  0
  5 16  1  0  0  0  0
  7 19  1  0  0  0  0
  8  4  1  0  0  0  0
  8 24  2  0  0  0  0
  9  8  1  1  0  0  0
  9 10  1  0  0  0  0
  9 13  1  0  0  0  0
 10 11  1  0  0  0  0
 11 12  1  0  0  0  0
 14 15  1  0  0  0  0
 14 35  1  0  0  0  0
 15 17  1  0  0  0  0
 16 18  1  6  0  0  0
 16 25  1  0  0  0  0
 19 20  1  1  0  0  0
 19 27  1  0  0  0  0
 21 22  1  0  0  0  0
 21 23  1  0  0  0  0
 23 17  1  0  0  0  0
 25 26  1  6  0  0  0
 25 28  1  0  0  0  0
 27  2  1  6  0  0  0
 27 30  1  0  0  0  0
 28 29  1  0  0  0  0
 28 32  1  6  0  0  0
 30 31  1  6  0  0  0
 30 34  1  0  0  0  0
 32 33  2  0  0  0  0
 34 35  1  6  0  0  0
M  END
>  <CHROM.1>
174.79421400,-85.15409671,138.39888197,-165.76564139,-62.90114444,-156.37758054
56.37438898,-65.70704636,64.16574374,176.20853079,45.98115425,-106.91014878
53.07669867,2.77171983,-12.88702713,33.13036255,-0.00472062,-0.93038280,1.77976577

>  <Name>
2f4t_lig

>  <RI>
0

>  <Rbt.Current_Directory>
/home/itssahil/PROJECTS/Mol_Feturizer/New_Systems/rnas/2f4t

>  <Rbt.Executable>
rbdock ($Id: //depot/dev/client3/rdock/2013.1/src/exe/rbdock.cxx#4 $)

>  <Rbt.Library>
libRbt.so (2013.1, Build901 2013/11/27)

>  <Rbt.Parameter_File>
/export/apps/rDock/src/rDock_2013.1_src/data/scripts/dock_solv.prm

>  <Rbt.Receptor>
prm/pocket_docking_8.prm

>  <SCORE>
-7.24938

>  <SCORE.INTER>
0.0830887

>  <SCORE.INTER.CONST>
1

>  <SCORE.INTER.POLAR>
-1.81463

>  <SCORE.INTER.ROT>
13

>  <SCORE.INTER.SOLV>
13.7288

>  <SCORE.INTER.VDW>
-10.7388

>  <SCORE.INTER.norm>
0.00237396

>  <SCORE.INTRA>
-7.33247

>  <SCORE.INTRA.DIHEDRAL>
-16.4326

>  <SCORE.INTRA.DIHEDRAL.0>
23.8882

>  <SCORE.INTRA.POLAR>
0

>  <SCORE.INTRA.POLAR.0>
0

>  <SCORE.INTRA.REPUL>
0

>  <SCORE.INTRA.REPUL.0>
0

>  <SCORE.INTRA.SOLV>
2.59515

>  <SCORE.INTRA.SOLV.lig_0>
-97.6888

>  <SCORE.INTRA.VDW>
-0.413756

>  <SCORE.INTRA.VDW.0>
-3.9206

>  <SCORE.INTRA.norm>
-0.209499

>  <SCORE.RESTR>
0

>  <SCORE.RESTR.CAVITY>
0

>  <SCORE.RESTR.norm>
0

>  <SCORE.SYSTEM>
0

>  <SCORE.SYSTEM.CONST>
0

>  <SCORE.SYSTEM.DIHEDRAL>
0

>  <SCORE.SYSTEM.SOLV>
0

>  <SCORE.SYSTEM.norm>
0

>  <SCORE.heavy>
35

>  <SCORE.norm>
-0.207125

>  <RMSD>
10.226

$$$$
2f4t_lig
 OpenBabel11021811433D
libRbt.so/2013.1/901 2013/11/27
 35 36  0  0  0  0  0  0  0  0999 V2000
    3.7185   -3.5068   27.9213 C   0  0  2  0  0  0  0  0  0  0  0  0
    2.8772   -3.1480   26.7764 O   0  0  0  0  0  0  0  0  0  0  0  0
    0.5938   -5.4088   23.8898 C   0  0  2  0  0  0  0  0  0  0  0  0
   -0.2849   -6.4458   23.3284 N   0  0  0  0  0  0  0  0  0  0  0  0
    2.7601   -3.5763   29.1485 C   0  0  2  0  0  0  0  0  0  0  0  0
    1.6857   -4.5098   28.9038 N   0  0  0  0  0  0  0  0  0  0  0  0
    1.7375   -6.0937   24.7242 C   0  0  0  0  0  0  0  0  0  0  0  0
    0.4971   -7.1895   21.9305 C   0  0  0  0  0  0  0  0  0  0  0  0
   -0.7397   -8.0550   21.8340 C   0  0  1  0  0  0  0  0  0  0  0  0
   -0.9556   -8.3884   20.3561 C   0  0  0  0  0  0  0  0  0  0  0  0
   -2.3144   -9.0188   20.0075 C   0  0  0  0  0  0  0  0  0  0  0  0
   -2.4230  -10.3015   20.7089 N   0  0  0  0  0  0  0  0  0  0  0  0
   -0.5431   -9.2851   22.4809 O   0  0  0  0  0  0  0  0  0  0  0  0
   -2.4368   -3.7727   23.3228 C   0  0  0  0  0  0  0  0  0  0  0  0
   -2.2480   -4.5344   22.0199 C   0  0  0  0  0  0  0  0  0  0  0  0
    2.1920   -2.1526   29.4688 C   0  0  1  0  0  0  0  0  0  0  0  0
   -2.6551   -5.9543   22.1008 N   0  0  0  0  0  0  0  0  0  0  0  0
    1.3226   -2.1929   30.5836 O   0  0  0  0  0  0  0  0  0  0  0  0
    2.6871   -5.0617   25.3486 C   0  0  2  0  0  0  0  0  0  0  0  0
    3.7145   -5.7189   26.1503 N   0  0  0  0  0  0  0  0  0  0  0  0
   -4.9185   -6.3169   21.1124 C   0  0  0  0  0  0  0  0  0  0  0  0
   -5.0273   -4.9179   20.4247 N   0  0  0  0  0  0  0  0  0  0  0  0
   -4.0678   -6.3089   22.4169 C   0  0  0  0  0  0  0  0  0  0  0  0
    1.4282   -7.0464   21.4287 O   0  0  0  0  0  0  0  0  0  0  0  0
    3.3761   -1.2182   29.7382 C   0  0  2  0  0  0  0  0  0  0  0  0
    2.9291    0.0916   30.0487 O   0  0  0  0  0  0  0  0  0  0  0  0
    1.9198   -4.1011   26.2223 C   0  0  2  0  0  0  0  0  0  0  0  0
    4.3201   -1.1884   28.5016 C   0  0  2  0  0  0  0  0  0  0  0  0
    4.7875   -2.5130   28.1725 O   0  0  0  0  0  0  0  0  0  0  0  0
    0.7820   -3.3818   25.3780 C   0  0  2  0  0  0  0  0  0  0  0  0
    0.0664   -2.4582   26.2520 O   0  0  0  0  0  0  0  0  0  0  0  0
    5.4990   -0.3183   28.7253 C   0  0  0  0  0  0  0  0  0  0  0  0
    5.3975    0.7849   27.9518 N   0  0  0  0  0  0  0  0  0  0  0  0
   -0.1963   -4.4708   24.8156 C   0  0  1  0  0  0  0  0  0  0  0  0
   -1.2228   -3.8692   24.0929 O   0  0  0  0  0  0  0  0  0  0  0  0
  1  2  1  6  0  0  0
  1  5  1  0  0  0  0
  1 29  1  0  0  0  0
  3  4  1  1  0  0  0
  3  7  1  0  0  0  0
  3 34  1  0  0  0  0
  5  6  1  6  0  0  0
  5 16  1  0  0  0  0
  7 19  1  0  0  0  0
  8  4  1  0  0  0  0
  8 24  2  0  0  0  0
  9  8  1  6  0  0  0
  9 10  1  0  0  0  0
  9 13  1  0  0  0  0
 10 11  1  0  0  0  0
 11 12  1  0  0  0  0
 14 15  1  0  0  0  0
 14 35  1  0  0  0  0
 15 17  1  0  0  0  0
 16 18  1  1  0  0  0
 16 25  1  0  0  0  0
 19 20  1  1  0  0  0
 19 27  1  0  0  0  0
 21 22  1  0  0  0  0
 21 23  1  0  0  0  0
 23 17  1  0  0  0  0
 25 26  1  6  0  0  0
 25 28  1  0  0  0  0
 27  2  1  6  0  0  0
 27 30  1  0  0  0  0
 28 29  1  0  0  0  0
 28 32  1  1  0  0  0
 30 31  1  1  0  0  0
 30 34  1  0  0  0  0
 32 33  2  0  0  0  0
 34 35  1  6  0  0  0
M  END
>  <CHROM.1>
-70.64181401,-77.28203199,148.97710839,-168.04811628,-62.29356002,90.69361775
-63.14062043,61.36301548,-63.97728871,85.66012059,-79.41538557,-110.09573719
64.05299870,0.68045849,-4.60535799,25.04587806,-0.96364951,0.39720617,-2.48076177

>  <Name>
2f4t_lig

>  <RI>
0

>  <Rbt.Current_Directory>
/home/itssahil/PROJECTS/Mol_Feturizer/New_Systems/rnas/2f4t

>  <Rbt.Executable>
rbdock ($Id: //depot/dev/client3/rdock/2013.1/src/exe/rbdock.cxx#4 $)

>  <Rbt.Library>
libRbt.so (2013.1, Build901 2013/11/27)

>  <Rbt.Parameter_File>
/export/apps/rDock/src/rDock_2013.1_src/data/scripts/dock_solv.prm

>  <Rbt.Receptor>
prm/pocket_docking_6.prm

>  <SCORE>
-12.0218

>  <SCORE.INTER>
-9.60102

>  <SCORE.INTER.CONST>
1

>  <SCORE.INTER.POLAR>
0

>  <SCORE.INTER.ROT>
13

>  <SCORE.INTER.SOLV>
11.2295

>  <SCORE.INTER.VDW>
-22.4105

>  <SCORE.INTER.norm>
-0.274315

>  <SCORE.INTRA>
-2.42082

>  <SCORE.INTRA.DIHEDRAL>
-14.8804

>  <SCORE.INTRA.DIHEDRAL.0>
23.8882

>  <SCORE.INTRA.POLAR>
0

>  <SCORE.INTRA.POLAR.0>
0

>  <SCORE.INTRA.REPUL>
0.0324517

>  <SCORE.INTRA.REPUL.0>
0

>  <SCORE.INTRA.SOLV>
10.5685

>  <SCORE.INTRA.SOLV.lig_0>
-97.6888

>  <SCORE.INTRA.VDW>
-0.42717

>  <SCORE.INTRA.VDW.0>
-3.9206

>  <SCORE.INTRA.norm>
-0.0691662

>  <SCORE.RESTR>
0

>  <SCORE.RESTR.CAVITY>
0

>  <SCORE.RESTR.norm>
0

>  <SCORE.SYSTEM>
0

>  <SCORE.SYSTEM.CONST>
0

>  <SCORE.SYSTEM.DIHEDRAL>
0

>  <SCORE.SYSTEM.SOLV>
0

>  <SCORE.SYSTEM.norm>
0

>  <SCORE.heavy>
35

>  <SCORE.norm>
-0.343481

>  <RMSD>
10.227

$$$$
2f4t_lig
 OpenBabel11021811433D
libRbt.so/2013.1/901 2013/11/27
 35 36  0  0  0  0  0  0  0  0999 V2000
    3.3226  -12.7937   34.6345 C   0  0  2  0  0  0  0  0  0  0  0  0
    2.1030  -11.9856   34.7162 O   0  0  0  0  0  0  0  0  0  0  0  0
    1.7259   -7.7259   35.3249 C   0  0  2  0  0  0  0  0  0  0  0  0
    1.6197   -6.4323   36.0162 N   0  0  0  0  0  0  0  0  0  0  0  0
    2.9308  -14.0764   33.8402 C   0  0  2  0  0  0  0  0  0  0  0  0
    2.3783  -13.7293   32.5520 N   0  0  0  0  0  0  0  0  0  0  0  0
    0.6609   -8.7199   35.9175 C   0  0  0  0  0  0  0  0  0  0  0  0
    1.7338   -5.1217   34.8379 C   0  0  0  0  0  0  0  0  0  0  0  0
    1.5664   -4.1902   36.0179 C   0  0  1  0  0  0  0  0  0  0  0  0
    2.9647   -3.7689   36.4754 C   0  0  0  0  0  0  0  0  0  0  0  0
    3.7762   -2.9440   35.4624 C   0  0  0  0  0  0  0  0  0  0  0  0
    3.2107   -1.5926   35.4075 N   0  0  0  0  0  0  0  0  0  0  0  0
    0.9146   -3.0075   35.6350 O   0  0  0  0  0  0  0  0  0  0  0  0
    4.8596   -6.7518   34.0246 C   0  0  0  0  0  0  0  0  0  0  0  0
    5.6848   -7.7652   33.2463 C   0  0  0  0  0  0  0  0  0  0  0  0
    1.9105  -14.9301   34.6665 C   0  0  1  0  0  0  0  0  0  0  0  0
    6.7750   -7.1558   32.4534 N   0  0  0  0  0  0  0  0  0  0  0  0
    1.5453  -16.1024   33.9647 O   0  0  0  0  0  0  0  0  0  0  0  0
    0.7266  -10.0976   35.2437 C   0  0  2  0  0  0  0  0  0  0  0  0
   -0.2422  -11.0135   35.8376 N   0  0  0  0  0  0  0  0  0  0  0  0
    8.9753   -6.0348   32.0878 C   0  0  0  0  0  0  0  0  0  0  0  0
    8.4093   -4.7510   31.3998 N   0  0  0  0  0  0  0  0  0  0  0  0
    8.0070   -6.6638   33.1329 C   0  0  0  0  0  0  0  0  0  0  0  0
    1.8628   -5.0749   33.7795 O   0  0  0  0  0  0  0  0  0  0  0  0
    2.5619  -15.2819   36.0079 C   0  0  2  0  0  0  0  0  0  0  0  0
    1.6915  -16.0693   36.8044 O   0  0  0  0  0  0  0  0  0  0  0  0
    2.1088  -10.6855   35.3809 C   0  0  2  0  0  0  0  0  0  0  0  0
    2.9568  -13.9802   36.7634 C   0  0  2  0  0  0  0  0  0  0  0  0
    3.8454  -13.1674   35.9689 O   0  0  0  0  0  0  0  0  0  0  0  0
    3.1876   -9.7003   34.7559 C   0  0  2  0  0  0  0  0  0  0  0  0
    4.5085  -10.3031   34.9010 O   0  0  0  0  0  0  0  0  0  0  0  0
    3.6190  -14.2697   38.0575 C   0  0  0  0  0  0  0  0  0  0  0  0
    2.8720  -13.7706   39.0668 N   0  0  0  0  0  0  0  0  0  0  0  0
    3.1250   -8.3313   35.5183 C   0  0  1  0  0  0  0  0  0  0  0  0
    4.0795   -7.4538   35.0119 O   0  0  0  0  0  0  0  0  0  0  0  0
  1  2  1  1  0  0  0
  1  5  1  0  0  0  0
  1 29  1  0  0  0  0
  3  4  1  1  0  0  0
  3  7  1  0  0  0  0
  3 34  1  0  0  0  0
  5  6  1  6  0  0  0
  5 16  1  0  0  0  0
  7 19  1  0  0  0  0
  8  4  1  0  0  0  0
  8 24  2  0  0  0  0
  9  8  1  6  0  0  0
  9 10  1  0  0  0  0
  9 13  1  0  0  0  0
 10 11  1  0  0  0  0
 11 12  1  0  0  0  0
 14 15  1  0  0  0  0
 14 35  1  0  0  0  0
 15 17  1  0  0  0  0
 16 18  1  6  0  0  0
 16 25  1  0  0  0  0
 19 20  1  1  0  0  0
 19 27  1  0  0  0  0
 21 22  1  0  0  0  0
 21 23  1  0  0  0  0
 23 17  1  0  0  0  0
 25 26  1  1  0  0  0
 25 28  1  0  0  0  0
 27  2  1  6  0  0  0
 27 30  1  0  0  0  0
 28 29  1  0  0  0  0
 28 32  1  1  0  0  0
 30 31  1  1  0  0  0
 30 34  1  0  0  0  0
 32 33  2  0  0  0  0
 34 35  1  6  0  0  0
M  END
>  <CHROM.1>
-178.88347850,-137.29453368,95.13435350,64.32214438,73.25039382,-165.04251087
-63.39571989,75.03586492,64.82040429,-178.40722968,177.84331642,-117.72535318
-74.94220202,3.20275689,-9.30076563,34.98863795,-1.77892784,0.52363354,-0.02104160

>  <Name>
2f4t_lig

>  <RI>
0

>  <Rbt.Current_Directory>
/home/itssahil/PROJECTS/Mol_Feturizer/New_Systems/rnas/2f4t

>  <Rbt.Executable>
rbdock ($Id: //depot/dev/client3/rdock/2013.1/src/exe/rbdock.cxx#4 $)

>  <Rbt.Library>
libRbt.so (2013.1, Build901 2013/11/27)

>  <Rbt.Parameter_File>
/export/apps/rDock/src/rDock_2013.1_src/data/scripts/dock_solv.prm

>  <Rbt.Receptor>
prm/pocket_docking_8.prm

>  <SCORE>
-8.81031

>  <SCORE.INTER>
-1.26645

>  <SCORE.INTER.CONST>
1

>  <SCORE.INTER.POLAR>
-0.779111

>  <SCORE.INTER.ROT>
13

>  <SCORE.INTER.SOLV>
5.68033

>  <SCORE.INTER.VDW>
-12.4074

>  <SCORE.INTER.norm>
-0.0361841

>  <SCORE.INTRA>
-7.54387

>  <SCORE.INTRA.DIHEDRAL>
-17.3688

>  <SCORE.INTRA.DIHEDRAL.0>
23.8882

>  <SCORE.INTRA.POLAR>
0

>  <SCORE.INTRA.POLAR.0>
0

>  <SCORE.INTRA.REPUL>
0

>  <SCORE.INTRA.REPUL.0>
0

>  <SCORE.INTRA.SOLV>
2.4951

>  <SCORE.INTRA.SOLV.lig_0>
-97.6888

>  <SCORE.INTRA.VDW>
-0.10699

>  <SCORE.INTRA.VDW.0>
-3.9206

>  <SCORE.INTRA.norm>
-0.215539

>  <SCORE.RESTR>
0

>  <SCORE.RESTR.CAVITY>
0

>  <SCORE.RESTR.norm>
0

>  <SCORE.SYSTEM>
0

>  <SCORE.SYSTEM.CONST>
0

>  <SCORE.SYSTEM.DIHEDRAL>
0

>  <SCORE.SYSTEM.SOLV>
0

>  <SCORE.SYSTEM.norm>
0

>  <SCORE.heavy>
35

>  <SCORE.norm>
-0.251723

>  <RMSD>
10.389

$$$$
2f4t_lig
 OpenBabel11021811433D
libRbt.so/2013.1/901 2013/11/27
 35 36  0  0  0  0  0  0  0  0999 V2000
    4.6974   -6.7111   27.2472 C   0  0  2  0  0  0  0  0  0  0  0  0
    3.6756   -5.6615   27.2873 O   0  0  0  0  0  0  0  0  0  0  0  0
    0.4250   -4.8485   24.5616 C   0  0  2  0  0  0  0  0  0  0  0  0
   -0.3004   -4.3413   23.3872 N   0  0  0  0  0  0  0  0  0  0  0  0
    5.2826   -6.7908   28.6897 C   0  0  2  0  0  0  0  0  0  0  0  0
    4.2345   -7.0389   29.6517 N   0  0  0  0  0  0  0  0  0  0  0  0
    1.2367   -3.6722   25.2181 C   0  0  0  0  0  0  0  0  0  0  0  0
   -1.9699   -3.9792   23.8349 C   0  0  0  0  0  0  0  0  0  0  0  0
   -2.1495   -3.5491   22.3958 C   0  0  1  0  0  0  0  0  0  0  0  0
   -2.5398   -4.7893   21.5886 C   0  0  0  0  0  0  0  0  0  0  0  0
   -3.8810   -5.4374   21.9707 C   0  0  0  0  0  0  0  0  0  0  0  0
   -4.1330   -6.5540   21.0548 N   0  0  0  0  0  0  0  0  0  0  0  0
   -3.2240   -2.6547   22.2699 O   0  0  0  0  0  0  0  0  0  0  0  0
   -0.1033   -7.6764   22.5747 C   0  0  0  0  0  0  0  0  0  0  0  0
   -0.5628   -9.0055   23.1543 C   0  0  0  0  0  0  0  0  0  0  0  0
    6.0463   -5.4678   29.0343 C   0  0  1  0  0  0  0  0  0  0  0  0
   -1.5420   -9.7151   22.3022 N   0  0  0  0  0  0  0  0  0  0  0  0
    6.5897   -5.5216   30.3390 O   0  0  0  0  0  0  0  0  0  0  0  0
    2.0279   -4.1393   26.4479 C   0  0  2  0  0  0  0  0  0  0  0  0
    2.8039   -3.0408   27.0146 N   0  0  0  0  0  0  0  0  0  0  0  0
   -3.5580  -11.1227   21.8711 C   0  0  0  0  0  0  0  0  0  0  0  0
   -2.9853  -11.5838   20.4922 N   0  0  0  0  0  0  0  0  0  0  0  0
   -2.4616  -10.7228   22.9023 C   0  0  0  0  0  0  0  0  0  0  0  0
   -2.5368   -4.0533   24.7361 O   0  0  0  0  0  0  0  0  0  0  0  0
    7.1536   -5.2735   27.9933 C   0  0  2  0  0  0  0  0  0  0  0  0
    7.8959   -4.0936   28.2554 O   0  0  0  0  0  0  0  0  0  0  0  0
    2.9629   -5.2631   26.0768 C   0  0  2  0  0  0  0  0  0  0  0  0
    6.5360   -5.2179   26.5662 C   0  0  2  0  0  0  0  0  0  0  0  0
    5.7790   -6.4124   26.2805 O   0  0  0  0  0  0  0  0  0  0  0  0
    2.1456   -6.4685   25.4412 C   0  0  2  0  0  0  0  0  0  0  0  0
    3.0795   -7.5367   25.1011 O   0  0  0  0  0  0  0  0  0  0  0  0
    7.5732   -5.0596   25.5192 C   0  0  0  0  0  0  0  0  0  0  0  0
    7.0644   -5.4266   24.3225 N   0  0  0  0  0  0  0  0  0  0  0  0
    1.4077   -5.9576   24.1552 C   0  0  1  0  0  0  0  0  0  0  0  0
    0.7037   -6.9994   23.5579 O   0  0  0  0  0  0  0  0  0  0  0  0
  1  2  1  1  0  0  0
  1  5  1  0  0  0  0
  1 29  1  0  0  0  0
  3  4  1  6  0  0  0
  3  7  1  0  0  0  0
  3 34  1  0  0  0  0
  5  6  1  1  0  0  0
  5 16  1  0  0  0  0
  7 19  1  0  0  0  0
  8  4  1  0  0  0  0
  8 24  2  0  0  0  0
  9  8  1  1  0  0  0
  9 10  1  0  0  0  0
  9 13  1  0  0  0  0
 10 11  1  0  0  0  0
 11 12  1  0  0  0  0
 14 15  1  0  0  0  0
 14 35  1  0  0  0  0
 15 17  1  0  0  0  0
 16 18  1  1  0  0  0
 16 25  1  0  0  0  0
 19 20  1  6  0  0  0
 19 27  1  0  0  0  0
 21 22  1  0  0  0  0
 21 23  1  0  0  0  0
 23 17  1  0  0  0  0
 25 26  1  1  0  0  0
 25 28  1  0  0  0  0
 27  2  1  1  0  0  0
 27 30  1  0  0  0  0
 28 29  1  0  0  0  0
 28 32  1  6  0  0  0
 30 31  1  6  0  0  0
 30 34  1  0  0  0  0
 32 33  2  0  0  0  0
 34 35  1  1  0  0  0
M  END
>  <CHROM.1>
176.66752491,-97.65013284,87.74048301,63.52126623,176.74038324,172.60381490
-168.43397577,-157.02685894,52.89989841,169.37012005,-177.98569447,161.13265215
65.72732209,1.63971450,-6.05345547,24.95892526,-0.25790379,0.54110475,-2.97501378

>  <Name>
2f4t_lig

>  <RI>
0

>  <Rbt.Current_Directory>
/home/itssahil/PROJECTS/Mol_Feturizer/New_Systems/rnas/2f4t

>  <Rbt.Executable>
rbdock ($Id: //depot/dev/client3/rdock/2013.1/src/exe/rbdock.cxx#4 $)

>  <Rbt.Library>
libRbt.so (2013.1, Build901 2013/11/27)

>  <Rbt.Parameter_File>
/export/apps/rDock/src/rDock_2013.1_src/data/scripts/dock_solv.prm

>  <Rbt.Receptor>
prm/pocket_docking_6.prm

>  <SCORE>
-23.9783

>  <SCORE.INTER>
-15.3541

>  <SCORE.INTER.CONST>
1

>  <SCORE.INTER.POLAR>
-1.26375

>  <SCORE.INTER.ROT>
13

>  <SCORE.INTER.SOLV>
14.7148

>  <SCORE.INTER.VDW>
-23.1951

>  <SCORE.INTER.norm>
-0.438688

>  <SCORE.INTRA>
-8.62423

>  <SCORE.INTRA.DIHEDRAL>
-18.1142

>  <SCORE.INTRA.DIHEDRAL.0>
23.8882

>  <SCORE.INTRA.POLAR>
0

>  <SCORE.INTRA.POLAR.0>
0

>  <SCORE.INTRA.REPUL>
0

>  <SCORE.INTRA.REPUL.0>
0

>  <SCORE.INTRA.SOLV>
0.158706

>  <SCORE.INTRA.SOLV.lig_0>
-97.6888

>  <SCORE.INTRA.VDW>
0.353522

>  <SCORE.INTRA.VDW.0>
-3.9206

>  <SCORE.INTRA.norm>
-0.246407

>  <SCORE.RESTR>
0

>  <SCORE.RESTR.CAVITY>
0

>  <SCORE.RESTR.norm>
0

>  <SCORE.SYSTEM>
0

>  <SCORE.SYSTEM.CONST>
0

>  <SCORE.SYSTEM.DIHEDRAL>
0

>  <SCORE.SYSTEM.SOLV>
0

>  <SCORE.SYSTEM.norm>
0

>  <SCORE.heavy>
35

>  <SCORE.norm>
-0.685094

>  <RMSD>
10.415

$$$$
2f4t_lig
 OpenBabel11021811433D
libRbt.so/2013.1/901 2013/11/27
 35 36  0  0  0  0  0  0  0  0999 V2000
    3.0470  -17.2607   32.2284 C   0  0  2  0  0  0  0  0  0  0  0  0
    3.2762  -16.2168   31.2258 O   0  0  0  0  0  0  0  0  0  0  0  0
    1.4609  -12.3314   30.7102 C   0  0  2  0  0  0  0  0  0  0  0  0
    0.9820  -10.9767   31.0235 N   0  0  0  0  0  0  0  0  0  0  0  0
    3.9979  -16.9253   33.4170 C   0  0  2  0  0  0  0  0  0  0  0  0
    3.7516  -15.5888   33.9053 N   0  0  0  0  0  0  0  0  0  0  0  0
    0.9140  -13.3374   31.7884 C   0  0  0  0  0  0  0  0  0  0  0  0
   -0.7100  -10.8220   30.5414 C   0  0  0  0  0  0  0  0  0  0  0  0
   -0.6188   -9.4066   31.0672 C   0  0  1  0  0  0  0  0  0  0  0  0
   -0.6465   -8.4639   29.8620 C   0  0  0  0  0  0  0  0  0  0  0  0
   -0.2702   -7.0012   30.1520 C   0  0  0  0  0  0  0  0  0  0  0  0
   -1.2400   -6.4543   31.1056 N   0  0  0  0  0  0  0  0  0  0  0  0
   -1.7486   -9.0827   31.8346 O   0  0  0  0  0  0  0  0  0  0  0  0
    3.7462  -10.2135   29.1522 C   0  0  0  0  0  0  0  0  0  0  0  0
    2.4642   -9.7409   28.4841 C   0  0  0  0  0  0  0  0  0  0  0  0
    5.4911  -17.0841   32.9726 C   0  0  1  0  0  0  0  0  0  0  0  0
    2.6308   -8.5000   27.6961 N   0  0  0  0  0  0  0  0  0  0  0  0
    6.3715  -16.7886   34.0394 O   0  0  0  0  0  0  0  0  0  0  0  0
    1.3882  -14.7732   31.5241 C   0  0  2  0  0  0  0  0  0  0  0  0
    0.9020  -15.6800   32.5592 N   0  0  0  0  0  0  0  0  0  0  0  0
    1.5387   -7.5066   25.6832 C   0  0  0  0  0  0  0  0  0  0  0  0
    2.6607   -6.4943   25.2854 N   0  0  0  0  0  0  0  0  0  0  0  0
    1.4331   -7.7534   27.2172 C   0  0  0  0  0  0  0  0  0  0  0  0
   -1.4221  -11.4742   30.0869 O   0  0  0  0  0  0  0  0  0  0  0  0
    5.6918  -18.5233   32.4867 C   0  0  2  0  0  0  0  0  0  0  0  0
    7.0331  -18.7395   32.0791 O   0  0  0  0  0  0  0  0  0  0  0  0
    2.8949  -14.8315   31.4860 C   0  0  2  0  0  0  0  0  0  0  0  0
    4.7147  -18.8286   31.3149 C   0  0  2  0  0  0  0  0  0  0  0  0
    3.3441  -18.6168   31.7125 O   0  0  0  0  0  0  0  0  0  0  0  0
    3.4536  -13.8402   30.3769 C   0  0  2  0  0  0  0  0  0  0  0  0
    4.9101  -13.9276   30.3647 O   0  0  0  0  0  0  0  0  0  0  0  0
    4.8509  -20.2220   30.8285 C   0  0  0  0  0  0  0  0  0  0  0  0
    6.1196  -20.4320   30.4139 N   0  0  0  0  0  0  0  0  0  0  0  0
    2.9966  -12.3811   30.7253 C   0  0  1  0  0  0  0  0  0  0  0  0
    3.4948  -11.4829   29.7857 O   0  0  0  0  0  0  0  0  0  0  0  0
  1  2  1  6  0  0  0
  1  5  1  0  0  0  0
  1 29  1  0  0  0  0
  3  4  1  1  0  0  0
  3  7  1  0  0  0  0
  3 34  1  0  0  0  0
  5  6  1  6  0  0  0
  5 16  1  0  0  0  0
  7 19  1  0  0  0  0
  8  4  1  0  0  0  0
  8 24  2  0  0  0  0
  9  8  1  6  0  0  0
  9 10  1  0  0  0  0
  9 13  1  0  0  0  0
 10 11  1  0  0  0  0
 11 12  1  0  0  0  0
 14 15  1  0  0  0  0
 14 35  1  0  0  0  0
 15 17  1  0  0  0  0
 16 18  1  1  0  0  0
 16 25  1  0  0  0  0
 19 20  1  1  0  0  0
 19 27  1  0  0  0  0
 21 22  1  0  0  0  0
 21 23  1  0  0  0  0
 23 17  1  0  0  0  0
 25 26  1  6  0  0  0
 25 28  1  0  0  0  0
 27  2  1  6  0  0  0
 27 30  1  0  0  0  0
 28 29  1  0  0  0  0
 28 32  1  1  0  0  0
 30 31  1  1  0  0  0
 30 34  1  0  0  0  0
 32 33  2  0  0  0  0
 34 35  1  6  0  0  0
M  END
>  <CHROM.1>
-67.13534182,-76.98029829,108.86621328,-167.67764973,-61.57951501,-174.88073255
-73.35593976,-167.30200558,-69.03403077,-127.40898794,-68.42531304,-58.82986823
62.13907155,2.55508927,-13.18724285,30.71906307,1.07328302,-0.61157535,2.52938277

>  <Name>
2f4t_lig

>  <RI>
0

>  <Rbt.Current_Directory>
/home/itssahil/PROJECTS/Mol_Feturizer/New_Systems/rnas/2f4t

>  <Rbt.Executable>
rbdock ($Id: //depot/dev/client3/rdock/2013.1/src/exe/rbdock.cxx#4 $)

>  <Rbt.Library>
libRbt.so (2013.1, Build901 2013/11/27)

>  <Rbt.Parameter_File>
/export/apps/rDock/src/rDock_2013.1_src/data/scripts/dock_solv.prm

>  <Rbt.Receptor>
prm/pocket_docking_8.prm

>  <SCORE>
-11.1904

>  <SCORE.INTER>
-7.82797

>  <SCORE.INTER.CONST>
1

>  <SCORE.INTER.POLAR>
-2.40728

>  <SCORE.INTER.ROT>
13

>  <SCORE.INTER.SOLV>
11.344

>  <SCORE.INTER.VDW>
-13.2424

>  <SCORE.INTER.norm>
-0.223656

>  <SCORE.INTRA>
-3.3734

>  <SCORE.INTRA.DIHEDRAL>
-15.8055

>  <SCORE.INTRA.DIHEDRAL.0>
23.8882

>  <SCORE.INTRA.POLAR>
0

>  <SCORE.INTRA.POLAR.0>
0

>  <SCORE.INTRA.REPUL>
0

>  <SCORE.INTRA.REPUL.0>
0

>  <SCORE.INTRA.SOLV>
7.01879

>  <SCORE.INTRA.SOLV.lig_0>
-97.6888

>  <SCORE.INTRA.VDW>
1.01996

>  <SCORE.INTRA.VDW.0>
-3.9206

>  <SCORE.INTRA.norm>
-0.0963829

>  <SCORE.RESTR>
0.0109343

>  <SCORE.RESTR.CAVITY>
0.0109343

>  <SCORE.RESTR.norm>
0.00031241

>  <SCORE.SYSTEM>
0

>  <SCORE.SYSTEM.CONST>
0

>  <SCORE.SYSTEM.DIHEDRAL>
0

>  <SCORE.SYSTEM.SOLV>
0

>  <SCORE.SYSTEM.norm>
0

>  <SCORE.heavy>
35

>  <SCORE.norm>
-0.319727

>  <RMSD>
10.531

$$$$
2f4t_lig
 OpenBabel11021811433D
libRbt.so/2013.1/901 2013/11/27
 35 36  0  0  0  0  0  0  0  0999 V2000
    4.7560  -17.3634   33.9446 C   0  0  2  0  0  0  0  0  0  0  0  0
    5.7429  -16.4288   34.4921 O   0  0  0  0  0  0  0  0  0  0  0  0
    3.5451  -12.7125   34.3666 C   0  0  2  0  0  0  0  0  0  0  0  0
    3.1967  -11.3037   34.6044 N   0  0  0  0  0  0  0  0  0  0  0  0
    5.5014  -18.7225   33.7817 C   0  0  2  0  0  0  0  0  0  0  0  0
    6.0664  -19.1480   35.0408 N   0  0  0  0  0  0  0  0  0  0  0  0
    3.8774  -13.4038   35.7396 C   0  0  0  0  0  0  0  0  0  0  0  0
    1.4513  -11.1566   34.8301 C   0  0  0  0  0  0  0  0  0  0  0  0
    1.7082   -9.6777   35.0171 C   0  0  1  0  0  0  0  0  0  0  0  0
    1.6870   -9.0268   33.6322 C   0  0  0  0  0  0  0  0  0  0  0  0
    2.1777   -7.5705   33.5735 C   0  0  0  0  0  0  0  0  0  0  0  0
    1.1803   -6.7194   34.2291 N   0  0  0  0  0  0  0  0  0  0  0  0
    0.6674   -9.0752   35.7409 O   0  0  0  0  0  0  0  0  0  0  0  0
    4.3821  -11.1272   31.2800 C   0  0  0  0  0  0  0  0  0  0  0  0
    5.7668  -10.5551   31.0182 C   0  0  0  0  0  0  0  0  0  0  0  0
    6.6175  -18.5965   32.6905 C   0  0  1  0  0  0  0  0  0  0  0  0
    5.8206   -9.6477   29.8510 N   0  0  0  0  0  0  0  0  0  0  0  0
    7.3037  -19.8219   32.5236 O   0  0  0  0  0  0  0  0  0  0  0  0
    4.2609  -14.8792   35.5595 C   0  0  2  0  0  0  0  0  0  0  0  0
    4.6038  -15.4873   36.8413 N   0  0  0  0  0  0  0  0  0  0  0  0
    5.5751   -7.4811   28.6356 C   0  0  0  0  0  0  0  0  0  0  0  0
    7.0273   -7.3677   28.0697 N   0  0  0  0  0  0  0  0  0  0  0  0
    5.4947   -8.2024   30.0135 C   0  0  0  0  0  0  0  0  0  0  0  0
    0.6347  -11.8438   34.8249 O   0  0  0  0  0  0  0  0  0  0  0  0
    5.9532  -18.1640   31.3792 C   0  0  2  0  0  0  0  0  0  0  0  0
    6.9112  -18.0426   30.3403 O   0  0  0  0  0  0  0  0  0  0  0  0
    5.4365  -15.0072   34.6232 C   0  0  2  0  0  0  0  0  0  0  0  0
    5.2037  -16.8159   31.5838 C   0  0  2  0  0  0  0  0  0  0  0  0
    4.2220  -16.9215   32.6358 O   0  0  0  0  0  0  0  0  0  0  0  0
    5.0965  -14.3381   33.2226 C   0  0  2  0  0  0  0  0  0  0  0  0
    6.2513  -14.4860   32.3430 O   0  0  0  0  0  0  0  0  0  0  0  0
    4.5186  -16.3696   30.3475 C   0  0  0  0  0  0  0  0  0  0  0  0
    4.9634  -15.1405   30.0052 N   0  0  0  0  0  0  0  0  0  0  0  0
    4.7745  -12.8205   33.4512 C   0  0  1  0  0  0  0  0  0  0  0  0
    4.4994  -12.1981   32.2368 O   0  0  0  0  0  0  0  0  0  0  0  0
  1  2  1  6  0  0  0
  1  5  1  0  0  0  0
  1 29  1  0  0  0  0
  3  4  1  1  0  0  0
  3  7  1  0  0  0  0
  3 34  1  0  0  0  0
  5  6  1  1  0  0  0
  5 16  1  0  0  0  0
  7 19  1  0  0  0  0
  8  4  1  0  0  0  0
  8 24  2  0  0  0  0
  9  8  1  6  0  0  0
  9 10  1  0  0  0  0
  9 13  1  0  0  0  0
 10 11  1  0  0  0  0
 11 12  1  0  0  0  0
 14 15  1  0  0  0  0
 14 35  1  0  0  0  0
 15 17  1  0  0  0  0
 16 18  1  6  0  0  0
 16 25  1  0  0  0  0
 19 20  1  1  0  0  0
 19 27  1  0  0  0  0
 21 22  1  0  0  0  0
 21 23  1  0  0  0  0
 23 17  1  0  0  0  0
 25 26  1  6  0  0  0
 25 28  1  0  0  0  0
 27  2  1  6  0  0  0
 27 30  1  0  0  0  0
 28 29  1  0  0  0  0
 28 32  1  6  0  0  0
 30 31  1  6  0  0  0
 30 34  1  0  0  0  0
 32 33  2  0  0  0  0
 34 35  1  6  0  0  0
M  END
>  <CHROM.1>
172.48722322,-91.51266750,87.27198268,-169.37784223,-70.53506295,167.83307539
63.43836428,86.15355992,-68.91835497,-177.97301212,61.22719740,-122.64534165
85.42669912,4.48865655,-13.36638217,32.91695253,1.07623713,-0.93776401,2.68675447

>  <Name>
2f4t_lig

>  <RI>
0

>  <Rbt.Current_Directory>
/home/itssahil/PROJECTS/Mol_Feturizer/New_Systems/rnas/2f4t

>  <Rbt.Executable>
rbdock ($Id: //depot/dev/client3/rdock/2013.1/src/exe/rbdock.cxx#4 $)

>  <Rbt.Library>
libRbt.so (2013.1, Build901 2013/11/27)

>  <Rbt.Parameter_File>
/export/apps/rDock/src/rDock_2013.1_src/data/scripts/dock_solv.prm

>  <Rbt.Receptor>
prm/pocket_docking_8.prm

>  <SCORE>
-10.1357

>  <SCORE.INTER>
-4.10585

>  <SCORE.INTER.CONST>
1

>  <SCORE.INTER.POLAR>
-1.80868

>  <SCORE.INTER.ROT>
13

>  <SCORE.INTER.SOLV>
14.7095

>  <SCORE.INTER.VDW>
-13.8781

>  <SCORE.INTER.norm>
-0.11731

>  <SCORE.INTRA>
-6.02987

>  <SCORE.INTRA.DIHEDRAL>
-15.7188

>  <SCORE.INTRA.DIHEDRAL.0>
23.8882

>  <SCORE.INTRA.POLAR>
0

>  <SCORE.INTRA.POLAR.0>
0

>  <SCORE.INTRA.REPUL>
0.0499579

>  <SCORE.INTRA.REPUL.0>
0

>  <SCORE.INTRA.SOLV>
2.47847

>  <SCORE.INTRA.SOLV.lig_0>
-97.6888

>  <SCORE.INTRA.VDW>
0.340477

>  <SCORE.INTRA.VDW.0>
-3.9206

>  <SCORE.INTRA.norm>
-0.172282

>  <SCORE.RESTR>
0

>  <SCORE.RESTR.CAVITY>
0

>  <SCORE.RESTR.norm>
0

>  <SCORE.SYSTEM>
0

>  <SCORE.SYSTEM.CONST>
0

>  <SCORE.SYSTEM.DIHEDRAL>
0

>  <SCORE.SYSTEM.SOLV>
0

>  <SCORE.SYSTEM.norm>
0

>  <SCORE.heavy>
35

>  <SCORE.norm>
-0.289592

>  <RMSD>
10.549

$$$$
2f4t_lig
 OpenBabel11021811433D
libRbt.so/2013.1/901 2013/11/27
 35 36  0  0  0  0  0  0  0  0999 V2000
   12.1972   -3.0587   22.5497 C   0  0  2  0  0  0  0  0  0  0  0  0
   11.9600   -2.5150   23.8896 O   0  0  0  0  0  0  0  0  0  0  0  0
   11.4299   -4.1378   27.8573 C   0  0  2  0  0  0  0  0  0  0  0  0
   11.5643   -5.0389   29.0117 N   0  0  0  0  0  0  0  0  0  0  0  0
   13.3695   -2.2229   21.9525 C   0  0  2  0  0  0  0  0  0  0  0  0
   14.5269   -2.2801   22.8143 N   0  0  0  0  0  0  0  0  0  0  0  0
   11.0378   -4.9774   26.5865 C   0  0  0  0  0  0  0  0  0  0  0  0
   10.2556   -6.2246   28.9912 C   0  0  0  0  0  0  0  0  0  0  0  0
   10.8838   -6.7807   30.2499 C   0  0  1  0  0  0  0  0  0  0  0  0
   10.7267   -5.7270   31.3485 C   0  0  0  0  0  0  0  0  0  0  0  0
    9.3418   -5.0651   31.4431 C   0  0  0  0  0  0  0  0  0  0  0  0
    9.4985   -3.7523   32.0763 N   0  0  0  0  0  0  0  0  0  0  0  0
   10.1871   -7.9128   30.7005 O   0  0  0  0  0  0  0  0  0  0  0  0
   13.0197   -1.6874   29.7434 C   0  0  0  0  0  0  0  0  0  0  0  0
   12.9559   -0.3100   29.1014 C   0  0  0  0  0  0  0  0  0  0  0  0
   12.9164   -0.7398   21.7346 C   0  0  1  0  0  0  0  0  0  0  0  0
   11.6425   -0.0008   28.4949 N   0  0  0  0  0  0  0  0  0  0  0  0
   13.9655    0.0355   21.1883 O   0  0  0  0  0  0  0  0  0  0  0  0
   10.8917   -4.0940   25.3396 C   0  0  2  0  0  0  0  0  0  0  0  0
   10.5680   -4.9000   24.1666 N   0  0  0  0  0  0  0  0  0  0  0  0
   10.2946    1.2181   26.7835 C   0  0  0  0  0  0  0  0  0  0  0  0
    8.9416    0.4601   26.9752 N   0  0  0  0  0  0  0  0  0  0  0  0
   11.5500    0.3345   27.0456 C   0  0  0  0  0  0  0  0  0  0  0  0
    9.4238   -6.4113   28.3490 O   0  0  0  0  0  0  0  0  0  0  0  0
   11.7030   -0.7463   20.7991 C   0  0  2  0  0  0  0  0  0  0  0  0
   11.2474    0.5734   20.5488 O   0  0  0  0  0  0  0  0  0  0  0  0
   12.1692   -3.3357   25.0790 C   0  0  2  0  0  0  0  0  0  0  0  0
   10.5615   -1.6043   21.4170 C   0  0  2  0  0  0  0  0  0  0  0  0
   11.0062   -2.9522   21.6758 O   0  0  0  0  0  0  0  0  0  0  0  0
   12.5552   -2.4604   26.3478 C   0  0  2  0  0  0  0  0  0  0  0  0
   13.7894   -1.7382   26.0578 O   0  0  0  0  0  0  0  0  0  0  0  0
    9.3733   -1.6652   20.5330 C   0  0  0  0  0  0  0  0  0  0  0  0
    8.2511   -1.5817   21.2809 N   0  0  0  0  0  0  0  0  0  0  0  0
   12.7553   -3.4124   27.5778 C   0  0  1  0  0  0  0  0  0  0  0  0
   13.1226   -2.6772   28.7013 O   0  0  0  0  0  0  0  0  0  0  0  0
  1  2  1  1  0  0  0
  1  5  1  0  0  0  0
  1 29  1  0  0  0  0
  3  4  1  1  0  0  0
  3  7  1  0  0  0  0
  3 34  1  0  0  0  0
  5  6  1  1  0  0  0
  5 16  1  0  0  0  0
  7 19  1  0  0  0  0
  8  4  1  0  0  0  0
  8 24  2  0  0  0  0
  9  8  1  6  0  0  0
  9 10  1  0  0  0  0
  9 13  1  0  0  0  0
 10 11  1  0  0  0  0
 11 12  1  0  0  0  0
 14 15  1  0  0  0  0
 14 35  1  0  0  0  0
 15 17  1  0  0  0  0
 16 18  1  6  0  0  0
 16 25  1  0  0  0  0
 19 20  1  6  0  0  0
 19 27  1  0  0  0  0
 21 22  1  0  0  0  0
 21 23  1  0  0  0  0
 23 17  1  0  0  0  0
 25 26  1  1  0  0  0
 25 28  1  0  0  0  0
 27  2  1  6  0  0  0
 27 30  1  0  0  0  0
 28 29  1  0  0  0  0
 28 32  1  6  0  0  0
 30 31  1  6  0  0  0
 30 34  1  0  0  0  0
 32 33  2  0  0  0  0
 34 35  1  1  0  0  0
M  END
>  <CHROM.1>
-116.27931153,-41.82687832,66.89525683,44.62918560,-155.61903466,75.51483209
-61.27330036,-121.67584910,-68.74816824,-154.17425048,-86.74688478,-140.05969616
-60.19323844,11.43016284,-2.77212026,25.95689000,1.22500078,-1.24249218,-1.46824977

>  <Name>
2f4t_lig

>  <RI>
0

>  <Rbt.Current_Directory>
/home/itssahil/PROJECTS/Mol_Feturizer/New_Systems/rnas/2f4t

>  <Rbt.Executable>
rbdock ($Id: //depot/dev/client3/rdock/2013.1/src/exe/rbdock.cxx#4 $)

>  <Rbt.Library>
libRbt.so (2013.1, Build901 2013/11/27)

>  <Rbt.Parameter_File>
/export/apps/rDock/src/rDock_2013.1_src/data/scripts/dock_solv.prm

>  <Rbt.Receptor>
prm/blind_docking_60.prm

>  <SCORE>
8.16559

>  <SCORE.INTER>
2.17514

>  <SCORE.INTER.CONST>
1

>  <SCORE.INTER.POLAR>
-0.512832

>  <SCORE.INTER.ROT>
13

>  <SCORE.INTER.SOLV>
13.3195

>  <SCORE.INTER.VDW>
-13.547

>  <SCORE.INTER.norm>
0.062147

>  <SCORE.INTRA>
2.57611

>  <SCORE.INTRA.DIHEDRAL>
-5.96652

>  <SCORE.INTRA.DIHEDRAL.0>
23.8882

>  <SCORE.INTRA.POLAR>
0

>  <SCORE.INTRA.POLAR.0>
0

>  <SCORE.INTRA.REPUL>
0

>  <SCORE.INTRA.REPUL.0>
0

>  <SCORE.INTRA.SOLV>
4.68498

>  <SCORE.INTRA.SOLV.lig_0>
-97.6888

>  <SCORE.INTRA.VDW>
3.21688

>  <SCORE.INTRA.VDW.0>
-3.9206

>  <SCORE.INTRA.norm>
0.0736031

>  <SCORE.RESTR>
3.41433

>  <SCORE.RESTR.CAVITY>
3.41433

>  <SCORE.RESTR.norm>
0.0975524

>  <SCORE.SYSTEM>
0

>  <SCORE.SYSTEM.CONST>
0

>  <SCORE.SYSTEM.DIHEDRAL>
0

>  <SCORE.SYSTEM.SOLV>
0

>  <SCORE.SYSTEM.norm>
0

>  <SCORE.heavy>
35

>  <SCORE.norm>
0.233302

>  <RMSD>
10.553

$$$$
2f4t_lig
 OpenBabel11021811433D
libRbt.so/2013.1/901 2013/11/27
 35 36  0  0  0  0  0  0  0  0999 V2000
    1.0704   -4.0703   26.9805 C   0  0  2  0  0  0  0  0  0  0  0  0
    1.4320   -4.2725   25.5749 O   0  0  0  0  0  0  0  0  0  0  0  0
   -0.6161   -5.4349   21.9539 C   0  0  2  0  0  0  0  0  0  0  0  0
   -1.4226   -6.2307   21.0165 N   0  0  0  0  0  0  0  0  0  0  0  0
    2.2803   -3.3322   27.6293 C   0  0  2  0  0  0  0  0  0  0  0  0
    2.5677   -2.1060   26.9227 N   0  0  0  0  0  0  0  0  0  0  0  0
    0.5158   -6.3409   22.5633 C   0  0  0  0  0  0  0  0  0  0  0  0
   -2.1655   -7.5825   21.8764 C   0  0  0  0  0  0  0  0  0  0  0  0
   -2.7816   -7.9514   20.5450 C   0  0  1  0  0  0  0  0  0  0  0  0
   -3.6122   -9.2192   20.7562 C   0  0  0  0  0  0  0  0  0  0  0  0
   -2.8201  -10.4750   21.1568 C   0  0  0  0  0  0  0  0  0  0  0  0
   -3.7516  -11.6043   21.2352 N   0  0  0  0  0  0  0  0  0  0  0  0
   -3.6860   -6.9655   20.1204 O   0  0  0  0  0  0  0  0  0  0  0  0
   -3.7466   -3.7895   21.9162 C   0  0  0  0  0  0  0  0  0  0  0  0
   -3.6265   -2.4082   21.2907 C   0  0  0  0  0  0  0  0  0  0  0  0
    3.5359   -4.2678   27.6444 C   0  0  1  0  0  0  0  0  0  0  0  0
   -2.5542   -2.3098   20.2763 N   0  0  0  0  0  0  0  0  0  0  0  0
    4.6451   -3.6179   28.2342 O   0  0  0  0  0  0  0  0  0  0  0  0
    1.3904   -5.5701   23.5621 C   0  0  2  0  0  0  0  0  0  0  0  0
    2.4065   -6.4414   24.1437 N   0  0  0  0  0  0  0  0  0  0  0  0
   -2.2810    0.1464   19.9239 C   0  0  0  0  0  0  0  0  0  0  0  0
   -3.0156    0.0760   18.5465 N   0  0  0  0  0  0  0  0  0  0  0  0
   -1.5790   -1.1838   20.3278 C   0  0  0  0  0  0  0  0  0  0  0  0
   -2.1477   -7.9290   22.8858 O   0  0  0  0  0  0  0  0  0  0  0  0
    3.1737   -5.5366   28.4234 C   0  0  2  0  0  0  0  0  0  0  0  0
    4.2765   -6.4263   28.4863 O   0  0  0  0  0  0  0  0  0  0  0  0
    0.5429   -4.9942   24.6690 C   0  0  2  0  0  0  0  0  0  0  0  0
    1.9521   -6.2356   27.7599 C   0  0  2  0  0  0  0  0  0  0  0  0
    0.8187   -5.3456   27.6901 O   0  0  0  0  0  0  0  0  0  0  0  0
   -0.5841   -4.0524   24.0625 C   0  0  2  0  0  0  0  0  0  0  0  0
   -1.3783   -3.5099   25.1598 O   0  0  0  0  0  0  0  0  0  0  0  0
    1.5444   -7.4556   28.4964 C   0  0  0  0  0  0  0  0  0  0  0  0
    1.3813   -8.4745   27.6240 N   0  0  0  0  0  0  0  0  0  0  0  0
   -1.4878   -4.8989   23.1003 C   0  0  1  0  0  0  0  0  0  0  0  0
   -2.5043   -4.1072   22.5733 O   0  0  0  0  0  0  0  0  0  0  0  0
  1  2  1  6  0  0  0
  1  5  1  0  0  0  0
  1 29  1  0  0  0  0
  3  4  1  6  0  0  0
  3  7  1  0  0  0  0
  3 34  1  0  0  0  0
  5  6  1  6  0  0  0
  5 16  1  0  0  0  0
  7 19  1  0  0  0  0
  8  4  1  0  0  0  0
  8 24  2  0  0  0  0
  9  8  1  1  0  0  0
  9 10  1  0  0  0  0
  9 13  1  0  0  0  0
 10 11  1  0  0  0  0
 11 12  1  0  0  0  0
 14 15  1  0  0  0  0
 14 35  1  0  0  0  0
 15 17  1  0  0  0  0
 16 18  1  1  0  0  0
 16 25  1  0  0  0  0
 19 20  1  1  0  0  0
 19 27  1  0  0  0  0
 21 22  1  0  0  0  0
 21 23  1  0  0  0  0
 23 17  1  0  0  0  0
 25 26  1  6  0  0  0
 25 28  1  0  0  0  0
 27  2  1  1  0  0  0
 27 30  1  0  0  0  0
 28 29  1  0  0  0  0
 28 32  1  1  0  0  0
 30 31  1  1  0  0  0
 30 34  1  0  0  0  0
 32 33  2  0  0  0  0
 34 35  1  6  0  0  0
M  END
>  <CHROM.1>
177.34580442,60.55692385,179.27468616,-64.46266163,-176.53955245,60.68016589
-153.95693254,-131.27003029,-53.71694534,-71.13742510,-154.78950202,-131.92264895
76.79394978,-0.35389699,-5.24425976,23.87076448,-0.13110352,-0.88691830,-0.18246203

>  <Name>
2f4t_lig

>  <RI>
0

>  <Rbt.Current_Directory>
/home/itssahil/PROJECTS/Mol_Feturizer/New_Systems/rnas/2f4t

>  <Rbt.Executable>
rbdock ($Id: //depot/dev/client3/rdock/2013.1/src/exe/rbdock.cxx#4 $)

>  <Rbt.Library>
libRbt.so (2013.1, Build901 2013/11/27)

>  <Rbt.Parameter_File>
/export/apps/rDock/src/rDock_2013.1_src/data/scripts/dock_solv.prm

>  <Rbt.Receptor>
prm/pocket_docking_8.prm

>  <SCORE>
-15.2311

>  <SCORE.INTER>
-9.66238

>  <SCORE.INTER.CONST>
1

>  <SCORE.INTER.POLAR>
-0.936361

>  <SCORE.INTER.ROT>
13

>  <SCORE.INTER.SOLV>
15.6701

>  <SCORE.INTER.VDW>
-20.8104

>  <SCORE.INTER.norm>
-0.276068

>  <SCORE.INTRA>
-5.56874

>  <SCORE.INTRA.DIHEDRAL>
-13.7822

>  <SCORE.INTRA.DIHEDRAL.0>
23.8882

>  <SCORE.INTRA.POLAR>
0

>  <SCORE.INTRA.POLAR.0>
0

>  <SCORE.INTRA.REPUL>
0

>  <SCORE.INTRA.REPUL.0>
0

>  <SCORE.INTRA.SOLV>
2.90801

>  <SCORE.INTRA.SOLV.lig_0>
-97.6888

>  <SCORE.INTRA.VDW>
-0.131635

>  <SCORE.INTRA.VDW.0>
-3.9206

>  <SCORE.INTRA.norm>
-0.159107

>  <SCORE.RESTR>
0

>  <SCORE.RESTR.CAVITY>
0

>  <SCORE.RESTR.norm>
0

>  <SCORE.SYSTEM>
0

>  <SCORE.SYSTEM.CONST>
0

>  <SCORE.SYSTEM.DIHEDRAL>
0

>  <SCORE.SYSTEM.SOLV>
0

>  <SCORE.SYSTEM.norm>
0

>  <SCORE.heavy>
35

>  <SCORE.norm>
-0.435175

>  <RMSD>
10.561

$$$$
2f4t_lig
 OpenBabel11021811433D
libRbt.so/2013.1/901 2013/11/27
 35 36  0  0  0  0  0  0  0  0999 V2000
   10.1646   -3.5185   20.9917 C   0  0  2  0  0  0  0  0  0  0  0  0
   11.2720   -3.8542   21.8907 O   0  0  0  0  0  0  0  0  0  0  0  0
   12.3155   -3.6335   26.0763 C   0  0  2  0  0  0  0  0  0  0  0  0
   12.3589   -3.1573   27.4670 N   0  0  0  0  0  0  0  0  0  0  0  0
   10.1758   -1.9650   20.8642 C   0  0  2  0  0  0  0  0  0  0  0  0
   11.4616   -1.5012   20.3982 N   0  0  0  0  0  0  0  0  0  0  0  0
   12.6224   -2.4335   25.1071 C   0  0  0  0  0  0  0  0  0  0  0  0
   11.2436   -1.8022   27.6626 C   0  0  0  0  0  0  0  0  0  0  0  0
   11.6890   -1.7833   29.1081 C   0  0  1  0  0  0  0  0  0  0  0  0
   12.6121   -0.5765   29.2909 C   0  0  0  0  0  0  0  0  0  0  0  0
   13.6503   -0.3578   28.1776 C   0  0  0  0  0  0  0  0  0  0  0  0
   14.4875    0.7884   28.5443 N   0  0  0  0  0  0  0  0  0  0  0  0
   10.5994   -1.5674   29.9661 O   0  0  0  0  0  0  0  0  0  0  0  0
   10.3367   -5.9182   27.8411 C   0  0  0  0  0  0  0  0  0  0  0  0
   11.5689   -5.8632   28.7311 C   0  0  0  0  0  0  0  0  0  0  0  0
    9.8185   -1.3097   22.2409 C   0  0  1  0  0  0  0  0  0  0  0  0
   11.4529   -6.6892   29.9529 N   0  0  0  0  0  0  0  0  0  0  0  0
    9.8185    0.1014   22.1456 O   0  0  0  0  0  0  0  0  0  0  0  0
   12.5818   -2.8629   23.6339 C   0  0  2  0  0  0  0  0  0  0  0  0
   12.8291   -1.7251   22.7538 N   0  0  0  0  0  0  0  0  0  0  0  0
   10.3621   -5.4945   31.8541 C   0  0  0  0  0  0  0  0  0  0  0  0
   10.3991   -4.0546   31.2481 N   0  0  0  0  0  0  0  0  0  0  0  0
   10.2195   -6.6195   30.7867 C   0  0  0  0  0  0  0  0  0  0  0  0
   10.5799   -1.2781   27.0114 O   0  0  0  0  0  0  0  0  0  0  0  0
    8.4401   -1.8243   22.6685 C   0  0  2  0  0  0  0  0  0  0  0  0
    8.0484   -1.2573   23.9082 O   0  0  0  0  0  0  0  0  0  0  0  0
   11.2399   -3.4637   23.2973 C   0  0  2  0  0  0  0  0  0  0  0  0
    8.4606   -3.3770   22.7666 C   0  0  2  0  0  0  0  0  0  0  0  0
    8.8544   -3.9719   21.5125 O   0  0  0  0  0  0  0  0  0  0  0  0
   10.9367   -4.6969   24.2524 C   0  0  2  0  0  0  0  0  0  0  0  0
    9.6369   -5.2549   23.8946 O   0  0  0  0  0  0  0  0  0  0  0  0
    7.1381   -3.9256   23.1498 C   0  0  0  0  0  0  0  0  0  0  0  0
    7.2163   -5.2720   23.2330 N   0  0  0  0  0  0  0  0  0  0  0  0
   10.9260   -4.1958   25.7383 C   0  0  1  0  0  0  0  0  0  0  0  0
   10.6346   -5.2497   26.6000 O   0  0  0  0  0  0  0  0  0  0  0  0
  1  2  1  1  0  0  0
  1  5  1  0  0  0  0
  1 29  1  0  0  0  0
  3  4  1  1  0  0  0
  3  7  1  0  0  0  0
  3 34  1  0  0  0  0
  5  6  1  1  0  0  0
  5 16  1  0  0  0  0
  7 19  1  0  0  0  0
  8  4  1  0  0  0  0
  8 24  2  0  0  0  0
  9  8  1  6  0  0  0
  9 10  1  0  0  0  0
  9 13  1  0  0  0  0
 10 11  1  0  0  0  0
 11 12  1  0  0  0  0
 14 15  1  0  0  0  0
 14 35  1  0  0  0  0
 15 17  1  0  0  0  0
 16 18  1  6  0  0  0
 16 25  1  0  0  0  0
 19 20  1  6  0  0  0
 19 27  1  0  0  0  0
 21 22  1  0  0  0  0
 21 23  1  0  0  0  0
 23 17  1  0  0  0  0
 25 26  1  1  0  0  0
 25 28  1  0  0  0  0
 27  2  1  6  0  0  0
 27 30  1  0  0  0  0
 28 29  1  0  0  0  0
 28 32  1  6  0  0  0
 30 31  1  6  0  0  0
 30 34  1  0  0  0  0
 32 33  2  0  0  0  0
 34 35  1  1  0  0  0
M  END
>  <CHROM.1>
66.61610860,55.45865318,105.78644822,-43.66794835,-177.11683717,-171.44637681
-68.20059158,-46.96468644,67.40140266,-88.91170945,-133.48511597,-179.39289095
66.77718393,10.72918543,-3.12707141,25.57055423,1.93790609,-0.97630270,-1.11658086

>  <Name>
2f4t_lig

>  <RI>
0

>  <Rbt.Current_Directory>
/home/itssahil/PROJECTS/Mol_Feturizer/New_Systems/rnas/2f4t

>  <Rbt.Executable>
rbdock ($Id: //depot/dev/client3/rdock/2013.1/src/exe/rbdock.cxx#4 $)

>  <Rbt.Library>
libRbt.so (2013.1, Build901 2013/11/27)

>  <Rbt.Parameter_File>
/export/apps/rDock/src/rDock_2013.1_src/data/scripts/dock_solv.prm

>  <Rbt.Receptor>
prm/blind_docking_60.prm

>  <SCORE>
10.5796

>  <SCORE.INTER>
1.89701

>  <SCORE.INTER.CONST>
1

>  <SCORE.INTER.POLAR>
-1.15366

>  <SCORE.INTER.ROT>
13

>  <SCORE.INTER.SOLV>
12.833

>  <SCORE.INTER.VDW>
-11.4341

>  <SCORE.INTER.norm>
0.0542003

>  <SCORE.INTRA>
4.57092

>  <SCORE.INTRA.DIHEDRAL>
-10.5793

>  <SCORE.INTRA.DIHEDRAL.0>
23.8882

>  <SCORE.INTRA.POLAR>
0

>  <SCORE.INTRA.POLAR.0>
0

>  <SCORE.INTRA.REPUL>
0.000598654

>  <SCORE.INTRA.REPUL.0>
0

>  <SCORE.INTRA.SOLV>
11.0222

>  <SCORE.INTRA.SOLV.lig_0>
-97.6888

>  <SCORE.INTRA.VDW>
4.34648

>  <SCORE.INTRA.VDW.0>
-3.9206

>  <SCORE.INTRA.norm>
0.130598

>  <SCORE.RESTR>
4.11166

>  <SCORE.RESTR.CAVITY>
4.11166

>  <SCORE.RESTR.norm>
0.117476

>  <SCORE.SYSTEM>
0

>  <SCORE.SYSTEM.CONST>
0

>  <SCORE.SYSTEM.DIHEDRAL>
0

>  <SCORE.SYSTEM.SOLV>
0

>  <SCORE.SYSTEM.norm>
0

>  <SCORE.heavy>
35

>  <SCORE.norm>
0.302274

>  <RMSD>
10.638

$$$$
2f4t_lig
 OpenBabel11021811433D
libRbt.so/2013.1/901 2013/11/27
 35 36  0  0  0  0  0  0  0  0999 V2000
    3.2843   -4.4858   28.0871 C   0  0  2  0  0  0  0  0  0  0  0  0
    2.3979   -5.2885   27.2402 O   0  0  0  0  0  0  0  0  0  0  0  0
   -0.5511   -4.4854   24.1881 C   0  0  2  0  0  0  0  0  0  0  0  0
   -1.2365   -3.8231   23.0682 N   0  0  0  0  0  0  0  0  0  0  0  0
    4.6660   -4.4734   27.3658 C   0  0  2  0  0  0  0  0  0  0  0  0
    4.5339   -3.9659   26.0203 N   0  0  0  0  0  0  0  0  0  0  0  0
   -0.2457   -3.4257   25.3094 C   0  0  0  0  0  0  0  0  0  0  0  0
   -2.9836   -3.9961   23.2594 C   0  0  0  0  0  0  0  0  0  0  0  0
   -3.0946   -3.2033   21.9759 C   0  0  1  0  0  0  0  0  0  0  0  0
   -3.5834   -4.1581   20.8844 C   0  0  0  0  0  0  0  0  0  0  0  0
   -2.5819   -5.2414   20.4501 C   0  0  0  0  0  0  0  0  0  0  0  0
   -3.1519   -5.9692   19.3124 N   0  0  0  0  0  0  0  0  0  0  0  0
   -4.0782   -2.2078   22.0846 O   0  0  0  0  0  0  0  0  0  0  0  0
    0.8053   -7.0145   21.7004 C   0  0  0  0  0  0  0  0  0  0  0  0
   -0.4791   -7.7597   21.3710 C   0  0  0  0  0  0  0  0  0  0  0  0
    5.2799   -5.9140   27.3545 C   0  0  1  0  0  0  0  0  0  0  0  0
   -0.2650   -8.9741   20.5537 N   0  0  0  0  0  0  0  0  0  0  0  0
    6.5377   -5.9238   26.7079 O   0  0  0  0  0  0  0  0  0  0  0  0
    0.4815   -4.0530   26.5069 C   0  0  2  0  0  0  0  0  0  0  0  0
    0.7897   -3.0434   27.5148 N   0  0  0  0  0  0  0  0  0  0  0  0
    0.1323  -11.4122   20.1940 C   0  0  0  0  0  0  0  0  0  0  0  0
    1.0012  -11.2446   18.9060 N   0  0  0  0  0  0  0  0  0  0  0  0
    0.2510  -10.2198   21.1888 C   0  0  0  0  0  0  0  0  0  0  0  0
   -3.6157   -4.4636   23.9813 O   0  0  0  0  0  0  0  0  0  0  0  0
    5.4129   -6.3851   28.8064 C   0  0  2  0  0  0  0  0  0  0  0  0
    5.9772   -7.6849   28.8690 O   0  0  0  0  0  0  0  0  0  0  0  0
    1.7634   -4.7098   26.0593 C   0  0  2  0  0  0  0  0  0  0  0  0
    4.0201   -6.3664   29.4998 C   0  0  2  0  0  0  0  0  0  0  0  0
    3.4316   -5.0501   29.4485 O   0  0  0  0  0  0  0  0  0  0  0  0
    1.4592   -5.8043   24.9483 C   0  0  2  0  0  0  0  0  0  0  0  0
    2.7184   -6.4212   24.5447 O   0  0  0  0  0  0  0  0  0  0  0  0
    4.1016   -6.7875   30.9186 C   0  0  0  0  0  0  0  0  0  0  0  0
    3.2670   -7.8293   31.1275 N   0  0  0  0  0  0  0  0  0  0  0  0
    0.7757   -5.1049   23.7223 C   0  0  1  0  0  0  0  0  0  0  0  0
    0.5214   -6.0344   22.7177 O   0  0  0  0  0  0  0  0  0  0  0  0
  1  2  1  6  0  0  0
  1  5  1  0  0  0  0
  1 29  1  0  0  0  0
  3  4  1  6  0  0  0
  3  7  1  0  0  0  0
  3 34  1  0  0  0  0
  5  6  1  6  0  0  0
  5 16  1  0  0  0  0
  7 19  1  0  0  0  0
  8  4  1  0  0  0  0
  8 24  2  0  0  0  0
  9  8  1  1  0  0  0
  9 10  1  0  0  0  0
  9 13  1  0  0  0  0
 10 11  1  0  0  0  0
 11 12  1  0  0  0  0
 14 15  1  0  0  0  0
 14 35  1  0  0  0  0
 15 17  1  0  0  0  0
 16 18  1  1  0  0  0
 16 25  1  0  0  0  0
 19 20  1  1  0  0  0
 19 27  1  0  0  0  0
 21 22  1  0  0  0  0
 21 23  1  0  0  0  0
 23 17  1  0  0  0  0
 25 26  1  6  0  0  0
 25 28  1  0  0  0  0
 27  2  1  1  0  0  0
 27 30  1  0  0  0  0
 28 29  1  0  0  0  0
 28 32  1  1  0  0  0
 30 31  1  6  0  0  0
 30 34  1  0  0  0  0
 32 33  2  0  0  0  0
 34 35  1  6  0  0  0
M  END
>  <CHROM.1>
-80.77893566,-94.54553044,109.73612272,-69.00541135,-174.11853803,-167.87251348
164.60298451,77.24006751,63.38257370,169.28896123,-86.43130193,-123.91829392
177.57161437,1.08617593,-5.80774931,24.73055411,0.59026119,-0.68813931,0.78309995

>  <Name>
2f4t_lig

>  <RI>
0

>  <Rbt.Current_Directory>
/home/itssahil/PROJECTS/Mol_Feturizer/New_Systems/rnas/2f4t

>  <Rbt.Executable>
rbdock ($Id: //depot/dev/client3/rdock/2013.1/src/exe/rbdock.cxx#4 $)

>  <Rbt.Library>
libRbt.so (2013.1, Build901 2013/11/27)

>  <Rbt.Parameter_File>
/export/apps/rDock/src/rDock_2013.1_src/data/scripts/dock_solv.prm

>  <Rbt.Receptor>
prm/pocket_docking_8.prm

>  <SCORE>
-19.6689

>  <SCORE.INTER>
-14.5469

>  <SCORE.INTER.CONST>
1

>  <SCORE.INTER.POLAR>
-1.36302

>  <SCORE.INTER.ROT>
13

>  <SCORE.INTER.SOLV>
16.1062

>  <SCORE.INTER.VDW>
-22.79

>  <SCORE.INTER.norm>
-0.415627

>  <SCORE.INTRA>
-5.12193

>  <SCORE.INTRA.DIHEDRAL>
-12.6771

>  <SCORE.INTRA.DIHEDRAL.0>
23.8882

>  <SCORE.INTRA.POLAR>
0

>  <SCORE.INTRA.POLAR.0>
0

>  <SCORE.INTRA.REPUL>
0

>  <SCORE.INTRA.REPUL.0>
0

>  <SCORE.INTRA.SOLV>
3.66623

>  <SCORE.INTRA.SOLV.lig_0>
-97.6888

>  <SCORE.INTRA.VDW>
-0.616497

>  <SCORE.INTRA.VDW.0>
-3.9206

>  <SCORE.INTRA.norm>
-0.146341

>  <SCORE.RESTR>
0

>  <SCORE.RESTR.CAVITY>
0

>  <SCORE.RESTR.norm>
0

>  <SCORE.SYSTEM>
0

>  <SCORE.SYSTEM.CONST>
0

>  <SCORE.SYSTEM.DIHEDRAL>
0

>  <SCORE.SYSTEM.SOLV>
0

>  <SCORE.SYSTEM.norm>
0

>  <SCORE.heavy>
35

>  <SCORE.norm>
-0.561968

>  <RMSD>
10.747

$$$$
2f4t_lig
 OpenBabel11021811433D
libRbt.so/2013.1/901 2013/11/27
 35 36  0  0  0  0  0  0  0  0999 V2000
    3.3716   -4.2387   27.6418 C   0  0  2  0  0  0  0  0  0  0  0  0
    2.4752   -5.1783   26.9629 O   0  0  0  0  0  0  0  0  0  0  0  0
   -0.5496   -4.8937   23.8927 C   0  0  2  0  0  0  0  0  0  0  0  0
   -1.2588   -4.4344   22.6889 N   0  0  0  0  0  0  0  0  0  0  0  0
    4.7361   -4.3368   26.8947 C   0  0  2  0  0  0  0  0  0  0  0  0
    4.5672   -4.0623   25.4870 N   0  0  0  0  0  0  0  0  0  0  0  0
   -0.2000   -3.6531   24.7940 C   0  0  0  0  0  0  0  0  0  0  0  0
   -2.9651   -4.1827   23.0684 C   0  0  0  0  0  0  0  0  0  0  0  0
   -3.1144   -3.7645   21.6223 C   0  0  1  0  0  0  0  0  0  0  0  0
   -4.5260   -4.1494   21.1739 C   0  0  0  0  0  0  0  0  0  0  0  0
   -4.8253   -5.6575   21.1386 C   0  0  0  0  0  0  0  0  0  0  0  0
   -6.1874   -5.8471   20.6310 N   0  0  0  0  0  0  0  0  0  0  0  0
   -3.0370   -2.3690   21.4930 O   0  0  0  0  0  0  0  0  0  0  0  0
   -0.1192   -7.9626   22.3160 C   0  0  0  0  0  0  0  0  0  0  0  0
    0.3769   -8.3211   20.9236 C   0  0  0  0  0  0  0  0  0  0  0  0
    5.3660   -5.7545   27.1089 C   0  0  1  0  0  0  0  0  0  0  0  0
   -0.2166   -9.5654   20.3868 N   0  0  0  0  0  0  0  0  0  0  0  0
    6.6086   -5.8629   26.4422 O   0  0  0  0  0  0  0  0  0  0  0  0
    0.5535   -4.0645   26.0665 C   0  0  2  0  0  0  0  0  0  0  0  0
    0.9022   -2.8939   26.8655 N   0  0  0  0  0  0  0  0  0  0  0  0
    1.3506  -11.4130   19.7854 C   0  0  0  0  0  0  0  0  0  0  0  0
    0.7457  -11.6925   18.3720 N   0  0  0  0  0  0  0  0  0  0  0  0
    0.3100  -10.8908   20.8197 C   0  0  0  0  0  0  0  0  0  0  0  0
   -3.5617   -4.2941   23.9463 O   0  0  0  0  0  0  0  0  0  0  0  0
    5.5378   -5.9753   28.6153 C   0  0  2  0  0  0  0  0  0  0  0  0
    6.1182   -7.2422   28.8801 O   0  0  0  0  0  0  0  0  0  0  0  0
    1.8143   -4.8132   25.7131 C   0  0  2  0  0  0  0  0  0  0  0  0
    4.1612   -5.8513   29.3300 C   0  0  2  0  0  0  0  0  0  0  0  0
    3.5568   -4.5664   29.0742 O   0  0  0  0  0  0  0  0  0  0  0  0
    1.4657   -6.0861   24.8282 C   0  0  2  0  0  0  0  0  0  0  0  0
    2.7055   -6.7871   24.5114 O   0  0  0  0  0  0  0  0  0  0  0  0
    4.2803   -6.0287   30.7967 C   0  0  0  0  0  0  0  0  0  0  0  0
    3.7811   -7.2347   31.1462 N   0  0  0  0  0  0  0  0  0  0  0  0
    0.7559   -5.6097   23.5134 C   0  0  1  0  0  0  0  0  0  0  0  0
    0.4621   -6.7019   22.7017 O   0  0  0  0  0  0  0  0  0  0  0  0
  1  2  1  6  0  0  0
  1  5  1  0  0  0  0
  1 29  1  0  0  0  0
  3  4  1  6  0  0  0
  3  7  1  0  0  0  0
  3 34  1  0  0  0  0
  5  6  1  6  0  0  0
  5 16  1  0  0  0  0
  7 19  1  0  0  0  0
  8  4  1  0  0  0  0
  8 24  2  0  0  0  0
  9  8  1  1  0  0  0
  9 10  1  0  0  0  0
  9 13  1  0  0  0  0
 10 11  1  0  0  0  0
 11 12  1  0  0  0  0
 14 15  1  0  0  0  0
 14 35  1  0  0  0  0
 15 17  1  0  0  0  0
 16 18  1  6  0  0  0
 16 25  1  0  0  0  0
 19 20  1  6  0  0  0
 19 27  1  0  0  0  0
 21 22  1  0  0  0  0
 21 23  1  0  0  0  0
 23 17  1  0  0  0  0
 25 26  1  6  0  0  0
 25 28  1  0  0  0  0
 27  2  1  1  0  0  0
 27 30  1  0  0  0  0
 28 29  1  0  0  0  0
 28 32  1  1  0  0  0
 30 31  1  6  0  0  0
 30 34  1  0  0  0  0
 32 33  2  0  0  0  0
 34 35  1  6  0  0  0
M  END
>  <CHROM.1>
-80.35234973,-81.52171609,148.82767496,-65.20156839,-177.37079181,-176.70145997
-176.87096121,-79.75337214,-63.96777402,-95.92488298,-85.06228398,-106.60572088
-60.17452500,1.02483510,-5.90579824,24.55386197,0.58966790,-0.58869936,0.76014848

>  <Name>
2f4t_lig

>  <RI>
0

>  <Rbt.Current_Directory>
/home/itssahil/PROJECTS/Mol_Feturizer/New_Systems/rnas/2f4t

>  <Rbt.Executable>
rbdock ($Id: //depot/dev/client3/rdock/2013.1/src/exe/rbdock.cxx#4 $)

>  <Rbt.Library>
libRbt.so (2013.1, Build901 2013/11/27)

>  <Rbt.Parameter_File>
/export/apps/rDock/src/rDock_2013.1_src/data/scripts/dock_solv.prm

>  <Rbt.Receptor>
prm/pocket_docking_8.prm

>  <SCORE>
-21.7348

>  <SCORE.INTER>
-16.0039

>  <SCORE.INTER.CONST>
1

>  <SCORE.INTER.POLAR>
-1.88458

>  <SCORE.INTER.ROT>
13

>  <SCORE.INTER.SOLV>
20.0948

>  <SCORE.INTER.VDW>
-23.3522

>  <SCORE.INTER.norm>
-0.457253

>  <SCORE.INTRA>
-5.73094

>  <SCORE.INTRA.DIHEDRAL>
-15.0956

>  <SCORE.INTRA.DIHEDRAL.0>
23.8882

>  <SCORE.INTRA.POLAR>
0

>  <SCORE.INTRA.POLAR.0>
0

>  <SCORE.INTRA.REPUL>
0

>  <SCORE.INTRA.REPUL.0>
0

>  <SCORE.INTRA.SOLV>
3.06779

>  <SCORE.INTRA.SOLV.lig_0>
-97.6888

>  <SCORE.INTRA.VDW>
0.282974

>  <SCORE.INTRA.VDW.0>
-3.9206

>  <SCORE.INTRA.norm>
-0.163741

>  <SCORE.RESTR>
0

>  <SCORE.RESTR.CAVITY>
0

>  <SCORE.RESTR.norm>
0

>  <SCORE.SYSTEM>
0

>  <SCORE.SYSTEM.CONST>
0

>  <SCORE.SYSTEM.DIHEDRAL>
0

>  <SCORE.SYSTEM.SOLV>
0

>  <SCORE.SYSTEM.norm>
0

>  <SCORE.heavy>
35

>  <SCORE.norm>
-0.620994

>  <RMSD>
10.842

$$$$
2f4t_lig
 OpenBabel11021811433D
libRbt.so/2013.1/901 2013/11/27
 35 36  0  0  0  0  0  0  0  0999 V2000
    3.2996   -4.4185   26.4635 C   0  0  2  0  0  0  0  0  0  0  0  0
    1.9772   -4.9970   26.2109 O   0  0  0  0  0  0  0  0  0  0  0  0
   -1.0969   -5.0881   23.1780 C   0  0  2  0  0  0  0  0  0  0  0  0
   -1.8664   -4.7259   21.9783 N   0  0  0  0  0  0  0  0  0  0  0  0
    3.8171   -5.0936   27.7697 C   0  0  2  0  0  0  0  0  0  0  0  0
    3.8303   -6.5308   27.6298 N   0  0  0  0  0  0  0  0  0  0  0  0
   -0.8750   -3.8044   24.0592 C   0  0  0  0  0  0  0  0  0  0  0  0
   -3.4934   -4.2255   22.4487 C   0  0  0  0  0  0  0  0  0  0  0  0
   -3.7361   -4.0036   20.9722 C   0  0  1  0  0  0  0  0  0  0  0  0
   -4.9289   -4.8715   20.5649 C   0  0  0  0  0  0  0  0  0  0  0  0
   -4.7215   -6.3901   20.6923 C   0  0  0  0  0  0  0  0  0  0  0  0
   -5.9525   -7.0626   20.2663 N   0  0  0  0  0  0  0  0  0  0  0  0
   -4.1220   -2.6776   20.7209 O   0  0  0  0  0  0  0  0  0  0  0  0
   -0.2571   -7.5632   20.8314 C   0  0  0  0  0  0  0  0  0  0  0  0
   -0.4249   -9.0172   21.2449 C   0  0  0  0  0  0  0  0  0  0  0  0
    2.9274   -4.6656   28.9853 C   0  0  1  0  0  0  0  0  0  0  0  0
   -1.6087   -9.2560   22.0994 N   0  0  0  0  0  0  0  0  0  0  0  0
    3.3834   -5.2642   30.1828 O   0  0  0  0  0  0  0  0  0  0  0  0
   -0.0658   -4.1131   25.3266 C   0  0  2  0  0  0  0  0  0  0  0  0
    0.1616   -2.9005   26.1063 N   0  0  0  0  0  0  0  0  0  0  0  0
   -3.1419  -10.8145   23.3045 C   0  0  0  0  0  0  0  0  0  0  0  0
   -3.9936  -11.1526   22.0387 N   0  0  0  0  0  0  0  0  0  0  0  0
   -1.6610  -10.4540   22.9846 C   0  0  0  0  0  0  0  0  0  0  0  0
   -4.0118   -4.1402   23.3778 O   0  0  0  0  0  0  0  0  0  0  0  0
    2.9716   -3.1377   29.0918 C   0  0  2  0  0  0  0  0  0  0  0  0
    2.1925   -2.6819   30.1859 O   0  0  0  0  0  0  0  0  0  0  0  0
    1.2654   -4.7237   24.9657 C   0  0  2  0  0  0  0  0  0  0  0  0
    2.4674   -2.4988   27.7657 C   0  0  2  0  0  0  0  0  0  0  0  0
    3.2510   -2.9490   26.6410 O   0  0  0  0  0  0  0  0  0  0  0  0
    1.0482   -6.0392   24.1012 C   0  0  2  0  0  0  0  0  0  0  0  0
    2.3537   -6.6043   23.7766 O   0  0  0  0  0  0  0  0  0  0  0  0
    2.5191   -1.0181   27.8092 C   0  0  0  0  0  0  0  0  0  0  0  0
    1.2695   -0.5202   27.6809 N   0  0  0  0  0  0  0  0  0  0  0  0
    0.2748   -5.6617   22.7902 C   0  0  1  0  0  0  0  0  0  0  0  0
    0.0932   -6.7905   21.9961 O   0  0  0  0  0  0  0  0  0  0  0  0
  1  2  1  1  0  0  0
  1  5  1  0  0  0  0
  1 29  1  0  0  0  0
  3  4  1  6  0  0  0
  3  7  1  0  0  0  0
  3 34  1  0  0  0  0
  5  6  1  6  0  0  0
  5 16  1  0  0  0  0
  7 19  1  0  0  0  0
  8  4  1  0  0  0  0
  8 24  2  0  0  0  0
  9  8  1  1  0  0  0
  9 10  1  0  0  0  0
  9 13  1  0  0  0  0
 10 11  1  0  0  0  0
 11 12  1  0  0  0  0
 14 15  1  0  0  0  0
 14 35  1  0  0  0  0
 15 17  1  0  0  0  0
 16 18  1  1  0  0  0
 16 25  1  0  0  0  0
 19 20  1  6  0  0  0
 19 27  1  0  0  0  0
 21 22  1  0  0  0  0
 21 23  1  0  0  0  0
 23 17  1  0  0  0  0
 25 26  1  1  0  0  0
 25 28  1  0  0  0  0
 27  2  1  1  0  0  0
 27 30  1  0  0  0  0
 28 29  1  0  0  0  0
 28 32  1  1  0  0  0
 30 31  1  6  0  0  0
 30 34  1  0  0  0  0
 32 33  2  0  0  0  0
 34 35  1  6  0  0  0
M  END
>  <CHROM.1>
-171.88351598,-66.06406509,122.26592844,-63.91435753,179.92242610,68.83645883
-162.75682238,-157.60355803,60.38724382,-156.47530324,-122.56691662,-117.76307841
70.24140262,-0.19221404,-5.31598302,24.46996525,-0.56521727,0.73227157,-2.87018902

>  <Name>
2f4t_lig

>  <RI>
0

>  <Rbt.Current_Directory>
/home/itssahil/PROJECTS/Mol_Feturizer/New_Systems/rnas/2f4t

>  <Rbt.Executable>
rbdock ($Id: //depot/dev/client3/rdock/2013.1/src/exe/rbdock.cxx#4 $)

>  <Rbt.Library>
libRbt.so (2013.1, Build901 2013/11/27)

>  <Rbt.Parameter_File>
/export/apps/rDock/src/rDock_2013.1_src/data/scripts/dock_solv.prm

>  <Rbt.Receptor>
prm/pocket_docking_8.prm

>  <SCORE>
-23.7675

>  <SCORE.INTER>
-19.6039

>  <SCORE.INTER.CONST>
1

>  <SCORE.INTER.POLAR>
-1.74178

>  <SCORE.INTER.ROT>
13

>  <SCORE.INTER.SOLV>
18.9528

>  <SCORE.INTER.VDW>
-25.8476

>  <SCORE.INTER.norm>
-0.560111

>  <SCORE.INTRA>
-4.16361

>  <SCORE.INTRA.DIHEDRAL>
-10.1447

>  <SCORE.INTRA.DIHEDRAL.0>
23.8882

>  <SCORE.INTRA.POLAR>
0

>  <SCORE.INTRA.POLAR.0>
0

>  <SCORE.INTRA.REPUL>
0

>  <SCORE.INTRA.REPUL.0>
0

>  <SCORE.INTRA.SOLV>
3.96236

>  <SCORE.INTRA.SOLV.lig_0>
-97.6888

>  <SCORE.INTRA.VDW>
-1.07242

>  <SCORE.INTRA.VDW.0>
-3.9206

>  <SCORE.INTRA.norm>
-0.11896

>  <SCORE.RESTR>
0

>  <SCORE.RESTR.CAVITY>
0

>  <SCORE.RESTR.norm>
0

>  <SCORE.SYSTEM>
0

>  <SCORE.SYSTEM.CONST>
0

>  <SCORE.SYSTEM.DIHEDRAL>
0

>  <SCORE.SYSTEM.SOLV>
0

>  <SCORE.SYSTEM.norm>
0

>  <SCORE.heavy>
35

>  <SCORE.norm>
-0.679071

>  <RMSD>
10.852

$$$$
2f4t_lig
 OpenBabel11021811433D
libRbt.so/2013.1/901 2013/11/27
 35 36  0  0  0  0  0  0  0  0999 V2000
    3.2956   -4.5111   26.6702 C   0  0  2  0  0  0  0  0  0  0  0  0
    1.9880   -5.0976   26.3643 O   0  0  0  0  0  0  0  0  0  0  0  0
   -1.0144   -5.1123   23.2591 C   0  0  2  0  0  0  0  0  0  0  0  0
   -1.7567   -4.7192   22.0519 N   0  0  0  0  0  0  0  0  0  0  0  0
    3.7544   -5.1681   28.0072 C   0  0  2  0  0  0  0  0  0  0  0  0
    3.7787   -6.6069   27.8860 N   0  0  0  0  0  0  0  0  0  0  0  0
   -0.8163   -3.8525   24.1796 C   0  0  0  0  0  0  0  0  0  0  0  0
   -3.4386   -4.3856   22.4749 C   0  0  0  0  0  0  0  0  0  0  0  0
   -3.6325   -4.0692   21.0085 C   0  0  1  0  0  0  0  0  0  0  0  0
   -5.0944   -3.6608   20.8138 C   0  0  0  0  0  0  0  0  0  0  0  0
   -6.0528   -4.7919   20.4047 C   0  0  0  0  0  0  0  0  0  0  0  0
   -6.0094   -5.8313   21.4376 N   0  0  0  0  0  0  0  0  0  0  0  0
   -2.8683   -2.9542   20.6304 O   0  0  0  0  0  0  0  0  0  0  0  0
   -0.1073   -8.1356   21.6864 C   0  0  0  0  0  0  0  0  0  0  0  0
   -1.4671   -8.4964   22.2645 C   0  0  0  0  0  0  0  0  0  0  0  0
    2.8083   -4.7284   29.1750 C   0  0  1  0  0  0  0  0  0  0  0  0
   -1.5216   -9.8570   22.8426 N   0  0  0  0  0  0  0  0  0  0  0  0
    3.2107   -5.3105   30.3996 O   0  0  0  0  0  0  0  0  0  0  0  0
   -0.0360   -4.1939   25.4567 C   0  0  2  0  0  0  0  0  0  0  0  0
    0.1702   -3.0024   26.2740 N   0  0  0  0  0  0  0  0  0  0  0  0
   -3.5229  -11.3404   23.0031 C   0  0  0  0  0  0  0  0  0  0  0  0
   -4.1556  -10.8610   21.6571 N   0  0  0  0  0  0  0  0  0  0  0  0
   -2.6644  -10.2526   23.7138 C   0  0  0  0  0  0  0  0  0  0  0  0
   -4.0031   -4.4135   23.3803 O   0  0  0  0  0  0  0  0  0  0  0  0
    2.8428   -3.1992   29.2644 C   0  0  2  0  0  0  0  0  0  0  0  0
    2.0127   -2.7329   30.3157 O   0  0  0  0  0  0  0  0  0  0  0  0
    1.3047   -4.7921   25.1106 C   0  0  2  0  0  0  0  0  0  0  0  0
    2.3982   -2.5785   27.9086 C   0  0  2  0  0  0  0  0  0  0  0  0
    3.2341   -3.0397   26.8269 O   0  0  0  0  0  0  0  0  0  0  0  0
    1.1109   -6.0841   24.2061 C   0  0  2  0  0  0  0  0  0  0  0  0
    2.4250   -6.6378   23.8968 O   0  0  0  0  0  0  0  0  0  0  0  0
    2.4431   -1.0973   27.9359 C   0  0  0  0  0  0  0  0  0  0  0  0
    1.2669   -0.6031   27.4908 N   0  0  0  0  0  0  0  0  0  0  0  0
    0.3674   -5.6727   22.8881 C   0  0  1  0  0  0  0  0  0  0  0  0
    0.2071   -6.7799   22.0597 O   0  0  0  0  0  0  0  0  0  0  0  0
  1  2  1  1  0  0  0
  1  5  1  0  0  0  0
  1 29  1  0  0  0  0
  3  4  1  6  0  0  0
  3  7  1  0  0  0  0
  3 34  1  0  0  0  0
  5  6  1  6  0  0  0
  5 16  1  0  0  0  0
  7 19  1  0  0  0  0
  8  4  1  0  0  0  0
  8 24  2  0  0  0  0
  9  8  1  1  0  0  0
  9 10  1  0  0  0  0
  9 13  1  0  0  0  0
 10 11  1  0  0  0  0
 11 12  1  0  0  0  0
 14 15  1  0  0  0  0
 14 35  1  0  0  0  0
 15 17  1  0  0  0  0
 16 18  1  1  0  0  0
 16 25  1  0  0  0  0
 19 20  1  6  0  0  0
 19 27  1  0  0  0  0
 21 22  1  0  0  0  0
 21 23  1  0  0  0  0
 23 17  1  0  0  0  0
 25 26  1  1  0  0  0
 25 28  1  0  0  0  0
 27  2  1  1  0  0  0
 27 30  1  0  0  0  0
 28 29  1  0  0  0  0
 28 32  1  1  0  0  0
 30 31  1  6  0  0  0
 30 34  1  0  0  0  0
 32 33  2  0  0  0  0
 34 35  1  6  0  0  0
M  END
>  <CHROM.1>
-174.79295313,-71.52360103,-179.43012329,-93.55911835,58.75120508,-137.89136684
49.20420653,166.17987996,-61.41888590,112.65495619,-121.83221565,-129.57521518
-74.06131559,-0.26454357,-5.28065327,24.66042300,-0.46019759,0.75144786,-2.95973507

>  <Name>
2f4t_lig

>  <RI>
0

>  <Rbt.Current_Directory>
/home/itssahil/PROJECTS/Mol_Feturizer/New_Systems/rnas/2f4t

>  <Rbt.Executable>
rbdock ($Id: //depot/dev/client3/rdock/2013.1/src/exe/rbdock.cxx#4 $)

>  <Rbt.Library>
libRbt.so (2013.1, Build901 2013/11/27)

>  <Rbt.Parameter_File>
/export/apps/rDock/src/rDock_2013.1_src/data/scripts/dock_solv.prm

>  <Rbt.Receptor>
prm/pocket_docking_7.prm

>  <SCORE>
-19.909

>  <SCORE.INTER>
-20.5345

>  <SCORE.INTER.CONST>
1

>  <SCORE.INTER.POLAR>
-1.72986

>  <SCORE.INTER.ROT>
13

>  <SCORE.INTER.SOLV>
20.7158

>  <SCORE.INTER.VDW>
-27.0954

>  <SCORE.INTER.norm>
-0.586701

>  <SCORE.INTRA>
0.602925

>  <SCORE.INTRA.DIHEDRAL>
-4.52539

>  <SCORE.INTRA.DIHEDRAL.0>
23.8882

>  <SCORE.INTRA.POLAR>
0

>  <SCORE.INTRA.POLAR.0>
0

>  <SCORE.INTRA.REPUL>
0

>  <SCORE.INTRA.REPUL.0>
0

>  <SCORE.INTRA.SOLV>
6.78348

>  <SCORE.INTRA.SOLV.lig_0>
-97.6888

>  <SCORE.INTRA.VDW>
-0.526124

>  <SCORE.INTRA.VDW.0>
-3.9206

>  <SCORE.INTRA.norm>
0.0172264

>  <SCORE.RESTR>
0.0226299

>  <SCORE.RESTR.CAVITY>
0.0226299

>  <SCORE.RESTR.norm>
0.000646569

>  <SCORE.SYSTEM>
0

>  <SCORE.SYSTEM.CONST>
0

>  <SCORE.SYSTEM.DIHEDRAL>
0

>  <SCORE.SYSTEM.SOLV>
0

>  <SCORE.SYSTEM.norm>
0

>  <SCORE.heavy>
35

>  <SCORE.norm>
-0.568828

>  <RMSD>
10.873

$$$$
2f4t_lig
 OpenBabel11021811433D
libRbt.so/2013.1/901 2013/11/27
 35 36  0  0  0  0  0  0  0  0999 V2000
   10.4514   -4.5406   20.7827 C   0  0  2  0  0  0  0  0  0  0  0  0
   11.5634   -3.8127   21.3998 O   0  0  0  0  0  0  0  0  0  0  0  0
   12.4849   -2.0801   25.2477 C   0  0  2  0  0  0  0  0  0  0  0  0
   12.3407   -1.2833   26.4753 N   0  0  0  0  0  0  0  0  0  0  0  0
    9.6769   -3.4909   19.9295 C   0  0  2  0  0  0  0  0  0  0  0  0
   10.5578   -2.8604   18.9745 N   0  0  0  0  0  0  0  0  0  0  0  0
   12.2086   -1.1644   23.9992 C   0  0  0  0  0  0  0  0  0  0  0  0
   13.5456   -1.7988   27.6591 C   0  0  0  0  0  0  0  0  0  0  0  0
   12.9569   -0.7369   28.5613 C   0  0  1  0  0  0  0  0  0  0  0  0
   12.9894   -1.2774   29.9926 C   0  0  0  0  0  0  0  0  0  0  0  0
   11.8235   -2.2018   30.3817 C   0  0  0  0  0  0  0  0  0  0  0  0
   10.5656   -1.5115   30.0818 N   0  0  0  0  0  0  0  0  0  0  0  0
   13.7573    0.4162   28.5676 O   0  0  0  0  0  0  0  0  0  0  0  0
   11.8056   -4.4201   27.7349 C   0  0  0  0  0  0  0  0  0  0  0  0
   11.6750   -5.9310   27.8516 C   0  0  0  0  0  0  0  0  0  0  0  0
    9.0175   -2.4201   20.8627 C   0  0  1  0  0  0  0  0  0  0  0  0
   11.4407   -6.3990   29.2353 N   0  0  0  0  0  0  0  0  0  0  0  0
    8.3049   -1.4597   20.1076 O   0  0  0  0  0  0  0  0  0  0  0  0
   12.3330   -1.9410   22.6810 C   0  0  2  0  0  0  0  0  0  0  0  0
   12.0327   -1.0810   21.5407 N   0  0  0  0  0  0  0  0  0  0  0  0
   10.6177   -5.3183   31.3296 C   0  0  0  0  0  0  0  0  0  0  0  0
    9.3956   -4.8952   32.2068 N   0  0  0  0  0  0  0  0  0  0  0  0
   10.2186   -5.9686   29.9720 C   0  0  0  0  0  0  0  0  0  0  0  0
   14.3167   -2.5367   27.6707 O   0  0  0  0  0  0  0  0  0  0  0  0
    8.0829   -3.1479   21.8346 C   0  0  2  0  0  0  0  0  0  0  0  0
    7.4404   -2.2303   22.7047 O   0  0  0  0  0  0  0  0  0  0  0  0
   11.3898   -3.1180   22.6723 C   0  0  2  0  0  0  0  0  0  0  0  0
    8.8848   -4.1995   22.6544 C   0  0  2  0  0  0  0  0  0  0  0  0
    9.5433   -5.1441   21.7851 O   0  0  0  0  0  0  0  0  0  0  0  0
   11.6838   -4.0647   23.9142 C   0  0  2  0  0  0  0  0  0  0  0  0
   10.7590   -5.1925   23.8697 O   0  0  0  0  0  0  0  0  0  0  0  0
    8.0163   -4.9520   23.5906 C   0  0  0  0  0  0  0  0  0  0  0  0
    6.7321   -4.8685   23.1788 N   0  0  0  0  0  0  0  0  0  0  0  0
   11.4820   -3.2443   25.2353 C   0  0  1  0  0  0  0  0  0  0  0  0
   11.7052   -4.0550   26.3447 O   0  0  0  0  0  0  0  0  0  0  0  0
  1  2  1  1  0  0  0
  1  5  1  0  0  0  0
  1 29  1  0  0  0  0
  3  4  1  1  0  0  0
  3  7  1  0  0  0  0
  3 34  1  0  0  0  0
  5  6  1  6  0  0  0
  5 16  1  0  0  0  0
  7 19  1  0  0  0  0
  8  4  1  0  0  0  0
  8 24  2  0  0  0  0
  9  8  1  6  0  0  0
  9 10  1  0  0  0  0
  9 13  1  0  0  0  0
 10 11  1  0  0  0  0
 11 12  1  0  0  0  0
 14 15  1  0  0  0  0
 14 35  1  0  0  0  0
 15 17  1  0  0  0  0
 16 18  1  6  0  0  0
 16 25  1  0  0  0  0
 19 20  1  6  0  0  0
 19 27  1  0  0  0  0
 21 22  1  0  0  0  0
 21 23  1  0  0  0  0
 23 17  1  0  0  0  0
 25 26  1  1  0  0  0
 25 28  1  0  0  0  0
 27  2  1  6  0  0  0
 27 30  1  0  0  0  0
 28 29  1  0  0  0  0
 28 32  1  1  0  0  0
 30 31  1  1  0  0  0
 30 34  1  0  0  0  0
 32 33  2  0  0  0  0
 34 35  1  1  0  0  0
M  END
>  <CHROM.1>
87.04577500,-143.10961658,143.63159106,-82.87196318,-53.18688578,-166.28889816
158.53901289,61.49533409,-177.24390430,-125.43800884,-150.14337224,20.95537377
61.61886183,10.90747871,-3.22679477,25.17545192,1.94951158,-0.81061538,-1.28592779

>  <Name>
2f4t_lig

>  <RI>
0

>  <Rbt.Current_Directory>
/home/itssahil/PROJECTS/Mol_Feturizer/New_Systems/rnas/2f4t

>  <Rbt.Executable>
rbdock ($Id: //depot/dev/client3/rdock/2013.1/src/exe/rbdock.cxx#4 $)

>  <Rbt.Library>
libRbt.so (2013.1, Build901 2013/11/27)

>  <Rbt.Parameter_File>
/export/apps/rDock/src/rDock_2013.1_src/data/scripts/dock_solv.prm

>  <Rbt.Receptor>
prm/blind_docking_60.prm

>  <SCORE>
11.1097

>  <SCORE.INTER>
0.939061

>  <SCORE.INTER.CONST>
1

>  <SCORE.INTER.POLAR>
-1.06894

>  <SCORE.INTER.ROT>
13

>  <SCORE.INTER.SOLV>
14.3715

>  <SCORE.INTER.VDW>
-12.868

>  <SCORE.INTER.norm>
0.0268303

>  <SCORE.INTRA>
5.42225

>  <SCORE.INTRA.DIHEDRAL>
-7.7709

>  <SCORE.INTRA.DIHEDRAL.0>
23.8882

>  <SCORE.INTRA.POLAR>
0

>  <SCORE.INTRA.POLAR.0>
0

>  <SCORE.INTRA.REPUL>
0

>  <SCORE.INTRA.REPUL.0>
0

>  <SCORE.INTRA.SOLV>
7.39458

>  <SCORE.INTRA.SOLV.lig_0>
-97.6888

>  <SCORE.INTRA.VDW>
5.61041

>  <SCORE.INTRA.VDW.0>
-3.9206

>  <SCORE.INTRA.norm>
0.154921

>  <SCORE.RESTR>
4.74841

>  <SCORE.RESTR.CAVITY>
4.74841

>  <SCORE.RESTR.norm>
0.135669

>  <SCORE.SYSTEM>
0

>  <SCORE.SYSTEM.CONST>
0

>  <SCORE.SYSTEM.DIHEDRAL>
0

>  <SCORE.SYSTEM.SOLV>
0

>  <SCORE.SYSTEM.norm>
0

>  <SCORE.heavy>
35

>  <SCORE.norm>
0.317421

>  <RMSD>
10.886

$$$$
2f4t_lig
 OpenBabel11021811433D
libRbt.so/2013.1/901 2013/11/27
 35 36  0  0  0  0  0  0  0  0999 V2000
    3.3452   -4.8510   27.9173 C   0  0  2  0  0  0  0  0  0  0  0  0
    2.5303   -5.5727   26.9363 O   0  0  0  0  0  0  0  0  0  0  0  0
   -0.7178   -4.3187   24.3801 C   0  0  2  0  0  0  0  0  0  0  0  0
   -1.4895   -3.5190   23.4168 N   0  0  0  0  0  0  0  0  0  0  0  0
    4.7802   -4.7849   27.3123 C   0  0  2  0  0  0  0  0  0  0  0  0
    4.7557   -4.1628   26.0093 N   0  0  0  0  0  0  0  0  0  0  0  0
   -0.1905   -3.3816   25.5278 C   0  0  0  0  0  0  0  0  0  0  0  0
   -2.7020   -4.5402   22.6385 C   0  0  0  0  0  0  0  0  0  0  0  0
   -3.1078   -3.2957   21.8803 C   0  0  1  0  0  0  0  0  0  0  0  0
   -2.4978   -3.3890   20.4799 C   0  0  0  0  0  0  0  0  0  0  0  0
   -2.4094   -2.0648   19.7027 C   0  0  0  0  0  0  0  0  0  0  0  0
   -3.7714   -1.6020   19.4205 N   0  0  0  0  0  0  0  0  0  0  0  0
   -4.4981   -3.2538   21.6921 O   0  0  0  0  0  0  0  0  0  0  0  0
    0.0720   -6.8500   21.6758 C   0  0  0  0  0  0  0  0  0  0  0  0
    0.0611   -8.1930   22.3898 C   0  0  0  0  0  0  0  0  0  0  0  0
    5.3944   -6.2228   27.2259 C   0  0  1  0  0  0  0  0  0  0  0  0
   -0.4486   -9.3025   21.5545 N   0  0  0  0  0  0  0  0  0  0  0  0
    6.6999   -6.1844   26.6833 O   0  0  0  0  0  0  0  0  0  0  0  0
    0.6352   -4.1558   26.5648 C   0  0  2  0  0  0  0  0  0  0  0  0
    1.1469   -3.2590   27.5963 N   0  0  0  0  0  0  0  0  0  0  0  0
    0.9705   -9.9030   19.5905 C   0  0  0  0  0  0  0  0  0  0  0  0
    1.7759  -11.0151   18.8446 N   0  0  0  0  0  0  0  0  0  0  0  0
    0.4935  -10.3224   21.0124 C   0  0  0  0  0  0  0  0  0  0  0  0
   -2.9752   -5.5692   22.7140 O   0  0  0  0  0  0  0  0  0  0  0  0
    5.4112   -6.8178   28.6378 C   0  0  2  0  0  0  0  0  0  0  0  0
    5.9699   -8.1215   28.6330 O   0  0  0  0  0  0  0  0  0  0  0  0
    1.7948   -4.8543   25.8995 C   0  0  2  0  0  0  0  0  0  0  0  0
    3.9674   -6.8505   29.2168 C   0  0  2  0  0  0  0  0  0  0  0  0
    3.3836   -5.5312   29.2323 O   0  0  0  0  0  0  0  0  0  0  0  0
    1.2672   -5.8269   24.7591 C   0  0  2  0  0  0  0  0  0  0  0  0
    2.4131   -6.4879   24.1434 O   0  0  0  0  0  0  0  0  0  0  0  0
    3.9355   -7.3925   30.5960 C   0  0  0  0  0  0  0  0  0  0  0  0
    3.1225   -8.4709   30.6371 N   0  0  0  0  0  0  0  0  0  0  0  0
    0.4866   -4.9814   23.6936 C   0  0  1  0  0  0  0  0  0  0  0  0
    0.0347   -5.8024   22.6643 O   0  0  0  0  0  0  0  0  0  0  0  0
  1  2  1  6  0  0  0
  1  5  1  0  0  0  0
  1 29  1  0  0  0  0
  3  4  1  6  0  0  0
  3  7  1  0  0  0  0
  3 34  1  0  0  0  0
  5  6  1  6  0  0  0
  5 16  1  0  0  0  0
  7 19  1  0  0  0  0
  8  4  1  0  0  0  0
  8 24  2  0  0  0  0
  9  8  1  1  0  0  0
  9 10  1  0  0  0  0
  9 13  1  0  0  0  0
 10 11  1  0  0  0  0
 11 12  1  0  0  0  0
 14 15  1  0  0  0  0
 14 35  1  0  0  0  0
 15 17  1  0  0  0  0
 16 18  1  1  0  0  0
 16 25  1  0  0  0  0
 19 20  1  1  0  0  0
 19 27  1  0  0  0  0
 21 22  1  0  0  0  0
 21 23  1  0  0  0  0
 23 17  1  0  0  0  0
 25 26  1  6  0  0  0
 25 28  1  0  0  0  0
 27  2  1  1  0  0  0
 27 30  1  0  0  0  0
 28 29  1  0  0  0  0
 28 32  1  1  0  0  0
 30 31  1  6  0  0  0
 30 34  1  0  0  0  0
 32 33  2  0  0  0  0
 34 35  1  6  0  0  0
M  END
>  <CHROM.1>
-91.88431802,-152.07036036,101.28968813,-161.62277855,-65.84439398,156.41131390
70.04936713,106.75886556,-170.62048853,-92.61398925,-72.15810450,-121.88312178
-161.42501695,1.13853943,-5.75514554,24.59294609,0.41153941,-0.77325962,0.77184650

>  <Name>
2f4t_lig

>  <RI>
0

>  <Rbt.Current_Directory>
/home/itssahil/PROJECTS/Mol_Feturizer/New_Systems/rnas/2f4t

>  <Rbt.Executable>
rbdock ($Id: //depot/dev/client3/rdock/2013.1/src/exe/rbdock.cxx#4 $)

>  <Rbt.Library>
libRbt.so (2013.1, Build901 2013/11/27)

>  <Rbt.Parameter_File>
/export/apps/rDock/src/rDock_2013.1_src/data/scripts/dock_solv.prm

>  <Rbt.Receptor>
prm/pocket_docking_7.prm

>  <SCORE>
-20.0394

>  <SCORE.INTER>
-17.2241

>  <SCORE.INTER.CONST>
1

>  <SCORE.INTER.POLAR>
-1.70059

>  <SCORE.INTER.ROT>
13

>  <SCORE.INTER.SOLV>
16.6766

>  <SCORE.INTER.VDW>
-23.6396

>  <SCORE.INTER.norm>
-0.492116

>  <SCORE.INTRA>
-2.81536

>  <SCORE.INTRA.DIHEDRAL>
-8.59832

>  <SCORE.INTRA.DIHEDRAL.0>
23.8882

>  <SCORE.INTRA.POLAR>
0

>  <SCORE.INTRA.POLAR.0>
0

>  <SCORE.INTRA.REPUL>
0

>  <SCORE.INTRA.REPUL.0>
0

>  <SCORE.INTRA.SOLV>
3.85826

>  <SCORE.INTRA.SOLV.lig_0>
-97.6888

>  <SCORE.INTRA.VDW>
-0.445329

>  <SCORE.INTRA.VDW.0>
-3.9206

>  <SCORE.INTRA.norm>
-0.0804389

>  <SCORE.RESTR>
0

>  <SCORE.RESTR.CAVITY>
0

>  <SCORE.RESTR.norm>
0

>  <SCORE.SYSTEM>
0

>  <SCORE.SYSTEM.CONST>
0

>  <SCORE.SYSTEM.DIHEDRAL>
0

>  <SCORE.SYSTEM.SOLV>
0

>  <SCORE.SYSTEM.norm>
0

>  <SCORE.heavy>
35

>  <SCORE.norm>
-0.572555

>  <RMSD>
10.920

$$$$
2f4t_lig
 OpenBabel11021811433D
libRbt.so/2013.1/901 2013/11/27
 35 36  0  0  0  0  0  0  0  0999 V2000
   11.0001   -1.4652   22.5584 C   0  0  2  0  0  0  0  0  0  0  0  0
   12.0576   -2.4703   22.6952 O   0  0  0  0  0  0  0  0  0  0  0  0
   11.7522   -3.5919   26.8552 C   0  0  2  0  0  0  0  0  0  0  0  0
   11.7939   -4.4185   28.0708 N   0  0  0  0  0  0  0  0  0  0  0  0
   11.4882   -0.4816   21.4521 C   0  0  2  0  0  0  0  0  0  0  0  0
   11.7737   -1.1926   20.2280 N   0  0  0  0  0  0  0  0  0  0  0  0
   10.8906   -4.3219   25.7606 C   0  0  0  0  0  0  0  0  0  0  0  0
   10.3994   -5.5018   28.0968 C   0  0  0  0  0  0  0  0  0  0  0  0
   10.9576   -6.0148   29.4058 C   0  0  1  0  0  0  0  0  0  0  0  0
   10.6086   -4.9916   30.4890 C   0  0  0  0  0  0  0  0  0  0  0  0
   10.9668   -5.3975   31.9284 C   0  0  0  0  0  0  0  0  0  0  0  0
    9.8838   -6.2323   32.4570 N   0  0  0  0  0  0  0  0  0  0  0  0
   10.3259   -7.2089   29.7870 O   0  0  0  0  0  0  0  0  0  0  0  0
   14.5143   -1.6542   28.0250 C   0  0  0  0  0  0  0  0  0  0  0  0
   13.3813   -0.8352   28.6244 C   0  0  0  0  0  0  0  0  0  0  0  0
   12.7535    0.2980   21.9456 C   0  0  1  0  0  0  0  0  0  0  0  0
   12.8453   -1.3996   29.8825 N   0  0  0  0  0  0  0  0  0  0  0  0
   13.2102    1.2004   20.9569 O   0  0  0  0  0  0  0  0  0  0  0  0
   10.8158   -3.5134   24.4579 C   0  0  2  0  0  0  0  0  0  0  0  0
   10.0460   -4.2291   23.4453 N   0  0  0  0  0  0  0  0  0  0  0  0
   10.3983   -1.0511   29.5331 C   0  0  0  0  0  0  0  0  0  0  0  0
   10.5403   -0.4408   28.1015 N   0  0  0  0  0  0  0  0  0  0  0  0
   11.5163   -2.0743   29.8913 C   0  0  0  0  0  0  0  0  0  0  0  0
    9.5692   -5.6700   27.4476 O   0  0  0  0  0  0  0  0  0  0  0  0
   12.3805    1.0446   23.2305 C   0  0  2  0  0  0  0  0  0  0  0  0
   13.4839    1.7851   23.7264 O   0  0  0  0  0  0  0  0  0  0  0  0
   12.2010   -3.2444   23.9249 C   0  0  2  0  0  0  0  0  0  0  0  0
   11.8803    0.0355   24.3041 C   0  0  2  0  0  0  0  0  0  0  0  0
   10.7550   -0.7254   23.8179 O   0  0  0  0  0  0  0  0  0  0  0  0
   13.0680   -2.4789   25.0145 C   0  0  2  0  0  0  0  0  0  0  0  0
   14.3961   -2.2310   24.4631 O   0  0  0  0  0  0  0  0  0  0  0  0
   11.4788    0.7148   25.5587 C   0  0  0  0  0  0  0  0  0  0  0  0
   10.3020    1.3512   25.3693 N   0  0  0  0  0  0  0  0  0  0  0  0
   13.1680   -3.3711   26.3003 C   0  0  1  0  0  0  0  0  0  0  0  0
   13.9467   -2.7393   27.2657 O   0  0  0  0  0  0  0  0  0  0  0  0
  1  2  1  1  0  0  0
  1  5  1  0  0  0  0
  1 29  1  0  0  0  0
  3  4  1  1  0  0  0
  3  7  1  0  0  0  0
  3 34  1  0  0  0  0
  5  6  1  6  0  0  0
  5 16  1  0  0  0  0
  7 19  1  0  0  0  0
  8  4  1  0  0  0  0
  8 24  2  0  0  0  0
  9  8  1  6  0  0  0
  9 10  1  0  0  0  0
  9 13  1  0  0  0  0
 10 11  1  0  0  0  0
 11 12  1  0  0  0  0
 14 15  1  0  0  0  0
 14 35  1  0  0  0  0
 15 17  1  0  0  0  0
 16 18  1  6  0  0  0
 16 25  1  0  0  0  0
 19 20  1  6  0  0  0
 19 27  1  0  0  0  0
 21 22  1  0  0  0  0
 21 23  1  0  0  0  0
 23 17  1  0  0  0  0
 25 26  1  1  0  0  0
 25 28  1  0  0  0  0
 27  2  1  6  0  0  0
 27 30  1  0  0  0  0
 28 29  1  0  0  0  0
 28 32  1  1  0  0  0
 30 31  1  6  0  0  0
 30 34  1  0  0  0  0
 32 33  2  0  0  0  0
 34 35  1  1  0  0  0
M  END
>  <CHROM.1>
157.24384424,-23.23033824,77.96374939,174.06693249,-83.71444665,82.74911237
56.42939914,-106.29454669,62.26560011,-63.96761112,35.95432661,73.61077275
-85.85063540,11.74679575,-2.35428133,26.13899145,1.12333544,-1.21317843,-1.42168243

>  <Name>
2f4t_lig

>  <RI>
0

>  <Rbt.Current_Directory>
/home/itssahil/PROJECTS/Mol_Feturizer/New_Systems/rnas/2f4t

>  <Rbt.Executable>
rbdock ($Id: //depot/dev/client3/rdock/2013.1/src/exe/rbdock.cxx#4 $)

>  <Rbt.Library>
libRbt.so (2013.1, Build901 2013/11/27)

>  <Rbt.Parameter_File>
/export/apps/rDock/src/rDock_2013.1_src/data/scripts/dock_solv.prm

>  <Rbt.Receptor>
prm/blind_docking_60.prm

>  <SCORE>
11.3983

>  <SCORE.INTER>
0.977552

>  <SCORE.INTER.CONST>
1

>  <SCORE.INTER.POLAR>
0

>  <SCORE.INTER.ROT>
13

>  <SCORE.INTER.SOLV>
12.8551

>  <SCORE.INTER.VDW>
-15.9

>  <SCORE.INTER.norm>
0.0279301

>  <SCORE.INTRA>
7.28534

>  <SCORE.INTRA.DIHEDRAL>
-7.69474

>  <SCORE.INTRA.DIHEDRAL.0>
23.8882

>  <SCORE.INTRA.POLAR>
0

>  <SCORE.INTRA.POLAR.0>
0

>  <SCORE.INTRA.REPUL>
0.0128399

>  <SCORE.INTRA.REPUL.0>
0

>  <SCORE.INTRA.SOLV>
9.80062

>  <SCORE.INTRA.SOLV.lig_0>
-97.6888

>  <SCORE.INTRA.VDW>
6.1682

>  <SCORE.INTRA.VDW.0>
-3.9206

>  <SCORE.INTRA.norm>
0.208153

>  <SCORE.RESTR>
3.13542

>  <SCORE.RESTR.CAVITY>
3.13542

>  <SCORE.RESTR.norm>
0.0895835

>  <SCORE.SYSTEM>
0

>  <SCORE.SYSTEM.CONST>
0

>  <SCORE.SYSTEM.DIHEDRAL>
0

>  <SCORE.SYSTEM.SOLV>
0

>  <SCORE.SYSTEM.norm>
0

>  <SCORE.heavy>
35

>  <SCORE.norm>
0.325666

>  <RMSD>
10.932

$$$$
2f4t_lig
 OpenBabel11021811433D
libRbt.so/2013.1/901 2013/11/27
 35 36  0  0  0  0  0  0  0  0999 V2000
    3.6197   -6.9197   26.7238 C   0  0  2  0  0  0  0  0  0  0  0  0
    2.5421   -5.9276   26.7675 O   0  0  0  0  0  0  0  0  0  0  0  0
   -0.4062   -5.0244   23.7428 C   0  0  2  0  0  0  0  0  0  0  0  0
   -1.0322   -4.4106   22.5622 N   0  0  0  0  0  0  0  0  0  0  0  0
    3.9410   -7.2649   28.2095 C   0  0  2  0  0  0  0  0  0  0  0  0
    2.7557   -7.7265   28.8932 N   0  0  0  0  0  0  0  0  0  0  0  0
    0.1587   -3.8930   24.6779 C   0  0  0  0  0  0  0  0  0  0  0  0
   -2.6390   -3.8142   22.9883 C   0  0  0  0  0  0  0  0  0  0  0  0
   -2.7320   -3.3537   21.5504 C   0  0  1  0  0  0  0  0  0  0  0  0
   -4.1749   -2.9094   21.3005 C   0  0  0  0  0  0  0  0  0  0  0  0
   -4.4849   -2.4256   19.8740 C   0  0  0  0  0  0  0  0  0  0  0  0
   -5.8818   -1.9830   19.8288 N   0  0  0  0  0  0  0  0  0  0  0  0
   -1.9370   -2.2172   21.3351 O   0  0  0  0  0  0  0  0  0  0  0  0
    0.3015   -8.1017   21.6322 C   0  0  0  0  0  0  0  0  0  0  0  0
   -1.1239   -8.4513   21.2330 C   0  0  0  0  0  0  0  0  0  0  0  0
    4.5444   -6.0145   28.9339 C   0  0  1  0  0  0  0  0  0  0  0  0
   -2.0118   -8.7191   22.3856 N   0  0  0  0  0  0  0  0  0  0  0  0
    4.8477   -6.3083   30.2837 O   0  0  0  0  0  0  0  0  0  0  0  0
    0.8372   -4.4696   25.9283 C   0  0  2  0  0  0  0  0  0  0  0  0
    1.3884   -3.4035   26.7590 N   0  0  0  0  0  0  0  0  0  0  0  0
   -3.1243  -10.8133   23.1654 C   0  0  0  0  0  0  0  0  0  0  0  0
   -3.5237  -11.2909   21.7322 N   0  0  0  0  0  0  0  0  0  0  0  0
   -1.8262   -9.9536   23.1998 C   0  0  0  0  0  0  0  0  0  0  0  0
   -3.2248   -3.8113   23.8805 O   0  0  0  0  0  0  0  0  0  0  0  0
    5.8054   -5.5883   28.1751 C   0  0  2  0  0  0  0  0  0  0  0  0
    6.4117   -4.4626   28.7890 O   0  0  0  0  0  0  0  0  0  0  0  0
    1.9469   -5.4133   25.5374 C   0  0  2  0  0  0  0  0  0  0  0  0
    5.4511   -5.2708   26.6936 C   0  0  2  0  0  0  0  0  0  0  0  0
    4.8355   -6.4067   26.0514 O   0  0  0  0  0  0  0  0  0  0  0  0
    1.3776   -6.5773   24.6176 C   0  0  2  0  0  0  0  0  0  0  0  0
    2.4752   -7.4717   24.2650 O   0  0  0  0  0  0  0  0  0  0  0  0
    6.6467   -4.8808   25.9092 C   0  0  0  0  0  0  0  0  0  0  0  0
    7.6334   -5.7805   26.1156 N   0  0  0  0  0  0  0  0  0  0  0  0
    0.7532   -5.9429   23.3265 C   0  0  1  0  0  0  0  0  0  0  0  0
    0.2696   -6.9408   22.4850 O   0  0  0  0  0  0  0  0  0  0  0  0
  1  2  1  1  0  0  0
  1  5  1  0  0  0  0
  1 29  1  0  0  0  0
  3  4  1  6  0  0  0
  3  7  1  0  0  0  0
  3 34  1  0  0  0  0
  5  6  1  1  0  0  0
  5 16  1  0  0  0  0
  7 19  1  0  0  0  0
  8  4  1  0  0  0  0
  8 24  2  0  0  0  0
  9  8  1  1  0  0  0
  9 10  1  0  0  0  0
  9 13  1  0  0  0  0
 10 11  1  0  0  0  0
 11 12  1  0  0  0  0
 14 15  1  0  0  0  0
 14 35  1  0  0  0  0
 15 17  1  0  0  0  0
 16 18  1  1  0  0  0
 16 25  1  0  0  0  0
 19 20  1  6  0  0  0
 19 27  1  0  0  0  0
 21 22  1  0  0  0  0
 21 23  1  0  0  0  0
 23 17  1  0  0  0  0
 25 26  1  1  0  0  0
 25 28  1  0  0  0  0
 27  2  1  1  0  0  0
 27 30  1  0  0  0  0
 28 29  1  0  0  0  0
 28 32  1  6  0  0  0
 30 31  1  6  0  0  0
 30 34  1  0  0  0  0
 32 33  2  0  0  0  0
 34 35  1  6  0  0  0
M  END
>  <CHROM.1>
-177.48018557,-78.98331447,170.41634145,-178.90040747,-177.37766184,-58.30346263
174.88205495,-70.11536708,61.01736374,-120.42924999,177.44148445,49.13427130
179.44871674,0.87718691,-5.82932178,24.56485728,0.07481133,0.64465324,-3.14064940

>  <Name>
2f4t_lig

>  <RI>
0

>  <Rbt.Current_Directory>
/home/itssahil/PROJECTS/Mol_Feturizer/New_Systems/rnas/2f4t

>  <Rbt.Executable>
rbdock ($Id: //depot/dev/client3/rdock/2013.1/src/exe/rbdock.cxx#4 $)

>  <Rbt.Library>
libRbt.so (2013.1, Build901 2013/11/27)

>  <Rbt.Parameter_File>
/export/apps/rDock/src/rDock_2013.1_src/data/scripts/dock_solv.prm

>  <Rbt.Receptor>
prm/pocket_docking_8.prm

>  <SCORE>
-25.8124

>  <SCORE.INTER>
-17.4396

>  <SCORE.INTER.CONST>
1

>  <SCORE.INTER.POLAR>
-0.997562

>  <SCORE.INTER.ROT>
13

>  <SCORE.INTER.SOLV>
14.221

>  <SCORE.INTER.VDW>
-25.3082

>  <SCORE.INTER.norm>
-0.498274

>  <SCORE.INTRA>
-8.37279

>  <SCORE.INTRA.DIHEDRAL>
-19.432

>  <SCORE.INTRA.DIHEDRAL.0>
23.8882

>  <SCORE.INTRA.POLAR>
0

>  <SCORE.INTRA.POLAR.0>
0

>  <SCORE.INTRA.REPUL>
0

>  <SCORE.INTRA.REPUL.0>
0

>  <SCORE.INTRA.SOLV>
0.769759

>  <SCORE.INTRA.SOLV.lig_0>
-97.6888

>  <SCORE.INTRA.VDW>
0.958313

>  <SCORE.INTRA.VDW.0>
-3.9206

>  <SCORE.INTRA.norm>
-0.239223

>  <SCORE.RESTR>
0

>  <SCORE.RESTR.CAVITY>
0

>  <SCORE.RESTR.norm>
0

>  <SCORE.SYSTEM>
0

>  <SCORE.SYSTEM.CONST>
0

>  <SCORE.SYSTEM.DIHEDRAL>
0

>  <SCORE.SYSTEM.SOLV>
0

>  <SCORE.SYSTEM.norm>
0

>  <SCORE.heavy>
35

>  <SCORE.norm>
-0.737497

>  <RMSD>
10.948

$$$$
2f4t_lig
 OpenBabel11021811433D
libRbt.so/2013.1/901 2013/11/27
 35 36  0  0  0  0  0  0  0  0999 V2000
    3.5274   -5.8457   26.4670 C   0  0  2  0  0  0  0  0  0  0  0  0
    2.1746   -5.2890   26.5513 O   0  0  0  0  0  0  0  0  0  0  0  0
   -0.9272   -4.8841   23.5727 C   0  0  2  0  0  0  0  0  0  0  0  0
   -1.6836   -4.3559   22.4275 N   0  0  0  0  0  0  0  0  0  0  0  0
    4.0053   -6.0279   27.9394 C   0  0  2  0  0  0  0  0  0  0  0  0
    3.0817   -6.8586   28.6759 N   0  0  0  0  0  0  0  0  0  0  0  0
   -0.6172   -3.7122   24.5748 C   0  0  0  0  0  0  0  0  0  0  0  0
   -3.3667   -4.1012   22.8980 C   0  0  0  0  0  0  0  0  0  0  0  0
   -3.5757   -3.6092   21.4829 C   0  0  1  0  0  0  0  0  0  0  0  0
   -4.9231   -4.1508   21.0002 C   0  0  0  0  0  0  0  0  0  0  0  0
   -5.0010   -5.6760   20.8184 C   0  0  0  0  0  0  0  0  0  0  0  0
   -6.3604   -6.0224   20.3928 N   0  0  0  0  0  0  0  0  0  0  0  0
   -3.6894   -2.2106   21.4496 O   0  0  0  0  0  0  0  0  0  0  0  0
    0.4227   -7.5911   21.2761 C   0  0  0  0  0  0  0  0  0  0  0  0
   -0.8756   -8.3205   20.9666 C   0  0  0  0  0  0  0  0  0  0  0  0
    4.1632   -4.6315   28.6304 C   0  0  1  0  0  0  0  0  0  0  0  0
   -0.6786   -9.6003   20.2511 N   0  0  0  0  0  0  0  0  0  0  0  0
    4.6012   -4.7744   29.9676 O   0  0  0  0  0  0  0  0  0  0  0  0
    0.1828   -4.1966   25.7921 C   0  0  2  0  0  0  0  0  0  0  0  0
    0.4928   -3.0854   26.6860 N   0  0  0  0  0  0  0  0  0  0  0  0
   -0.4046  -12.0798   20.1588 C   0  0  0  0  0  0  0  0  0  0  0  0
   -1.9242  -12.3682   19.9364 N   0  0  0  0  0  0  0  0  0  0  0  0
   -0.1263  -10.7816   20.9728 C   0  0  0  0  0  0  0  0  0  0  0  0
   -3.9241   -4.2487   23.7961 O   0  0  0  0  0  0  0  0  0  0  0  0
    5.1673   -3.8092   27.8159 C   0  0  2  0  0  0  0  0  0  0  0  0
    5.3671   -2.5309   28.3971 O   0  0  0  0  0  0  0  0  0  0  0  0
    1.4697   -4.8480   25.3510 C   0  0  2  0  0  0  0  0  0  0  0  0
    4.6682   -3.6643   26.3493 C   0  0  2  0  0  0  0  0  0  0  0  0
    4.4622   -4.9559   25.7404 O   0  0  0  0  0  0  0  0  0  0  0  0
    1.1627   -6.0535   24.3623 C   0  0  2  0  0  0  0  0  0  0  0  0
    2.4272   -6.6618   23.9623 O   0  0  0  0  0  0  0  0  0  0  0  0
    5.6226   -2.8992   25.5122 C   0  0  0  0  0  0  0  0  0  0  0  0
    6.4960   -3.7515   24.9321 N   0  0  0  0  0  0  0  0  0  0  0  0
    0.4023   -5.4985   23.1080 C   0  0  1  0  0  0  0  0  0  0  0  0
    0.1431   -6.5279   22.2074 O   0  0  0  0  0  0  0  0  0  0  0  0
  1  2  1  1  0  0  0
  1  5  1  0  0  0  0
  1 29  1  0  0  0  0
  3  4  1  6  0  0  0
  3  7  1  0  0  0  0
  3 34  1  0  0  0  0
  5  6  1  1  0  0  0
  5 16  1  0  0  0  0
  7 19  1  0  0  0  0
  8  4  1  0  0  0  0
  8 24  2  0  0  0  0
  9  8  1  1  0  0  0
  9 10  1  0  0  0  0
  9 13  1  0  0  0  0
 10 11  1  0  0  0  0
 11 12  1  0  0  0  0
 14 15  1  0  0  0  0
 14 35  1  0  0  0  0
 15 17  1  0  0  0  0
 16 18  1  1  0  0  0
 16 25  1  0  0  0  0
 19 20  1  1  0  0  0
 19 27  1  0  0  0  0
 21 22  1  0  0  0  0
 21 23  1  0  0  0  0
 23 17  1  0  0  0  0
 25 26  1  1  0  0  0
 25 28  1  0  0  0  0
 27  2  1  1  0  0  0
 27 30  1  0  0  0  0
 28 29  1  0  0  0  0
 28 32  1  6  0  0  0
 30 31  1  6  0  0  0
 30 34  1  0  0  0  0
 32 33  2  0  0  0  0
 34 35  1  6  0  0  0
M  END
>  <CHROM.1>
173.09510640,-77.02141120,139.69898322,-67.02090835,178.40655742,-167.83101709
170.18908362,72.77706737,-60.76890668,163.27631863,-173.93920653,90.92024065
177.74344862,0.63271737,-5.58764849,24.13340111,-0.56323827,0.52851876,-2.63400542

>  <Name>
2f4t_lig

>  <RI>
0

>  <Rbt.Current_Directory>
/home/itssahil/PROJECTS/Mol_Feturizer/New_Systems/rnas/2f4t

>  <Rbt.Executable>
rbdock ($Id: //depot/dev/client3/rdock/2013.1/src/exe/rbdock.cxx#4 $)

>  <Rbt.Library>
libRbt.so (2013.1, Build901 2013/11/27)

>  <Rbt.Parameter_File>
/export/apps/rDock/src/rDock_2013.1_src/data/scripts/dock_solv.prm

>  <Rbt.Receptor>
prm/pocket_docking_7.prm

>  <SCORE>
-24.1984

>  <SCORE.INTER>
-15.7258

>  <SCORE.INTER.CONST>
1

>  <SCORE.INTER.POLAR>
-1.75778

>  <SCORE.INTER.ROT>
13

>  <SCORE.INTER.SOLV>
17.1983

>  <SCORE.INTER.VDW>
-22.624

>  <SCORE.INTER.norm>
-0.449308

>  <SCORE.INTRA>
-8.47975

>  <SCORE.INTRA.DIHEDRAL>
-18.2653

>  <SCORE.INTRA.DIHEDRAL.0>
23.8882

>  <SCORE.INTRA.POLAR>
0

>  <SCORE.INTRA.POLAR.0>
0

>  <SCORE.INTRA.REPUL>
0

>  <SCORE.INTRA.REPUL.0>
0

>  <SCORE.INTRA.SOLV>
-0.15025

>  <SCORE.INTRA.SOLV.lig_0>
-97.6888

>  <SCORE.INTRA.VDW>
0.728011

>  <SCORE.INTRA.VDW.0>
-3.9206

>  <SCORE.INTRA.norm>
-0.242279

>  <SCORE.RESTR>
0.00715755

>  <SCORE.RESTR.CAVITY>
0.00715755

>  <SCORE.RESTR.norm>
0.000204502

>  <SCORE.SYSTEM>
0

>  <SCORE.SYSTEM.CONST>
0

>  <SCORE.SYSTEM.DIHEDRAL>
0

>  <SCORE.SYSTEM.SOLV>
0

>  <SCORE.SYSTEM.norm>
0

>  <SCORE.heavy>
35

>  <SCORE.norm>
-0.691382

>  <RMSD>
10.950

$$$$
2f4t_lig
 OpenBabel11021811433D
libRbt.so/2013.1/901 2013/11/27
 35 36  0  0  0  0  0  0  0  0999 V2000
    6.9532    0.1568   35.2840 C   0  0  2  0  0  0  0  0  0  0  0  0
    8.0255   -0.7740   35.6460 O   0  0  0  0  0  0  0  0  0  0  0  0
    8.8037   -2.6916   31.8546 C   0  0  2  0  0  0  0  0  0  0  0  0
    9.4488   -3.5394   30.8408 N   0  0  0  0  0  0  0  0  0  0  0  0
    6.7153    1.0429   36.5440 C   0  0  2  0  0  0  0  0  0  0  0  0
    7.9388    1.6964   36.9459 N   0  0  0  0  0  0  0  0  0  0  0  0
    9.8873   -1.7713   32.5273 C   0  0  0  0  0  0  0  0  0  0  0  0
   10.1354   -2.5227   29.5705 C   0  0  0  0  0  0  0  0  0  0  0  0
   10.5968   -3.8151   28.9341 C   0  0  1  0  0  0  0  0  0  0  0  0
    9.4690   -4.3110   28.0263 C   0  0  0  0  0  0  0  0  0  0  0  0
    9.6878   -5.6924   27.3868 C   0  0  0  0  0  0  0  0  0  0  0  0
    8.5064   -6.0232   26.5844 N   0  0  0  0  0  0  0  0  0  0  0  0
   11.6987   -3.5947   28.0929 O   0  0  0  0  0  0  0  0  0  0  0  0
    6.0370   -4.7539   31.5841 C   0  0  0  0  0  0  0  0  0  0  0  0
    5.7238   -6.2191   31.8458 C   0  0  0  0  0  0  0  0  0  0  0  0
    6.1446    0.1723   37.7139 C   0  0  1  0  0  0  0  0  0  0  0  0
    5.4262   -6.5158   33.2643 N   0  0  0  0  0  0  0  0  0  0  0  0
    5.9169    0.9594   38.8668 O   0  0  0  0  0  0  0  0  0  0  0  0
    9.2785   -0.8654   33.6068 C   0  0  2  0  0  0  0  0  0  0  0  0
   10.3089   -0.0513   34.2437 N   0  0  0  0  0  0  0  0  0  0  0  0
    4.2437   -7.6787   35.1300 C   0  0  0  0  0  0  0  0  0  0  0  0
    3.4030   -8.9090   35.6004 N   0  0  0  0  0  0  0  0  0  0  0  0
    4.6353   -7.7270   33.6235 C   0  0  0  0  0  0  0  0  0  0  0  0
   10.1734   -1.4713   29.3909 O   0  0  0  0  0  0  0  0  0  0  0  0
    4.8416   -0.4745   37.2329 C   0  0  2  0  0  0  0  0  0  0  0  0
    4.2627   -1.2710   38.2539 O   0  0  0  0  0  0  0  0  0  0  0  0
    8.5844   -1.6936   34.6590 C   0  0  2  0  0  0  0  0  0  0  0  0
    5.1129   -1.3344   35.9648 C   0  0  2  0  0  0  0  0  0  0  0  0
    5.6995   -0.5393   34.9135 O   0  0  0  0  0  0  0  0  0  0  0  0
    7.4663   -2.6035   33.9905 C   0  0  2  0  0  0  0  0  0  0  0  0
    6.8137   -3.3839   35.0365 O   0  0  0  0  0  0  0  0  0  0  0  0
    3.8740   -1.9590   35.4433 C   0  0  0  0  0  0  0  0  0  0  0  0
    3.7428   -3.1997   35.9619 N   0  0  0  0  0  0  0  0  0  0  0  0
    8.1455   -3.5531   32.9435 C   0  0  1  0  0  0  0  0  0  0  0  0
    7.1942   -4.3847   32.3591 O   0  0  0  0  0  0  0  0  0  0  0  0
  1  2  1  1  0  0  0
  1  5  1  0  0  0  0
  1 29  1  0  0  0  0
  3  4  1  6  0  0  0
  3  7  1  0  0  0  0
  3 34  1  0  0  0  0
  5  6  1  1  0  0  0
  5 16  1  0  0  0  0
  7 19  1  0  0  0  0
  8  4  1  0  0  0  0
  8 24  2  0  0  0  0
  9  8  1  6  0  0  0
  9 10  1  0  0  0  0
  9 13  1  0  0  0  0
 10 11  1  0  0  0  0
 11 12  1  0  0  0  0
 14 15  1  0  0  0  0
 14 35  1  0  0  0  0
 15 17  1  0  0  0  0
 16 18  1  1  0  0  0
 16 25  1  0  0  0  0
 19 20  1  1  0  0  0
 19 27  1  0  0  0  0
 21 22  1  0  0  0  0
 21 23  1  0  0  0  0
 23 17  1  0  0  0  0
 25 26  1  1  0  0  0
 25 28  1  0  0  0  0
 27  2  1  1  0  0  0
 27 30  1  0  0  0  0
 28 29  1  0  0  0  0
 28 32  1  6  0  0  0
 30 31  1  1  0  0  0
 30 34  1  0  0  0  0
 32 33  2  0  0  0  0
 34 35  1  6  0  0  0
M  END
>  <CHROM.1>
-175.15732030,-62.74082092,88.49021485,-174.29493667,178.56043333,60.28284226
-169.05941960,157.57104100,179.73091506,-169.88393448,65.50070968,-93.48402642
-55.48013371,7.27904069,-2.83866146,33.43447819,-2.15962061,-0.78034159,-2.43816943

>  <Name>
2f4t_lig

>  <RI>
0

>  <Rbt.Current_Directory>
/home/itssahil/PROJECTS/Mol_Feturizer/New_Systems/rnas/2f4t

>  <Rbt.Executable>
rbdock ($Id: //depot/dev/client3/rdock/2013.1/src/exe/rbdock.cxx#4 $)

>  <Rbt.Library>
libRbt.so (2013.1, Build901 2013/11/27)

>  <Rbt.Parameter_File>
/export/apps/rDock/src/rDock_2013.1_src/data/scripts/dock_solv.prm

>  <Rbt.Receptor>
prm/pocket_docking_8.prm

>  <SCORE>
-6.38907

>  <SCORE.INTER>
3.2281

>  <SCORE.INTER.CONST>
1

>  <SCORE.INTER.POLAR>
-0.824621

>  <SCORE.INTER.ROT>
13

>  <SCORE.INTER.SOLV>
9.25416

>  <SCORE.INTER.VDW>
-10.4506

>  <SCORE.INTER.norm>
0.0922315

>  <SCORE.INTRA>
-9.61717

>  <SCORE.INTRA.DIHEDRAL>
-19.6288

>  <SCORE.INTRA.DIHEDRAL.0>
23.8882

>  <SCORE.INTRA.POLAR>
0

>  <SCORE.INTRA.POLAR.0>
0

>  <SCORE.INTRA.REPUL>
0

>  <SCORE.INTRA.REPUL.0>
0

>  <SCORE.INTRA.SOLV>
0.583325

>  <SCORE.INTRA.SOLV.lig_0>
-97.6888

>  <SCORE.INTRA.VDW>
-0.0944199

>  <SCORE.INTRA.VDW.0>
-3.9206

>  <SCORE.INTRA.norm>
-0.274776

>  <SCORE.RESTR>
0

>  <SCORE.RESTR.CAVITY>
0

>  <SCORE.RESTR.norm>
0

>  <SCORE.SYSTEM>
0

>  <SCORE.SYSTEM.CONST>
0

>  <SCORE.SYSTEM.DIHEDRAL>
0

>  <SCORE.SYSTEM.SOLV>
0

>  <SCORE.SYSTEM.norm>
0

>  <SCORE.heavy>
35

>  <SCORE.norm>
-0.182545

>  <RMSD>
10.966

$$$$
2f4t_lig
 OpenBabel11021811433D
libRbt.so/2013.1/901 2013/11/27
 35 36  0  0  0  0  0  0  0  0999 V2000
    3.7514   -6.0627   26.4552 C   0  0  2  0  0  0  0  0  0  0  0  0
    2.5229   -5.2669   26.3879 O   0  0  0  0  0  0  0  0  0  0  0  0
   -0.6753   -5.3798   23.4868 C   0  0  2  0  0  0  0  0  0  0  0  0
   -1.4355   -5.1145   22.2562 N   0  0  0  0  0  0  0  0  0  0  0  0
    4.1920   -6.0400   27.9502 C   0  0  2  0  0  0  0  0  0  0  0  0
    3.1344   -6.5337   28.8007 N   0  0  0  0  0  0  0  0  0  0  0  0
   -0.2024   -4.0150   24.1091 C   0  0  0  0  0  0  0  0  0  0  0  0
   -2.7137   -3.9432   22.5924 C   0  0  0  0  0  0  0  0  0  0  0  0
   -3.0699   -4.0727   21.1279 C   0  0  1  0  0  0  0  0  0  0  0  0
   -4.1540   -3.0364   20.8232 C   0  0  0  0  0  0  0  0  0  0  0  0
   -4.7817   -3.1221   19.4218 C   0  0  0  0  0  0  0  0  0  0  0  0
   -5.7725   -2.0495   19.2923 N   0  0  0  0  0  0  0  0  0  0  0  0
   -1.9769   -3.7364   20.3140 O   0  0  0  0  0  0  0  0  0  0  0  0
   -0.3997   -8.7706   22.5563 C   0  0  0  0  0  0  0  0  0  0  0  0
   -1.7872   -8.7434   23.1788 C   0  0  0  0  0  0  0  0  0  0  0  0
    4.6035   -4.5879   28.3678 C   0  0  1  0  0  0  0  0  0  0  0  0
   -2.4493  -10.0660   23.2054 N   0  0  0  0  0  0  0  0  0  0  0  0
    5.0116   -4.5463   29.7213 O   0  0  0  0  0  0  0  0  0  0  0  0
    0.6091   -4.2231   25.3954 C   0  0  2  0  0  0  0  0  0  0  0  0
    1.0707   -2.9463   25.9311 N   0  0  0  0  0  0  0  0  0  0  0  0
   -3.4954  -12.0984   22.2021 C   0  0  0  0  0  0  0  0  0  0  0  0
   -4.6193  -12.2434   23.2782 N   0  0  0  0  0  0  0  0  0  0  0  0
   -3.0463  -10.6270   21.9602 C   0  0  0  0  0  0  0  0  0  0  0  0
   -3.0375   -3.4166   23.4624 O   0  0  0  0  0  0  0  0  0  0  0  0
    5.7384   -4.1318   27.4449 C   0  0  2  0  0  0  0  0  0  0  0  0
    6.1693   -2.8223   27.7786 O   0  0  0  0  0  0  0  0  0  0  0  0
    1.8027   -5.1057   25.1280 C   0  0  2  0  0  0  0  0  0  0  0  0
    5.2702   -4.1855   25.9620 C   0  0  2  0  0  0  0  0  0  0  0  0
    4.8307   -5.5121   25.6035 O   0  0  0  0  0  0  0  0  0  0  0  0
    1.3301   -6.4991   24.5280 C   0  0  2  0  0  0  0  0  0  0  0  0
    2.5078   -7.3266   24.2883 O   0  0  0  0  0  0  0  0  0  0  0  0
    6.3458   -3.7800   25.0263 C   0  0  0  0  0  0  0  0  0  0  0  0
    6.8878   -4.8804   24.4596 N   0  0  0  0  0  0  0  0  0  0  0  0
    0.5630   -6.2382   23.1853 C   0  0  1  0  0  0  0  0  0  0  0  0
    0.1595   -7.4441   22.6190 O   0  0  0  0  0  0  0  0  0  0  0  0
  1  2  1  1  0  0  0
  1  5  1  0  0  0  0
  1 29  1  0  0  0  0
  3  4  1  6  0  0  0
  3  7  1  0  0  0  0
  3 34  1  0  0  0  0
  5  6  1  1  0  0  0
  5 16  1  0  0  0  0
  7 19  1  0  0  0  0
  8  4  1  0  0  0  0
  8 24  2  0  0  0  0
  9  8  1  1  0  0  0
  9 10  1  0  0  0  0
  9 13  1  0  0  0  0
 10 11  1  0  0  0  0
 11 12  1  0  0  0  0
 14 15  1  0  0  0  0
 14 35  1  0  0  0  0
 15 17  1  0  0  0  0
 16 18  1  1  0  0  0
 16 25  1  0  0  0  0
 19 20  1  6  0  0  0
 19 27  1  0  0  0  0
 21 22  1  0  0  0  0
 21 23  1  0  0  0  0
 23 17  1  0  0  0  0
 25 26  1  1  0  0  0
 25 28  1  0  0  0  0
 27  2  1  1  0  0  0
 27 30  1  0  0  0  0
 28 29  1  0  0  0  0
 28 32  1  6  0  0  0
 30 31  1  6  0  0  0
 30 34  1  0  0  0  0
 32 33  2  0  0  0  0
 34 35  1  1  0  0  0
M  END
>  <CHROM.1>
-178.13151678,-52.33249182,-173.66096278,-172.67726995,-178.91585595,-178.39186360
52.73441866,-76.63813156,63.08922915,171.99898692,-179.14886261,102.05569056
-74.15782646,0.66554459,-5.67490157,24.24209904,-0.07490528,0.60582015,2.96300563

>  <Name>
2f4t_lig

>  <RI>
0

>  <Rbt.Current_Directory>
/home/itssahil/PROJECTS/Mol_Feturizer/New_Systems/rnas/2f4t

>  <Rbt.Executable>
rbdock ($Id: //depot/dev/client3/rdock/2013.1/src/exe/rbdock.cxx#4 $)

>  <Rbt.Library>
libRbt.so (2013.1, Build901 2013/11/27)

>  <Rbt.Parameter_File>
/export/apps/rDock/src/rDock_2013.1_src/data/scripts/dock_solv.prm

>  <Rbt.Receptor>
prm/pocket_docking_8.prm

>  <SCORE>
-25.1886

>  <SCORE.INTER>
-17.6687

>  <SCORE.INTER.CONST>
1

>  <SCORE.INTER.POLAR>
-2.20805

>  <SCORE.INTER.ROT>
13

>  <SCORE.INTER.SOLV>
20.4109

>  <SCORE.INTER.VDW>
-23.4892

>  <SCORE.INTER.norm>
-0.50482

>  <SCORE.INTRA>
-7.52194

>  <SCORE.INTRA.DIHEDRAL>
-20.202

>  <SCORE.INTRA.DIHEDRAL.0>
23.8882

>  <SCORE.INTRA.POLAR>
0

>  <SCORE.INTRA.POLAR.0>
0

>  <SCORE.INTRA.REPUL>
0

>  <SCORE.INTRA.REPUL.0>
0

>  <SCORE.INTRA.SOLV>
-0.407798

>  <SCORE.INTRA.SOLV.lig_0>
-97.6888

>  <SCORE.INTRA.VDW>
2.78297

>  <SCORE.INTRA.VDW.0>
-3.9206

>  <SCORE.INTRA.norm>
-0.214913

>  <SCORE.RESTR>
0.00201602

>  <SCORE.RESTR.CAVITY>
0.00201602

>  <SCORE.RESTR.norm>
5.76006e-05

>  <SCORE.SYSTEM>
0

>  <SCORE.SYSTEM.CONST>
0

>  <SCORE.SYSTEM.DIHEDRAL>
0

>  <SCORE.SYSTEM.SOLV>
0

>  <SCORE.SYSTEM.norm>
0

>  <SCORE.heavy>
35

>  <SCORE.norm>
-0.719674

>  <RMSD>
11.038

$$$$
2f4t_lig
 OpenBabel11021811433D
libRbt.so/2013.1/901 2013/11/27
 35 36  0  0  0  0  0  0  0  0999 V2000
   13.9965   -0.4541   24.6675 C   0  0  2  0  0  0  0  0  0  0  0  0
   13.8357   -1.9038   24.8079 O   0  0  0  0  0  0  0  0  0  0  0  0
   11.4822   -4.8012   26.9812 C   0  0  2  0  0  0  0  0  0  0  0  0
   10.5586   -5.3649   27.9771 N   0  0  0  0  0  0  0  0  0  0  0  0
   13.0382    0.1843   25.7182 C   0  0  2  0  0  0  0  0  0  0  0  0
   13.3358   -0.3061   27.0435 N   0  0  0  0  0  0  0  0  0  0  0  0
   12.5738   -3.9391   27.7152 C   0  0  0  0  0  0  0  0  0  0  0  0
   10.4518   -4.2785   29.3654 C   0  0  0  0  0  0  0  0  0  0  0  0
    9.4772   -5.2825   29.9402 C   0  0  1  0  0  0  0  0  0  0  0  0
    9.8257   -5.4699   31.4185 C   0  0  0  0  0  0  0  0  0  0  0  0
   11.2535   -5.9624   31.7085 C   0  0  0  0  0  0  0  0  0  0  0  0
   11.5446   -7.0887   30.8165 N   0  0  0  0  0  0  0  0  0  0  0  0
    8.1666   -4.7807   29.9148 O   0  0  0  0  0  0  0  0  0  0  0  0
    9.1769   -5.7267   24.5786 C   0  0  0  0  0  0  0  0  0  0  0  0
    8.1595   -5.1483   23.6070 C   0  0  0  0  0  0  0  0  0  0  0  0
   11.5486   -0.1162   25.3401 C   0  0  1  0  0  0  0  0  0  0  0  0
    8.7637   -4.3130   22.5460 N   0  0  0  0  0  0  0  0  0  0  0  0
   10.6614    0.4591   26.2795 O   0  0  0  0  0  0  0  0  0  0  0  0
   13.5669   -3.3112   26.7272 C   0  0  2  0  0  0  0  0  0  0  0  0
   14.5443   -2.4842   27.4278 N   0  0  0  0  0  0  0  0  0  0  0  0
    8.7572   -2.5456   20.7831 C   0  0  0  0  0  0  0  0  0  0  0  0
   10.2490   -2.1416   21.0138 N   0  0  0  0  0  0  0  0  0  0  0  0
    8.0534   -3.0968   22.0584 C   0  0  0  0  0  0  0  0  0  0  0  0
   10.9006   -3.3449   29.6224 O   0  0  0  0  0  0  0  0  0  0  0  0
   11.2919    0.4450   23.9376 C   0  0  2  0  0  0  0  0  0  0  0  0
    9.9506    0.2167   23.5367 O   0  0  0  0  0  0  0  0  0  0  0  0
   12.8378   -2.4624   25.7158 C   0  0  2  0  0  0  0  0  0  0  0  0
   12.2773   -0.1989   22.9201 C   0  0  2  0  0  0  0  0  0  0  0  0
   13.6480    0.0260   23.3105 O   0  0  0  0  0  0  0  0  0  0  0  0
   11.7542   -3.3348   24.9479 C   0  0  2  0  0  0  0  0  0  0  0  0
   11.0749   -2.4844   23.9761 O   0  0  0  0  0  0  0  0  0  0  0  0
   12.0872    0.3350   21.5506 C   0  0  0  0  0  0  0  0  0  0  0  0
   13.1816    1.0385   21.1858 N   0  0  0  0  0  0  0  0  0  0  0  0
   10.7283   -3.9005   25.9905 C   0  0  1  0  0  0  0  0  0  0  0  0
    9.7475   -4.6479   25.3445 O   0  0  0  0  0  0  0  0  0  0  0  0
  1  2  1  6  0  0  0
  1  5  1  0  0  0  0
  1 29  1  0  0  0  0
  3  4  1  1  0  0  0
  3  7  1  0  0  0  0
  3 34  1  0  0  0  0
  5  6  1  1  0  0  0
  5 16  1  0  0  0  0
  7 19  1  0  0  0  0
  8  4  1  0  0  0  0
  8 24  2  0  0  0  0
  9  8  1  1  0  0  0
  9 10  1  0  0  0  0
  9 13  1  0  0  0  0
 10 11  1  0  0  0  0
 11 12  1  0  0  0  0
 14 15  1  0  0  0  0
 14 35  1  0  0  0  0
 15 17  1  0  0  0  0
 16 18  1  1  0  0  0
 16 25  1  0  0  0  0
 19 20  1  1  0  0  0
 19 27  1  0  0  0  0
 21 22  1  0  0  0  0
 21 23  1  0  0  0  0
 23 17  1  0  0  0  0
 25 26  1  6  0  0  0
 25 28  1  0  0  0  0
 27  2  1  6  0  0  0
 27 30  1  0  0  0  0
 28 29  1  0  0  0  0
 28 32  1  6  0  0  0
 30 31  1  6  0  0  0
 30 34  1  0  0  0  0
 32 33  2  0  0  0  0
 34 35  1  6  0  0  0
M  END
>  <CHROM.1>
4.91282546,29.73512339,136.64448176,-58.85917619,-46.83918962,67.59545742
-138.98601953,-143.50888111,-60.06284621,-169.80410062,-120.31739201,113.55581297
-53.80148643,11.19088749,-2.74030452,25.72571998,-1.40809185,0.71854596,2.04258972

>  <Name>
2f4t_lig

>  <RI>
0

>  <Rbt.Current_Directory>
/home/itssahil/PROJECTS/Mol_Feturizer/New_Systems/rnas/2f4t

>  <Rbt.Executable>
rbdock ($Id: //depot/dev/client3/rdock/2013.1/src/exe/rbdock.cxx#4 $)

>  <Rbt.Library>
libRbt.so (2013.1, Build901 2013/11/27)

>  <Rbt.Parameter_File>
/export/apps/rDock/src/rDock_2013.1_src/data/scripts/dock_solv.prm

>  <Rbt.Receptor>
prm/blind_docking_60.prm

>  <SCORE>
19.9906

>  <SCORE.INTER>
-0.727635

>  <SCORE.INTER.CONST>
1

>  <SCORE.INTER.POLAR>
0

>  <SCORE.INTER.ROT>
13

>  <SCORE.INTER.SOLV>
16.1563

>  <SCORE.INTER.VDW>
-18.1372

>  <SCORE.INTER.norm>
-0.0207896

>  <SCORE.INTRA>
17.4712

>  <SCORE.INTRA.DIHEDRAL>
1.48623

>  <SCORE.INTRA.DIHEDRAL.0>
23.8882

>  <SCORE.INTRA.POLAR>
0

>  <SCORE.INTRA.POLAR.0>
0

>  <SCORE.INTRA.REPUL>
0

>  <SCORE.INTRA.REPUL.0>
0

>  <SCORE.INTRA.SOLV>
15.4551

>  <SCORE.INTRA.SOLV.lig_0>
-97.6888

>  <SCORE.INTRA.VDW>
9.00056

>  <SCORE.INTRA.VDW.0>
-3.9206

>  <SCORE.INTRA.norm>
0.499178

>  <SCORE.RESTR>
3.24697

>  <SCORE.RESTR.CAVITY>
3.24697

>  <SCORE.RESTR.norm>
0.0927704

>  <SCORE.SYSTEM>
0

>  <SCORE.SYSTEM.CONST>
0

>  <SCORE.SYSTEM.DIHEDRAL>
0

>  <SCORE.SYSTEM.SOLV>
0

>  <SCORE.SYSTEM.norm>
0

>  <SCORE.heavy>
35

>  <SCORE.norm>
0.571159

>  <RMSD>
11.286

$$$$
2f4t_lig
 OpenBabel11021811433D
libRbt.so/2013.1/901 2013/11/27
 35 36  0  0  0  0  0  0  0  0999 V2000
    0.1923   -4.6579   25.5703 C   0  0  2  0  0  0  0  0  0  0  0  0
    0.4983   -4.1548   24.2285 O   0  0  0  0  0  0  0  0  0  0  0  0
   -1.5876   -7.0185   21.7576 C   0  0  2  0  0  0  0  0  0  0  0  0
   -2.1759   -7.6460   20.5647 N   0  0  0  0  0  0  0  0  0  0  0  0
    0.8636   -3.6605   26.5623 C   0  0  2  0  0  0  0  0  0  0  0  0
    0.3951   -2.3149   26.3271 N   0  0  0  0  0  0  0  0  0  0  0  0
   -2.0889   -5.5315   21.8624 C   0  0  0  0  0  0  0  0  0  0  0  0
   -1.5117   -6.8922   19.1123 C   0  0  0  0  0  0  0  0  0  0  0  0
   -2.3862   -7.8565   18.3419 C   0  0  1  0  0  0  0  0  0  0  0  0
   -3.7379   -7.1752   18.1171 C   0  0  0  0  0  0  0  0  0  0  0  0
   -3.6868   -5.8136   17.4040 C   0  0  0  0  0  0  0  0  0  0  0  0
   -5.0309   -5.2289   17.4261 N   0  0  0  0  0  0  0  0  0  0  0  0
   -1.8604   -8.0987   17.0631 O   0  0  0  0  0  0  0  0  0  0  0  0
    0.5640   -9.7177   21.8955 C   0  0  0  0  0  0  0  0  0  0  0  0
   -0.7846  -10.4087   21.7647 C   0  0  0  0  0  0  0  0  0  0  0  0
    2.4220   -3.7339   26.4266 C   0  0  1  0  0  0  0  0  0  0  0  0
   -1.0249  -10.9873   20.4246 N   0  0  0  0  0  0  0  0  0  0  0  0
    3.0514   -2.8387   27.3227 O   0  0  0  0  0  0  0  0  0  0  0  0
   -1.5006   -4.8140   23.0854 C   0  0  2  0  0  0  0  0  0  0  0  0
   -1.9476   -3.4257   23.1383 N   0  0  0  0  0  0  0  0  0  0  0  0
   -0.6118  -12.5958   18.5608 C   0  0  0  0  0  0  0  0  0  0  0  0
    0.3422  -11.6955   17.7116 N   0  0  0  0  0  0  0  0  0  0  0  0
   -0.5081  -12.3457   20.0945 C   0  0  0  0  0  0  0  0  0  0  0  0
   -0.8096   -6.1097   18.9286 O   0  0  0  0  0  0  0  0  0  0  0  0
    2.8559   -5.1764   26.7071 C   0  0  2  0  0  0  0  0  0  0  0  0
    4.2648   -5.3106   26.6127 O   0  0  0  0  0  0  0  0  0  0  0  0
    0.0067   -4.8450   23.0394 C   0  0  2  0  0  0  0  0  0  0  0  0
    2.1527   -6.1446   25.7125 C   0  0  2  0  0  0  0  0  0  0  0  0
    0.7174   -6.0241   25.7968 O   0  0  0  0  0  0  0  0  0  0  0  0
    0.5216   -6.3464   22.9650 C   0  0  2  0  0  0  0  0  0  0  0  0
    1.9803   -6.3375   22.9282 O   0  0  0  0  0  0  0  0  0  0  0  0
    2.5190   -7.5588   25.9633 C   0  0  0  0  0  0  0  0  0  0  0  0
    1.5828   -8.1335   26.7501 N   0  0  0  0  0  0  0  0  0  0  0  0
   -0.0536   -7.0154   21.6685 C   0  0  1  0  0  0  0  0  0  0  0  0
    0.4031   -8.3258   21.5593 O   0  0  0  0  0  0  0  0  0  0  0  0
  1  2  1  6  0  0  0
  1  5  1  0  0  0  0
  1 29  1  0  0  0  0
  3  4  1  6  0  0  0
  3  7  1  0  0  0  0
  3 34  1  0  0  0  0
  5  6  1  6  0  0  0
  5 16  1  0  0  0  0
  7 19  1  0  0  0  0
  8  4  1  0  0  0  0
  8 24  2  0  0  0  0
  9  8  1  1  0  0  0
  9 10  1  0  0  0  0
  9 13  1  0  0  0  0
 10 11  1  0  0  0  0
 11 12  1  0  0  0  0
 14 15  1  0  0  0  0
 14 35  1  0  0  0  0
 15 17  1  0  0  0  0
 16 18  1  1  0  0  0
 16 25  1  0  0  0  0
 19 20  1  6  0  0  0
 19 27  1  0  0  0  0
 21 22  1  0  0  0  0
 21 23  1  0  0  0  0
 23 17  1  0  0  0  0
 25 26  1  6  0  0  0
 25 28  1  0  0  0  0
 27  2  1  1  0  0  0
 27 30  1  0  0  0  0
 28 29  1  0  0  0  0
 28 32  1  1  0  0  0
 30 31  1  6  0  0  0
 30 34  1  0  0  0  0
 32 33  2  0  0  0  0
 34 35  1  1  0  0  0
M  END
>  <CHROM.1>
-179.30716359,67.58039677,89.99349406,56.20902368,-172.79431746,91.35365434
64.35126173,84.61339393,67.43276788,-167.65796307,61.97581557,95.31853496
-53.36440950,-0.14289693,-6.73817270,22.37847141,0.89791484,-0.87371494,0.51386144

>  <Name>
2f4t_lig

>  <RI>
0

>  <Rbt.Current_Directory>
/home/itssahil/PROJECTS/Mol_Feturizer/New_Systems/rnas/2f4t

>  <Rbt.Executable>
rbdock ($Id: //depot/dev/client3/rdock/2013.1/src/exe/rbdock.cxx#4 $)

>  <Rbt.Library>
libRbt.so (2013.1, Build901 2013/11/27)

>  <Rbt.Parameter_File>
/export/apps/rDock/src/rDock_2013.1_src/data/scripts/dock_solv.prm

>  <Rbt.Receptor>
prm/pocket_docking_8.prm

>  <SCORE>
-13.2301

>  <SCORE.INTER>
-7.03344

>  <SCORE.INTER.CONST>
1

>  <SCORE.INTER.POLAR>
-0.656179

>  <SCORE.INTER.ROT>
13

>  <SCORE.INTER.SOLV>
19.9675

>  <SCORE.INTER.VDW>
-21.4242

>  <SCORE.INTER.norm>
-0.200955

>  <SCORE.INTRA>
-6.1987

>  <SCORE.INTRA.DIHEDRAL>
-16.6735

>  <SCORE.INTRA.DIHEDRAL.0>
23.8882

>  <SCORE.INTRA.POLAR>
0

>  <SCORE.INTRA.POLAR.0>
0

>  <SCORE.INTRA.REPUL>
0

>  <SCORE.INTRA.REPUL.0>
0

>  <SCORE.INTRA.SOLV>
3.14701

>  <SCORE.INTRA.SOLV.lig_0>
-97.6888

>  <SCORE.INTRA.VDW>
0.564559

>  <SCORE.INTRA.VDW.0>
-3.9206

>  <SCORE.INTRA.norm>
-0.177106

>  <SCORE.RESTR>
0.00207185

>  <SCORE.RESTR.CAVITY>
0.00207185

>  <SCORE.RESTR.norm>
5.91957e-05

>  <SCORE.SYSTEM>
0

>  <SCORE.SYSTEM.CONST>
0

>  <SCORE.SYSTEM.DIHEDRAL>
0

>  <SCORE.SYSTEM.SOLV>
0

>  <SCORE.SYSTEM.norm>
0

>  <SCORE.heavy>
35

>  <SCORE.norm>
-0.378002

>  <RMSD>
11.344

$$$$
2f4t_lig
 OpenBabel11021811433D
libRbt.so/2013.1/901 2013/11/27
 35 36  0  0  0  0  0  0  0  0999 V2000
    3.4655   -6.6227   26.3378 C   0  0  2  0  0  0  0  0  0  0  0  0
    2.3128   -5.8037   26.7221 O   0  0  0  0  0  0  0  0  0  0  0  0
   -0.9575   -4.3565   24.2997 C   0  0  2  0  0  0  0  0  0  0  0  0
   -1.7241   -3.5036   23.3790 N   0  0  0  0  0  0  0  0  0  0  0  0
    4.0952   -7.1242   27.6726 C   0  0  2  0  0  0  0  0  0  0  0  0
    3.1170   -7.8347   28.4623 N   0  0  0  0  0  0  0  0  0  0  0  0
   -0.3543   -3.4685   25.4490 C   0  0  0  0  0  0  0  0  0  0  0  0
   -3.3722   -4.1215   23.2351 C   0  0  0  0  0  0  0  0  0  0  0  0
   -3.6101   -2.9622   22.2930 C   0  0  1  0  0  0  0  0  0  0  0  0
   -3.1679   -3.4043   20.8962 C   0  0  0  0  0  0  0  0  0  0  0  0
   -3.0671   -2.2864   19.8449 C   0  0  0  0  0  0  0  0  0  0  0  0
   -2.8047   -2.9006   18.5400 N   0  0  0  0  0  0  0  0  0  0  0  0
   -4.9797   -2.6731   22.1890 O   0  0  0  0  0  0  0  0  0  0  0  0
   -1.0742   -6.1471   21.3403 C   0  0  0  0  0  0  0  0  0  0  0  0
   -0.8470   -7.6111   20.9957 C   0  0  0  0  0  0  0  0  0  0  0  0
    4.6824   -5.9161   28.4776 C   0  0  1  0  0  0  0  0  0  0  0  0
   -1.6095   -8.0649   19.8120 N   0  0  0  0  0  0  0  0  0  0  0  0
    5.2635   -6.3507   29.6916 O   0  0  0  0  0  0  0  0  0  0  0  0
    0.4696   -4.2999   26.4422 C   0  0  2  0  0  0  0  0  0  0  0  0
    1.0519   -3.4488   27.4750 N   0  0  0  0  0  0  0  0  0  0  0  0
   -2.4715   -7.8176   17.4823 C   0  0  0  0  0  0  0  0  0  0  0  0
   -3.8406   -7.1910   17.9007 N   0  0  0  0  0  0  0  0  0  0  0  0
   -1.3089   -7.4964   18.4675 C   0  0  0  0  0  0  0  0  0  0  0  0
   -3.9014   -4.9488   23.6531 O   0  0  0  0  0  0  0  0  0  0  0  0
    5.7244   -5.2194   27.5965 C   0  0  2  0  0  0  0  0  0  0  0  0
    6.3074   -4.1178   28.2735 O   0  0  0  0  0  0  0  0  0  0  0  0
    1.5765   -5.0318   25.7251 C   0  0  2  0  0  0  0  0  0  0  0  0
    5.0662   -4.7502   26.2669 C   0  0  2  0  0  0  0  0  0  0  0  0
    4.4700   -5.8591   25.5624 O   0  0  0  0  0  0  0  0  0  0  0  0
    0.9717   -5.9555   24.5823 C   0  0  2  0  0  0  0  0  0  0  0  0
    2.0680   -6.6506   23.9160 O   0  0  0  0  0  0  0  0  0  0  0  0
    6.0436   -4.0944   25.3660 C   0  0  0  0  0  0  0  0  0  0  0  0
    5.7701   -2.7734   25.2905 N   0  0  0  0  0  0  0  0  0  0  0  0
    0.1950   -5.0542   23.5607 C   0  0  1  0  0  0  0  0  0  0  0  0
   -0.3242   -5.8321   22.5296 O   0  0  0  0  0  0  0  0  0  0  0  0
  1  2  1  1  0  0  0
  1  5  1  0  0  0  0
  1 29  1  0  0  0  0
  3  4  1  6  0  0  0
  3  7  1  0  0  0  0
  3 34  1  0  0  0  0
  5  6  1  1  0  0  0
  5 16  1  0  0  0  0
  7 19  1  0  0  0  0
  8  4  1  0  0  0  0
  8 24  2  0  0  0  0
  9  8  1  1  0  0  0
  9 10  1  0  0  0  0
  9 13  1  0  0  0  0
 10 11  1  0  0  0  0
 11 12  1  0  0  0  0
 14 15  1  0  0  0  0
 14 35  1  0  0  0  0
 15 17  1  0  0  0  0
 16 18  1  1  0  0  0
 16 25  1  0  0  0  0
 19 20  1  1  0  0  0
 19 27  1  0  0  0  0
 21 22  1  0  0  0  0
 21 23  1  0  0  0  0
 23 17  1  0  0  0  0
 25 26  1  1  0  0  0
 25 28  1  0  0  0  0
 27  2  1  1  0  0  0
 27 30  1  0  0  0  0
 28 29  1  0  0  0  0
 28 32  1  6  0  0  0
 30 31  1  6  0  0  0
 30 34  1  0  0  0  0
 32 33  2  0  0  0  0
 34 35  1  6  0  0  0
M  END
>  <CHROM.1>
172.37133139,-124.56337899,85.60057917,-168.42494929,-172.78611596,177.95619360
177.18277678,65.20609458,62.11187398,-164.30496161,-179.52536371,-110.32206182
55.33919332,0.66381497,-5.20031375,23.99568722,-0.53212536,0.57712692,-2.27787088

>  <Name>
2f4t_lig

>  <RI>
0

>  <Rbt.Current_Directory>
/home/itssahil/PROJECTS/Mol_Feturizer/New_Systems/rnas/2f4t

>  <Rbt.Executable>
rbdock ($Id: //depot/dev/client3/rdock/2013.1/src/exe/rbdock.cxx#4 $)

>  <Rbt.Library>
libRbt.so (2013.1, Build901 2013/11/27)

>  <Rbt.Parameter_File>
/export/apps/rDock/src/rDock_2013.1_src/data/scripts/dock_solv.prm

>  <Rbt.Receptor>
prm/pocket_docking_7.prm

>  <SCORE>
-24.0128

>  <SCORE.INTER>
-14.1801

>  <SCORE.INTER.CONST>
1

>  <SCORE.INTER.POLAR>
-1.06477

>  <SCORE.INTER.ROT>
13

>  <SCORE.INTER.SOLV>
12.9301

>  <SCORE.INTER.VDW>
-22.4809

>  <SCORE.INTER.norm>
-0.405146

>  <SCORE.INTRA>
-9.83265

>  <SCORE.INTRA.DIHEDRAL>
-19.1036

>  <SCORE.INTRA.DIHEDRAL.0>
23.8882

>  <SCORE.INTRA.POLAR>
0

>  <SCORE.INTRA.POLAR.0>
0

>  <SCORE.INTRA.REPUL>
0

>  <SCORE.INTRA.REPUL.0>
0

>  <SCORE.INTRA.SOLV>
-0.0264888

>  <SCORE.INTRA.SOLV.lig_0>
-97.6888

>  <SCORE.INTRA.VDW>
-0.267599

>  <SCORE.INTRA.VDW.0>
-3.9206

>  <SCORE.INTRA.norm>
-0.280933

>  <SCORE.RESTR>
0

>  <SCORE.RESTR.CAVITY>
0

>  <SCORE.RESTR.norm>
0

>  <SCORE.SYSTEM>
0

>  <SCORE.SYSTEM.CONST>
0

>  <SCORE.SYSTEM.DIHEDRAL>
0

>  <SCORE.SYSTEM.SOLV>
0

>  <SCORE.SYSTEM.norm>
0

>  <SCORE.heavy>
35

>  <SCORE.norm>
-0.686079

>  <RMSD>
11.348

$$$$
2f4t_lig
 OpenBabel11021811433D
libRbt.so/2013.1/901 2013/11/27
 35 36  0  0  0  0  0  0  0  0999 V2000
    2.5078   -5.0127   26.1725 C   0  0  2  0  0  0  0  0  0  0  0  0
    1.6145   -4.3063   25.2504 O   0  0  0  0  0  0  0  0  0  0  0  0
   -0.8734   -5.5620   21.9504 C   0  0  2  0  0  0  0  0  0  0  0  0
   -1.8166   -6.3646   21.1574 N   0  0  0  0  0  0  0  0  0  0  0  0
    2.2640   -4.3749   27.5737 C   0  0  2  0  0  0  0  0  0  0  0  0
    0.8691   -4.4619   27.9375 N   0  0  0  0  0  0  0  0  0  0  0  0
    0.2717   -6.4932   22.4934 C   0  0  0  0  0  0  0  0  0  0  0  0
   -2.0898   -5.5843   19.5968 C   0  0  0  0  0  0  0  0  0  0  0  0
   -3.0094   -6.7474   19.2971 C   0  0  1  0  0  0  0  0  0  0  0  0
   -4.3477   -6.1695   18.8311 C   0  0  0  0  0  0  0  0  0  0  0  0
   -5.5655   -7.0942   18.9956 C   0  0  0  0  0  0  0  0  0  0  0  0
   -5.8575   -7.2248   20.4262 N   0  0  0  0  0  0  0  0  0  0  0  0
   -2.5234   -7.5072   18.2217 O   0  0  0  0  0  0  0  0  0  0  0  0
   -3.7536   -3.2159   22.7387 C   0  0  0  0  0  0  0  0  0  0  0  0
   -4.2925   -3.0230   21.3295 C   0  0  0  0  0  0  0  0  0  0  0  0
    2.7433   -2.8841   27.5770 C   0  0  1  0  0  0  0  0  0  0  0  0
   -3.3606   -2.3036   20.4335 N   0  0  0  0  0  0  0  0  0  0  0  0
    2.5349   -2.2876   28.8424 O   0  0  0  0  0  0  0  0  0  0  0  0
    1.2878   -5.7158   23.3416 C   0  0  2  0  0  0  0  0  0  0  0  0
    2.3167   -6.6076   23.8671 N   0  0  0  0  0  0  0  0  0  0  0  0
   -4.4075   -0.1711   19.6668 C   0  0  0  0  0  0  0  0  0  0  0  0
   -5.8323   -0.4316   20.2533 N   0  0  0  0  0  0  0  0  0  0  0  0
   -3.2604   -0.8180   20.4981 C   0  0  0  0  0  0  0  0  0  0  0  0
   -1.7340   -4.6912   19.1333 O   0  0  0  0  0  0  0  0  0  0  0  0
    4.2295   -2.8620   27.2052 C   0  0  2  0  0  0  0  0  0  0  0  0
    4.7327   -1.5359   27.2019 O   0  0  0  0  0  0  0  0  0  0  0  0
    0.5966   -5.0285   24.4927 C   0  0  2  0  0  0  0  0  0  0  0  0
    4.4376   -3.5227   25.8119 C   0  0  2  0  0  0  0  0  0  0  0  0
    3.9339   -4.8747   25.7974 O   0  0  0  0  0  0  0  0  0  0  0  0
   -0.5415   -4.0617   23.9497 C   0  0  2  0  0  0  0  0  0  0  0  0
   -1.1826   -3.4114   25.0878 O   0  0  0  0  0  0  0  0  0  0  0  0
    5.8668   -3.5516   25.4201 C   0  0  0  0  0  0  0  0  0  0  0  0
    6.1250   -4.6923   24.7435 N   0  0  0  0  0  0  0  0  0  0  0  0
   -1.5864   -4.9109   23.1457 C   0  0  1  0  0  0  0  0  0  0  0  0
   -2.6136   -4.0952   22.6796 O   0  0  0  0  0  0  0  0  0  0  0  0
  1  2  1  6  0  0  0
  1  5  1  0  0  0  0
  1 29  1  0  0  0  0
  3  4  1  1  0  0  0
  3  7  1  0  0  0  0
  3 34  1  0  0  0  0
  5  6  1  6  0  0  0
  5 16  1  0  0  0  0
  7 19  1  0  0  0  0
  8  4  1  0  0  0  0
  8 24  2  0  0  0  0
  9  8  1  6  0  0  0
  9 10  1  0  0  0  0
  9 13  1  0  0  0  0
 10 11  1  0  0  0  0
 11 12  1  0  0  0  0
 14 15  1  0  0  0  0
 14 35  1  0  0  0  0
 15 17  1  0  0  0  0
 16 18  1  1  0  0  0
 16 25  1  0  0  0  0
 19 20  1  1  0  0  0
 19 27  1  0  0  0  0
 21 22  1  0  0  0  0
 21 23  1  0  0  0  0
 23 17  1  0  0  0  0
 25 26  1  6  0  0  0
 25 28  1  0  0  0  0
 27  2  1  6  0  0  0
 27 30  1  0  0  0  0
 28 29  1  0  0  0  0
 28 32  1  1  0  0  0
 30 31  1  1  0  0  0
 30 34  1  0  0  0  0
 32 33  2  0  0  0  0
 34 35  1  6  0  0  0
M  END
>  <CHROM.1>
-120.55195665,-129.76157829,128.53500571,-157.13716654,69.94968061,-65.93706641
-170.93909826,-80.00382518,66.11575826,-82.25515001,-77.74283874,144.04484436
175.21768497,-0.35954524,-4.31380801,23.18045563,-0.43683715,0.60482041,-2.59609525

>  <Name>
2f4t_lig

>  <RI>
0

>  <Rbt.Current_Directory>
/home/itssahil/PROJECTS/Mol_Feturizer/New_Systems/rnas/2f4t

>  <Rbt.Executable>
rbdock ($Id: //depot/dev/client3/rdock/2013.1/src/exe/rbdock.cxx#4 $)

>  <Rbt.Library>
libRbt.so (2013.1, Build901 2013/11/27)

>  <Rbt.Parameter_File>
/export/apps/rDock/src/rDock_2013.1_src/data/scripts/dock_solv.prm

>  <Rbt.Receptor>
prm/pocket_docking_8.prm

>  <SCORE>
-19.4364

>  <SCORE.INTER>
-18.6429

>  <SCORE.INTER.CONST>
1

>  <SCORE.INTER.POLAR>
-3.13852

>  <SCORE.INTER.ROT>
13

>  <SCORE.INTER.SOLV>
17.8669

>  <SCORE.INTER.VDW>
-20.1891

>  <SCORE.INTER.norm>
-0.532653

>  <SCORE.INTRA>
-0.793549

>  <SCORE.INTRA.DIHEDRAL>
-7.20285

>  <SCORE.INTRA.DIHEDRAL.0>
23.8882

>  <SCORE.INTRA.POLAR>
0

>  <SCORE.INTRA.POLAR.0>
0

>  <SCORE.INTRA.REPUL>
0

>  <SCORE.INTRA.REPUL.0>
0

>  <SCORE.INTRA.SOLV>
6.20387

>  <SCORE.INTRA.SOLV.lig_0>
-97.6888

>  <SCORE.INTRA.VDW>
-0.294062

>  <SCORE.INTRA.VDW.0>
-3.9206

>  <SCORE.INTRA.norm>
-0.0226728

>  <SCORE.RESTR>
0

>  <SCORE.RESTR.CAVITY>
0

>  <SCORE.RESTR.norm>
0

>  <SCORE.SYSTEM>
0

>  <SCORE.SYSTEM.CONST>
0

>  <SCORE.SYSTEM.DIHEDRAL>
0

>  <SCORE.SYSTEM.SOLV>
0

>  <SCORE.SYSTEM.norm>
0

>  <SCORE.heavy>
35

>  <SCORE.norm>
-0.555326

>  <RMSD>
11.502

$$$$
2f4t_lig
 OpenBabel11021811433D
libRbt.so/2013.1/901 2013/11/27
 35 36  0  0  0  0  0  0  0  0999 V2000
   14.1699   -0.3810   24.4436 C   0  0  2  0  0  0  0  0  0  0  0  0
   13.1185   -0.1316   25.4333 O   0  0  0  0  0  0  0  0  0  0  0  0
   12.3571   -4.0902   26.9850 C   0  0  2  0  0  0  0  0  0  0  0  0
   11.9958   -5.1598   27.9274 N   0  0  0  0  0  0  0  0  0  0  0  0
   13.9884    0.7104   23.3456 C   0  0  2  0  0  0  0  0  0  0  0  0
   14.0410    2.0314   23.9266 N   0  0  0  0  0  0  0  0  0  0  0  0
   13.4451   -3.1645   27.6430 C   0  0  0  0  0  0  0  0  0  0  0  0
   11.1615   -4.4636   29.3196 C   0  0  0  0  0  0  0  0  0  0  0  0
   11.0626   -5.8826   29.8343 C   0  0  1  0  0  0  0  0  0  0  0  0
   10.8385   -5.8105   31.3464 C   0  0  0  0  0  0  0  0  0  0  0  0
    9.4576   -5.3005   31.7913 C   0  0  0  0  0  0  0  0  0  0  0  0
    9.4202   -3.8465   31.6079 N   0  0  0  0  0  0  0  0  0  0  0  0
    9.9331   -6.5293   29.3087 O   0  0  0  0  0  0  0  0  0  0  0  0
    9.4804   -4.8212   25.0554 C   0  0  0  0  0  0  0  0  0  0  0  0
   10.5237   -5.3745   24.0968 C   0  0  0  0  0  0  0  0  0  0  0  0
   12.6341    0.4932   22.5900 C   0  0  1  0  0  0  0  0  0  0  0  0
    9.9644   -5.7969   22.7940 N   0  0  0  0  0  0  0  0  0  0  0  0
   12.4520    1.4716   21.5850 O   0  0  0  0  0  0  0  0  0  0  0  0
   13.8595   -2.0170   26.7114 C   0  0  2  0  0  0  0  0  0  0  0  0
   14.8386   -1.1496   27.3589 N   0  0  0  0  0  0  0  0  0  0  0  0
    8.9152   -3.6822   21.9822 C   0  0  0  0  0  0  0  0  0  0  0  0
    7.7762   -2.7582   22.5214 N   0  0  0  0  0  0  0  0  0  0  0  0
    8.6970   -5.1923   22.2945 C   0  0  0  0  0  0  0  0  0  0  0  0
   10.8828   -3.4747   29.6084 O   0  0  0  0  0  0  0  0  0  0  0  0
   12.6496   -0.9129   21.9815 C   0  0  2  0  0  0  0  0  0  0  0  0
   11.4509   -1.1712   21.2686 O   0  0  0  0  0  0  0  0  0  0  0  0
   12.6564   -1.1959   26.3198 C   0  0  2  0  0  0  0  0  0  0  0  0
   12.8515   -1.9734   23.1020 C   0  0  2  0  0  0  0  0  0  0  0  0
   14.0688   -1.7282   23.8365 O   0  0  0  0  0  0  0  0  0  0  0  0
   11.5654   -2.1193   25.6258 C   0  0  2  0  0  0  0  0  0  0  0  0
   10.4216   -1.2921   25.2562 O   0  0  0  0  0  0  0  0  0  0  0  0
   12.9028   -3.3513   22.5581 C   0  0  0  0  0  0  0  0  0  0  0  0
   11.7379   -3.6323   21.9338 N   0  0  0  0  0  0  0  0  0  0  0  0
   11.1286   -3.2351   26.6375 C   0  0  1  0  0  0  0  0  0  0  0  0
   10.1506   -4.0457   26.0681 O   0  0  0  0  0  0  0  0  0  0  0  0
  1  2  1  1  0  0  0
  1  5  1  0  0  0  0
  1 29  1  0  0  0  0
  3  4  1  1  0  0  0
  3  7  1  0  0  0  0
  3 34  1  0  0  0  0
  5  6  1  1  0  0  0
  5 16  1  0  0  0  0
  7 19  1  0  0  0  0
  8  4  1  0  0  0  0
  8 24  2  0  0  0  0
  9  8  1  6  0  0  0
  9 10  1  0  0  0  0
  9 13  1  0  0  0  0
 10 11  1  0  0  0  0
 11 12  1  0  0  0  0
 14 15  1  0  0  0  0
 14 35  1  0  0  0  0
 15 17  1  0  0  0  0
 16 18  1  6  0  0  0
 16 25  1  0  0  0  0
 19 20  1  1  0  0  0
 19 27  1  0  0  0  0
 21 22  1  0  0  0  0
 21 23  1  0  0  0  0
 23 17  1  0  0  0  0
 25 26  1  1  0  0  0
 25 28  1  0  0  0  0
 27  2  1  6  0  0  0
 27 30  1  0  0  0  0
 28 29  1  0  0  0  0
 28 32  1  6  0  0  0
 30 31  1  1  0  0  0
 30 34  1  0  0  0  0
 32 33  2  0  0  0  0
 34 35  1  6  0  0  0
M  END
>  <CHROM.1>
157.17551703,67.14942227,159.01530401,70.67102827,-75.80453899,-160.88706692
29.17559760,24.89413915,-134.83557775,66.51599783,38.02434263,-60.74430700
-77.70544094,11.59173828,-2.81870885,25.53536850,-1.23189493,0.83392265,1.85925369

>  <Name>
2f4t_lig

>  <RI>
0

>  <Rbt.Current_Directory>
/home/itssahil/PROJECTS/Mol_Feturizer/New_Systems/rnas/2f4t

>  <Rbt.Executable>
rbdock ($Id: //depot/dev/client3/rdock/2013.1/src/exe/rbdock.cxx#4 $)

>  <Rbt.Library>
libRbt.so (2013.1, Build901 2013/11/27)

>  <Rbt.Parameter_File>
/export/apps/rDock/src/rDock_2013.1_src/data/scripts/dock_solv.prm

>  <Rbt.Receptor>
prm/blind_docking_60.prm

>  <SCORE>
10.7044

>  <SCORE.INTER>
2.07857

>  <SCORE.INTER.CONST>
1

>  <SCORE.INTER.POLAR>
0

>  <SCORE.INTER.ROT>
13

>  <SCORE.INTER.SOLV>
18.0978

>  <SCORE.INTER.VDW>
-16.9136

>  <SCORE.INTER.norm>
0.0593877

>  <SCORE.INTRA>
6.26253

>  <SCORE.INTRA.DIHEDRAL>
-3.04928

>  <SCORE.INTRA.DIHEDRAL.0>
23.8882

>  <SCORE.INTRA.POLAR>
0

>  <SCORE.INTRA.POLAR.0>
0

>  <SCORE.INTRA.REPUL>
0

>  <SCORE.INTRA.REPUL.0>
0

>  <SCORE.INTRA.SOLV>
8.12954

>  <SCORE.INTRA.SOLV.lig_0>
-97.6888

>  <SCORE.INTRA.VDW>
3.7224

>  <SCORE.INTRA.VDW.0>
-3.9206

>  <SCORE.INTRA.norm>
0.17893

>  <SCORE.RESTR>
2.36333

>  <SCORE.RESTR.CAVITY>
2.36333

>  <SCORE.RESTR.norm>
0.0675237

>  <SCORE.SYSTEM>
0

>  <SCORE.SYSTEM.CONST>
0

>  <SCORE.SYSTEM.DIHEDRAL>
0

>  <SCORE.SYSTEM.SOLV>
0

>  <SCORE.SYSTEM.norm>
0

>  <SCORE.heavy>
35

>  <SCORE.norm>
0.305841

>  <RMSD>
11.541

$$$$
2f4t_lig
 OpenBabel11021811433D
libRbt.so/2013.1/901 2013/11/27
 35 36  0  0  0  0  0  0  0  0999 V2000
   13.4823   -1.5410   23.4362 C   0  0  2  0  0  0  0  0  0  0  0  0
   13.1487   -0.8165   24.6654 O   0  0  0  0  0  0  0  0  0  0  0  0
   12.3481   -3.7992   27.6854 C   0  0  2  0  0  0  0  0  0  0  0  0
   11.7849   -4.4340   28.8865 N   0  0  0  0  0  0  0  0  0  0  0  0
   14.4903   -0.6339   22.6677 C   0  0  2  0  0  0  0  0  0  0  0  0
   15.6369   -0.3335   23.4926 N   0  0  0  0  0  0  0  0  0  0  0  0
   12.9642   -2.4057   28.0754 C   0  0  0  0  0  0  0  0  0  0  0  0
   11.4827   -6.1439   28.5644 C   0  0  0  0  0  0  0  0  0  0  0  0
   10.9890   -6.2152   29.9925 C   0  0  1  0  0  0  0  0  0  0  0  0
    9.5540   -5.6838   30.0119 C   0  0  0  0  0  0  0  0  0  0  0  0
    9.3941   -4.2142   30.4359 C   0  0  0  0  0  0  0  0  0  0  0  0
    9.7850   -4.0936   31.8437 N   0  0  0  0  0  0  0  0  0  0  0  0
   10.9118   -7.5465   30.4308 O   0  0  0  0  0  0  0  0  0  0  0  0
   10.0393   -5.7885   25.4625 C   0  0  0  0  0  0  0  0  0  0  0  0
    8.9867   -5.0952   24.6111 C   0  0  0  0  0  0  0  0  0  0  0  0
   13.7829    0.6843   22.2048 C   0  0  1  0  0  0  0  0  0  0  0  0
    9.0293   -5.4854   23.1847 N   0  0  0  0  0  0  0  0  0  0  0  0
   14.6801    1.5205   21.5004 O   0  0  0  0  0  0  0  0  0  0  0  0
   13.5617   -1.6837   26.8596 C   0  0  2  0  0  0  0  0  0  0  0  0
   14.0901   -0.3771   27.2390 N   0  0  0  0  0  0  0  0  0  0  0  0
    7.9974   -3.3152   22.5087 C   0  0  0  0  0  0  0  0  0  0  0  0
    7.9014   -2.1684   21.4516 N   0  0  0  0  0  0  0  0  0  0  0  0
    9.0044   -4.4390   22.1236 C   0  0  0  0  0  0  0  0  0  0  0  0
   11.6125   -6.7812   27.7182 O   0  0  0  0  0  0  0  0  0  0  0  0
   12.5926    0.2993   21.3201 C   0  0  2  0  0  0  0  0  0  0  0  0
   11.9117    1.4530   20.8542 O   0  0  0  0  0  0  0  0  0  0  0  0
   12.5149   -1.5000   25.7894 C   0  0  2  0  0  0  0  0  0  0  0  0
   11.6187   -0.6203   22.1121 C   0  0  2  0  0  0  0  0  0  0  0  0
   12.2939   -1.8017   22.5917 O   0  0  0  0  0  0  0  0  0  0  0  0
   11.9098   -2.9075   25.3678 C   0  0  2  0  0  0  0  0  0  0  0  0
   10.9077   -2.6917   24.3294 O   0  0  0  0  0  0  0  0  0  0  0  0
   10.4627   -1.0444   21.2870 C   0  0  0  0  0  0  0  0  0  0  0  0
   10.6279   -2.3308   20.9084 N   0  0  0  0  0  0  0  0  0  0  0  0
   11.2565   -3.5756   26.6272 C   0  0  1  0  0  0  0  0  0  0  0  0
   10.6912   -4.8005   26.2841 O   0  0  0  0  0  0  0  0  0  0  0  0
  1  2  1  1  0  0  0
  1  5  1  0  0  0  0
  1 29  1  0  0  0  0
  3  4  1  1  0  0  0
  3  7  1  0  0  0  0
  3 34  1  0  0  0  0
  5  6  1  1  0  0  0
  5 16  1  0  0  0  0
  7 19  1  0  0  0  0
  8  4  1  0  0  0  0
  8 24  2  0  0  0  0
  9  8  1  6  0  0  0
  9 10  1  0  0  0  0
  9 13  1  0  0  0  0
 10 11  1  0  0  0  0
 11 12  1  0  0  0  0
 14 15  1  0  0  0  0
 14 35  1  0  0  0  0
 15 17  1  0  0  0  0
 16 18  1  6  0  0  0
 16 25  1  0  0  0  0
 19 20  1  1  0  0  0
 19 27  1  0  0  0  0
 21 22  1  0  0  0  0
 21 23  1  0  0  0  0
 23 17  1  0  0  0  0
 25 26  1  1  0  0  0
 25 28  1  0  0  0  0
 27  2  1  6  0  0  0
 27 30  1  0  0  0  0
 28 29  1  0  0  0  0
 28 32  1  6  0  0  0
 30 31  1  6  0  0  0
 30 34  1  0  0  0  0
 32 33  2  0  0  0  0
 34 35  1  6  0  0  0
M  END
>  <CHROM.1>
-163.69642285,-165.11112986,80.50808675,-97.93262962,-66.14288411,132.76874776
-38.02688248,-131.90964172,-179.98343505,-40.53341755,105.74964289,104.50360396
-150.90357772,11.52118971,-2.87101835,25.20263676,-1.30680485,0.68544246
2.01761329

>  <Name>
2f4t_lig

>  <RI>
0

>  <Rbt.Current_Directory>
/home/itssahil/PROJECTS/Mol_Feturizer/New_Systems/rnas/2f4t

>  <Rbt.Executable>
rbdock ($Id: //depot/dev/client3/rdock/2013.1/src/exe/rbdock.cxx#4 $)

>  <Rbt.Library>
libRbt.so (2013.1, Build901 2013/11/27)

>  <Rbt.Parameter_File>
/export/apps/rDock/src/rDock_2013.1_src/data/scripts/dock_solv.prm

>  <Rbt.Receptor>
prm/blind_docking_60.prm

>  <SCORE>
13.5198

>  <SCORE.INTER>
3.39851

>  <SCORE.INTER.CONST>
1

>  <SCORE.INTER.POLAR>
-0.329471

>  <SCORE.INTER.ROT>
13

>  <SCORE.INTER.SOLV>
19.4726

>  <SCORE.INTER.VDW>
-15.3936

>  <SCORE.INTER.norm>
0.0971002

>  <SCORE.INTRA>
7.89731

>  <SCORE.INTRA.DIHEDRAL>
1.60267

>  <SCORE.INTRA.DIHEDRAL.0>
23.8882

>  <SCORE.INTRA.POLAR>
0

>  <SCORE.INTRA.POLAR.0>
0

>  <SCORE.INTRA.REPUL>
0

>  <SCORE.INTRA.REPUL.0>
0

>  <SCORE.INTRA.SOLV>
6.81892

>  <SCORE.INTRA.SOLV.lig_0>
-97.6888

>  <SCORE.INTRA.VDW>
3.68651

>  <SCORE.INTRA.VDW.0>
-3.9206

>  <SCORE.INTRA.norm>
0.225637

>  <SCORE.RESTR>
2.22394

>  <SCORE.RESTR.CAVITY>
2.22394

>  <SCORE.RESTR.norm>
0.0635412

>  <SCORE.SYSTEM>
0

>  <SCORE.SYSTEM.CONST>
0

>  <SCORE.SYSTEM.DIHEDRAL>
0

>  <SCORE.SYSTEM.SOLV>
0

>  <SCORE.SYSTEM.norm>
0

>  <SCORE.heavy>
35

>  <SCORE.norm>
0.386279

>  <RMSD>
11.553

$$$$
2f4t_lig
 OpenBabel11021811433D
libRbt.so/2013.1/901 2013/11/27
 35 36  0  0  0  0  0  0  0  0999 V2000
   12.4967   -2.1093   22.4301 C   0  0  2  0  0  0  0  0  0  0  0  0
   12.5522   -1.6350   23.8155 O   0  0  0  0  0  0  0  0  0  0  0  0
   11.3759   -3.2377   27.6502 C   0  0  2  0  0  0  0  0  0  0  0  0
   11.1335   -4.2098   28.7267 N   0  0  0  0  0  0  0  0  0  0  0  0
   13.9770   -2.3381   21.9989 C   0  0  2  0  0  0  0  0  0  0  0  0
   14.6341   -3.2559   22.8997 N   0  0  0  0  0  0  0  0  0  0  0  0
   10.7080   -3.7552   26.3236 C   0  0  0  0  0  0  0  0  0  0  0  0
   11.5626   -5.8293   28.1682 C   0  0  0  0  0  0  0  0  0  0  0  0
   11.1522   -6.2971   29.5469 C   0  0  1  0  0  0  0  0  0  0  0  0
   10.6445   -5.0757   30.3166 C   0  0  0  0  0  0  0  0  0  0  0  0
   10.1572   -5.3473   31.7498 C   0  0  0  0  0  0  0  0  0  0  0  0
    9.4200   -4.1702   32.2187 N   0  0  0  0  0  0  0  0  0  0  0  0
   10.0666   -7.1838   29.4734 O   0  0  0  0  0  0  0  0  0  0  0  0
   13.8475   -1.7098   29.6367 C   0  0  0  0  0  0  0  0  0  0  0  0
   12.5794   -1.0612   30.1700 C   0  0  0  0  0  0  0  0  0  0  0  0
   14.7402   -0.9716   21.9494 C   0  0  1  0  0  0  0  0  0  0  0  0
   11.5473   -0.8404   29.1334 N   0  0  0  0  0  0  0  0  0  0  0  0
   16.0858   -1.1568   21.5551 O   0  0  0  0  0  0  0  0  0  0  0  0
   10.9342   -2.7875   25.1537 C   0  0  2  0  0  0  0  0  0  0  0  0
   10.3409   -3.3084   23.9262 N   0  0  0  0  0  0  0  0  0  0  0  0
   10.3358    0.4919   27.4046 C   0  0  0  0  0  0  0  0  0  0  0  0
   10.3226    1.7479   26.4749 N   0  0  0  0  0  0  0  0  0  0  0  0
   11.6641    0.3139   28.1977 C   0  0  0  0  0  0  0  0  0  0  0  0
   11.9384   -6.2313   27.2537 O   0  0  0  0  0  0  0  0  0  0  0  0
   14.0081   -0.0538   20.9650 C   0  0  2  0  0  0  0  0  0  0  0  0
   14.6578    1.2028   20.8626 O   0  0  0  0  0  0  0  0  0  0  0  0
   12.4094   -2.5650   24.9321 C   0  0  2  0  0  0  0  0  0  0  0  0
   12.5309    0.1364   21.4154 C   0  0  2  0  0  0  0  0  0  0  0  0
   11.8526   -1.1325   21.5221 O   0  0  0  0  0  0  0  0  0  0  0  0
   13.0855   -2.0122   26.2596 C   0  0  2  0  0  0  0  0  0  0  0  0
   14.5073   -1.8038   26.0065 O   0  0  0  0  0  0  0  0  0  0  0  0
   11.7714    0.9955   20.4763 C   0  0  0  0  0  0  0  0  0  0  0  0
   12.4812    1.1547   19.3376 N   0  0  0  0  0  0  0  0  0  0  0  0
   12.8829   -3.0626   27.4063 C   0  0  1  0  0  0  0  0  0  0  0  0
   13.4897   -2.6195   28.5782 O   0  0  0  0  0  0  0  0  0  0  0  0
  1  2  1  1  0  0  0
  1  5  1  0  0  0  0
  1 29  1  0  0  0  0
  3  4  1  1  0  0  0
  3  7  1  0  0  0  0
  3 34  1  0  0  0  0
  5  6  1  1  0  0  0
  5 16  1  0  0  0  0
  7 19  1  0  0  0  0
  8  4  1  0  0  0  0
  8 24  2  0  0  0  0
  9  8  1  6  0  0  0
  9 10  1  0  0  0  0
  9 13  1  0  0  0  0
 10 11  1  0  0  0  0
 11 12  1  0  0  0  0
 14 15  1  0  0  0  0
 14 35  1  0  0  0  0
 15 17  1  0  0  0  0
 16 18  1  6  0  0  0
 16 25  1  0  0  0  0
 19 20  1  6  0  0  0
 19 27  1  0  0  0  0
 21 22  1  0  0  0  0
 21 23  1  0  0  0  0
 23 17  1  0  0  0  0
 25 26  1  1  0  0  0
 25 28  1  0  0  0  0
 27  2  1  6  0  0  0
 27 30  1  0  0  0  0
 28 29  1  0  0  0  0
 28 32  1  6  0  0  0
 30 31  1  6  0  0  0
 30 34  1  0  0  0  0
 32 33  2  0  0  0  0
 34 35  1  1  0  0  0
M  END
>  <CHROM.1>
-94.91872202,49.67375263,2.32132567,179.21926901,-166.56316314,-33.81616081
49.63124226,-78.71134687,175.54790034,-168.78595017,-82.92043420,12.79867995
-72.26977180,12.24836858,-2.27880833,25.82722202,-0.41227996,-1.29181064
-3.11395140

>  <Name>
2f4t_lig

>  <RI>
0

>  <Rbt.Current_Directory>
/home/itssahil/PROJECTS/Mol_Feturizer/New_Systems/rnas/2f4t

>  <Rbt.Executable>
rbdock ($Id: //depot/dev/client3/rdock/2013.1/src/exe/rbdock.cxx#4 $)

>  <Rbt.Library>
libRbt.so (2013.1, Build901 2013/11/27)

>  <Rbt.Parameter_File>
/export/apps/rDock/src/rDock_2013.1_src/data/scripts/dock_solv.prm

>  <Rbt.Receptor>
prm/blind_docking_60.prm

>  <SCORE>
16.9542

>  <SCORE.INTER>
0.353931

>  <SCORE.INTER.CONST>
1

>  <SCORE.INTER.POLAR>
0

>  <SCORE.INTER.ROT>
13

>  <SCORE.INTER.SOLV>
15.2784

>  <SCORE.INTER.VDW>
-17.1235

>  <SCORE.INTER.norm>
0.0101123

>  <SCORE.INTRA>
12.9563

>  <SCORE.INTRA.DIHEDRAL>
-9.1187

>  <SCORE.INTRA.DIHEDRAL.0>
23.8882

>  <SCORE.INTRA.POLAR>
0

>  <SCORE.INTRA.POLAR.0>
0

>  <SCORE.INTRA.REPUL>
0

>  <SCORE.INTRA.REPUL.0>
0

>  <SCORE.INTRA.SOLV>
5.35289

>  <SCORE.INTRA.SOLV.lig_0>
-97.6888

>  <SCORE.INTRA.VDW>
14.8392

>  <SCORE.INTRA.VDW.0>
-3.9206

>  <SCORE.INTRA.norm>
0.370179

>  <SCORE.RESTR>
3.64403

>  <SCORE.RESTR.CAVITY>
3.64403

>  <SCORE.RESTR.norm>
0.104115

>  <SCORE.SYSTEM>
0

>  <SCORE.SYSTEM.CONST>
0

>  <SCORE.SYSTEM.DIHEDRAL>
0

>  <SCORE.SYSTEM.SOLV>
0

>  <SCORE.SYSTEM.norm>
0

>  <SCORE.heavy>
35

>  <SCORE.norm>
0.484406

>  <RMSD>
11.588

$$$$
2f4t_lig
 OpenBabel11021811433D
libRbt.so/2013.1/901 2013/11/27
 35 36  0  0  0  0  0  0  0  0999 V2000
   14.3355   -0.1768   24.4677 C   0  0  2  0  0  0  0  0  0  0  0  0
   13.1698   -0.0050   25.3389 O   0  0  0  0  0  0  0  0  0  0  0  0
   12.6796   -4.0003   26.9054 C   0  0  2  0  0  0  0  0  0  0  0  0
   12.2550   -5.0962   27.7894 N   0  0  0  0  0  0  0  0  0  0  0  0
   14.1917    0.8976   23.3476 C   0  0  2  0  0  0  0  0  0  0  0  0
   14.0856    2.2193   23.9198 N   0  0  0  0  0  0  0  0  0  0  0  0
   13.3726   -2.8797   27.7642 C   0  0  0  0  0  0  0  0  0  0  0  0
   11.1310   -4.4755   29.0019 C   0  0  0  0  0  0  0  0  0  0  0  0
   11.0697   -5.8965   29.5169 C   0  0  1  0  0  0  0  0  0  0  0  0
   10.2473   -5.8846   30.8074 C   0  0  0  0  0  0  0  0  0  0  0  0
   10.9110   -5.1993   32.0136 C   0  0  0  0  0  0  0  0  0  0  0  0
   10.7609   -3.7490   31.8621 N   0  0  0  0  0  0  0  0  0  0  0  0
   10.3717   -6.7242   28.6237 O   0  0  0  0  0  0  0  0  0  0  0  0
   10.0558   -5.5532   25.1586 C   0  0  0  0  0  0  0  0  0  0  0  0
   10.1539   -5.8726   23.6747 C   0  0  0  0  0  0  0  0  0  0  0  0
   12.9444    0.5808   22.4552 C   0  0  1  0  0  0  0  0  0  0  0  0
   10.2488   -4.6714   22.8164 N   0  0  0  0  0  0  0  0  0  0  0  0
   12.7986    1.5425   21.4284 O   0  0  0  0  0  0  0  0  0  0  0  0
   13.8315   -1.6974   26.8993 C   0  0  2  0  0  0  0  0  0  0  0  0
   14.4339   -0.6539   27.7229 N   0  0  0  0  0  0  0  0  0  0  0  0
    7.8718   -3.9272   22.6512 C   0  0  0  0  0  0  0  0  0  0  0  0
    7.3054   -5.1133   23.4964 N   0  0  0  0  0  0  0  0  0  0  0  0
    9.3254   -3.5222   23.0361 C   0  0  0  0  0  0  0  0  0  0  0  0
   10.7193   -3.5153   29.2198 O   0  0  0  0  0  0  0  0  0  0  0  0
   13.1272   -0.8207   21.8635 C   0  0  2  0  0  0  0  0  0  0  0  0
   12.0328   -1.1670   21.0304 O   0  0  0  0  0  0  0  0  0  0  0  0
   12.6645   -1.1149   26.1418 C   0  0  2  0  0  0  0  0  0  0  0  0
   13.2866   -1.8628   23.0079 C   0  0  2  0  0  0  0  0  0  0  0  0
   14.3981   -1.5280   23.8647 O   0  0  0  0  0  0  0  0  0  0  0  0
   11.9782   -2.2347   25.2473 C   0  0  2  0  0  0  0  0  0  0  0  0
   10.8603   -1.6351   24.5264 O   0  0  0  0  0  0  0  0  0  0  0  0
   13.4959   -3.2335   22.4840 C   0  0  0  0  0  0  0  0  0  0  0  0
   12.4613   -3.5721   21.6836 N   0  0  0  0  0  0  0  0  0  0  0  0
   11.4707   -3.3880   26.1810 C   0  0  1  0  0  0  0  0  0  0  0  0
   10.8381   -4.3737   25.4286 O   0  0  0  0  0  0  0  0  0  0  0  0
  1  2  1  1  0  0  0
  1  5  1  0  0  0  0
  1 29  1  0  0  0  0
  3  4  1  1  0  0  0
  3  7  1  0  0  0  0
  3 34  1  0  0  0  0
  5  6  1  1  0  0  0
  5 16  1  0  0  0  0
  7 19  1  0  0  0  0
  8  4  1  0  0  0  0
  8 24  2  0  0  0  0
  9  8  1  6  0  0  0
  9 10  1  0  0  0  0
  9 13  1  0  0  0  0
 10 11  1  0  0  0  0
 11 12  1  0  0  0  0
 14 15  1  0  0  0  0
 14 35  1  0  0  0  0
 15 17  1  0  0  0  0
 16 18  1  6  0  0  0
 16 25  1  0  0  0  0
 19 20  1  1  0  0  0
 19 27  1  0  0  0  0
 21 22  1  0  0  0  0
 21 23  1  0  0  0  0
 23 17  1  0  0  0  0
 25 26  1  1  0  0  0
 25 28  1  0  0  0  0
 27  2  1  6  0  0  0
 27 30  1  0  0  0  0
 28 29  1  0  0  0  0
 28 32  1  6  0  0  0
 30 31  1  1  0  0  0
 30 34  1  0  0  0  0
 32 33  2  0  0  0  0
 34 35  1  6  0  0  0
M  END
>  <CHROM.1>
154.79228770,59.21327672,173.55901216,-69.59704634,79.14637417,-34.18043647
-171.61367934,-46.54141934,60.92404994,-68.46460712,50.81045587,-57.42787453
70.61399688,11.83201598,-2.80355500,25.45077364,-1.16646070,0.85285010,1.86331789

>  <Name>
2f4t_lig

>  <RI>
0

>  <Rbt.Current_Directory>
/home/itssahil/PROJECTS/Mol_Feturizer/New_Systems/rnas/2f4t

>  <Rbt.Executable>
rbdock ($Id: //depot/dev/client3/rdock/2013.1/src/exe/rbdock.cxx#4 $)

>  <Rbt.Library>
libRbt.so (2013.1, Build901 2013/11/27)

>  <Rbt.Parameter_File>
/export/apps/rDock/src/rDock_2013.1_src/data/scripts/dock_solv.prm

>  <Rbt.Receptor>
prm/blind_docking_60.prm

>  <SCORE>
1.77846

>  <SCORE.INTER>
-3.61713

>  <SCORE.INTER.CONST>
1

>  <SCORE.INTER.POLAR>
-0.979796

>  <SCORE.INTER.ROT>
13

>  <SCORE.INTER.SOLV>
22.2966

>  <SCORE.INTER.VDW>
-18.8443

>  <SCORE.INTER.norm>
-0.103347

>  <SCORE.INTRA>
2.94255

>  <SCORE.INTRA.DIHEDRAL>
-13.202

>  <SCORE.INTRA.DIHEDRAL.0>
23.8882

>  <SCORE.INTRA.POLAR>
0

>  <SCORE.INTRA.POLAR.0>
0

>  <SCORE.INTRA.REPUL>
0

>  <SCORE.INTRA.REPUL.0>
0

>  <SCORE.INTRA.SOLV>
10.5875

>  <SCORE.INTRA.SOLV.lig_0>
-97.6888

>  <SCORE.INTRA.VDW>
4.24979

>  <SCORE.INTRA.VDW.0>
-3.9206

>  <SCORE.INTRA.norm>
0.0840728

>  <SCORE.RESTR>
2.45305

>  <SCORE.RESTR.CAVITY>
2.45305

>  <SCORE.RESTR.norm>
0.0700871

>  <SCORE.SYSTEM>
0

>  <SCORE.SYSTEM.CONST>
0

>  <SCORE.SYSTEM.DIHEDRAL>
0

>  <SCORE.SYSTEM.SOLV>
0

>  <SCORE.SYSTEM.norm>
0

>  <SCORE.heavy>
35

>  <SCORE.norm>
0.0508133

>  <RMSD>
11.731

$$$$
2f4t_lig
 OpenBabel11021811433D
libRbt.so/2013.1/901 2013/11/27
 35 36  0  0  0  0  0  0  0  0999 V2000
   12.2540   -1.3901   22.9867 C   0  0  2  0  0  0  0  0  0  0  0  0
   13.1473   -1.8932   24.0336 O   0  0  0  0  0  0  0  0  0  0  0  0
   12.2099   -4.7335   27.1499 C   0  0  2  0  0  0  0  0  0  0  0  0
   11.7708   -5.2664   28.4483 N   0  0  0  0  0  0  0  0  0  0  0  0
   13.1582   -0.5815   22.0079 C   0  0  2  0  0  0  0  0  0  0  0  0
   14.2318   -1.4069   21.5063 N   0  0  0  0  0  0  0  0  0  0  0  0
   13.2778   -3.6035   27.3870 C   0  0  0  0  0  0  0  0  0  0  0  0
   11.0119   -3.9789   29.3892 C   0  0  0  0  0  0  0  0  0  0  0  0
   10.8008   -5.0299   30.4565 C   0  0  1  0  0  0  0  0  0  0  0  0
   10.1587   -4.3405   31.6625 C   0  0  0  0  0  0  0  0  0  0  0  0
   10.8789   -3.0800   32.1701 C   0  0  0  0  0  0  0  0  0  0  0  0
    9.9534   -2.3312   33.0256 N   0  0  0  0  0  0  0  0  0  0  0  0
    9.8783   -5.9986   30.0313 O   0  0  0  0  0  0  0  0  0  0  0  0
    8.8631   -5.7340   25.6633 C   0  0  0  0  0  0  0  0  0  0  0  0
    8.8630   -5.6082   24.1475 C   0  0  0  0  0  0  0  0  0  0  0  0
   13.7277    0.6882   22.7263 C   0  0  1  0  0  0  0  0  0  0  0  0
   10.0947   -6.1247   23.5114 N   0  0  0  0  0  0  0  0  0  0  0  0
   14.5482    1.4394   21.8528 O   0  0  0  0  0  0  0  0  0  0  0  0
   13.7710   -2.9959   26.0664 C   0  0  2  0  0  0  0  0  0  0  0  0
   14.7295   -1.9234   26.3136 N   0  0  0  0  0  0  0  0  0  0  0  0
    9.5303   -5.4983   21.1618 C   0  0  0  0  0  0  0  0  0  0  0  0
   10.0120   -4.9006   19.8007 N   0  0  0  0  0  0  0  0  0  0  0  0
   10.6210   -5.4831   22.2734 C   0  0  0  0  0  0  0  0  0  0  0  0
   10.8193   -2.9426   29.2220 O   0  0  0  0  0  0  0  0  0  0  0  0
   12.5435    1.5288   23.2149 C   0  0  2  0  0  0  0  0  0  0  0  0
   12.9911    2.7062   23.8671 O   0  0  0  0  0  0  0  0  0  0  0  0
   12.6111   -2.4471   25.2737 C   0  0  2  0  0  0  0  0  0  0  0  0
   11.6536    0.6852   24.1727 C   0  0  2  0  0  0  0  0  0  0  0  0
   11.1861   -0.5161   23.5246 O   0  0  0  0  0  0  0  0  0  0  0  0
   11.5422   -3.5914   25.0032 C   0  0  2  0  0  0  0  0  0  0  0  0
   10.4404   -3.0268   24.2310 O   0  0  0  0  0  0  0  0  0  0  0  0
   10.4758    1.4478   24.6503 C   0  0  0  0  0  0  0  0  0  0  0  0
    9.3453    0.7958   24.3001 N   0  0  0  0  0  0  0  0  0  0  0  0
   11.0228   -4.1347   26.3796 C   0  0  1  0  0  0  0  0  0  0  0  0
   10.0620   -5.1213   26.1764 O   0  0  0  0  0  0  0  0  0  0  0  0
  1  2  1  1  0  0  0
  1  5  1  0  0  0  0
  1 29  1  0  0  0  0
  3  4  1  1  0  0  0
  3  7  1  0  0  0  0
  3 34  1  0  0  0  0
  5  6  1  1  0  0  0
  5 16  1  0  0  0  0
  7 19  1  0  0  0  0
  8  4  1  0  0  0  0
  8 24  2  0  0  0  0
  9  8  1  6  0  0  0
  9 10  1  0  0  0  0
  9 13  1  0  0  0  0
 10 11  1  0  0  0  0
 11 12  1  0  0  0  0
 14 15  1  0  0  0  0
 14 35  1  0  0  0  0
 15 17  1  0  0  0  0
 16 18  1  6  0  0  0
 16 25  1  0  0  0  0
 19 20  1  1  0  0  0
 19 27  1  0  0  0  0
 21 22  1  0  0  0  0
 21 23  1  0  0  0  0
 23 17  1  0  0  0  0
 25 26  1  1  0  0  0
 25 28  1  0  0  0  0
 27  2  1  6  0  0  0
 27 30  1  0  0  0  0
 28 29  1  0  0  0  0
 28 32  1  6  0  0  0
 30 31  1  6  0  0  0
 30 34  1  0  0  0  0
 32 33  2  0  0  0  0
 34 35  1  6  0  0  0
M  END
>  <CHROM.1>
166.53803262,61.63101003,177.13842625,-51.71960061,163.05038026,53.31061653
53.63448169,-146.71377725,-177.47354686,-56.94610269,174.37291404,121.43464639
-172.33513719,11.48143750,-2.69079180,25.52866648,-1.01064441,1.14448302
1.54001763

>  <Name>
2f4t_lig

>  <RI>
0

>  <Rbt.Current_Directory>
/home/itssahil/PROJECTS/Mol_Feturizer/New_Systems/rnas/2f4t

>  <Rbt.Executable>
rbdock ($Id: //depot/dev/client3/rdock/2013.1/src/exe/rbdock.cxx#4 $)

>  <Rbt.Library>
libRbt.so (2013.1, Build901 2013/11/27)

>  <Rbt.Parameter_File>
/export/apps/rDock/src/rDock_2013.1_src/data/scripts/dock_solv.prm

>  <Rbt.Receptor>
prm/blind_docking_60.prm

>  <SCORE>
4.65522

>  <SCORE.INTER>
5.79495

>  <SCORE.INTER.CONST>
1

>  <SCORE.INTER.POLAR>
0

>  <SCORE.INTER.ROT>
13

>  <SCORE.INTER.SOLV>
17.055

>  <SCORE.INTER.VDW>
-14.0884

>  <SCORE.INTER.norm>
0.16557

>  <SCORE.INTRA>
-5.8129

>  <SCORE.INTRA.DIHEDRAL>
-18.6262

>  <SCORE.INTRA.DIHEDRAL.0>
23.8882

>  <SCORE.INTRA.POLAR>
0

>  <SCORE.INTRA.POLAR.0>
0

>  <SCORE.INTRA.REPUL>
0

>  <SCORE.INTRA.REPUL.0>
0

>  <SCORE.INTRA.SOLV>
1.95834

>  <SCORE.INTRA.SOLV.lig_0>
-97.6888

>  <SCORE.INTRA.VDW>
2.52102

>  <SCORE.INTRA.VDW.0>
-3.9206

>  <SCORE.INTRA.norm>
-0.166083

>  <SCORE.RESTR>
4.67316

>  <SCORE.RESTR.CAVITY>
4.67316

>  <SCORE.RESTR.norm>
0.133519

>  <SCORE.SYSTEM>
0

>  <SCORE.SYSTEM.CONST>
0

>  <SCORE.SYSTEM.DIHEDRAL>
0

>  <SCORE.SYSTEM.SOLV>
0

>  <SCORE.SYSTEM.norm>
0

>  <SCORE.heavy>
35

>  <SCORE.norm>
0.133006

>  <RMSD>
11.764

$$$$
2f4t_lig
 OpenBabel11021811433D
libRbt.so/2013.1/901 2013/11/27
 35 36  0  0  0  0  0  0  0  0999 V2000
   13.6703    0.0094   24.3454 C   0  0  2  0  0  0  0  0  0  0  0  0
   12.4587    0.1002   25.1645 O   0  0  0  0  0  0  0  0  0  0  0  0
   12.5443   -3.6793   27.2539 C   0  0  2  0  0  0  0  0  0  0  0  0
   12.2809   -4.6963   28.2830 N   0  0  0  0  0  0  0  0  0  0  0  0
   13.4469    0.9794   23.1459 C   0  0  2  0  0  0  0  0  0  0  0  0
   13.1643    2.3151   23.6165 N   0  0  0  0  0  0  0  0  0  0  0  0
   13.0712   -2.3676   27.9434 C   0  0  0  0  0  0  0  0  0  0  0  0
   10.7980   -4.2884   29.1509 C   0  0  0  0  0  0  0  0  0  0  0  0
   11.0453   -5.5496   29.9488 C   0  0  1  0  0  0  0  0  0  0  0  0
    9.8147   -5.7893   30.8263 C   0  0  0  0  0  0  0  0  0  0  0  0
    9.6778   -4.8651   32.0479 C   0  0  0  0  0  0  0  0  0  0  0  0
    9.4322   -3.5009   31.5708 N   0  0  0  0  0  0  0  0  0  0  0  0
   11.1392   -6.6671   29.1046 O   0  0  0  0  0  0  0  0  0  0  0  0
    9.8940   -5.3336   25.0940 C   0  0  0  0  0  0  0  0  0  0  0  0
   10.1221   -5.0316   23.6208 C   0  0  0  0  0  0  0  0  0  0  0  0
   12.2818    0.4554   22.2401 C   0  0  1  0  0  0  0  0  0  0  0  0
    9.1170   -5.6494   22.7282 N   0  0  0  0  0  0  0  0  0  0  0  0
   12.0657    1.3200   21.1418 O   0  0  0  0  0  0  0  0  0  0  0  0
   13.3562   -1.2585   26.9211 C   0  0  2  0  0  0  0  0  0  0  0  0
   13.8045   -0.0399   27.5877 N   0  0  0  0  0  0  0  0  0  0  0  0
    9.8184   -4.6286   20.5608 C   0  0  0  0  0  0  0  0  0  0  0  0
    9.9452   -4.7995   19.0127 N   0  0  0  0  0  0  0  0  0  0  0  0
    9.4617   -5.9471   21.3090 C   0  0  0  0  0  0  0  0  0  0  0  0
   10.0894   -3.4926   29.0906 O   0  0  0  0  0  0  0  0  0  0  0  0
   12.6506   -0.9515   21.7583 C   0  0  2  0  0  0  0  0  0  0  0  0
   11.6383   -1.4825   20.9185 O   0  0  0  0  0  0  0  0  0  0  0  0
   12.1174   -0.9528   26.1167 C   0  0  2  0  0  0  0  0  0  0  0  0
   12.8848   -1.8861   22.9801 C   0  0  2  0  0  0  0  0  0  0  0  0
   13.9145   -1.3630   23.8448 O   0  0  0  0  0  0  0  0  0  0  0  0
   11.5969   -2.2675   25.3917 C   0  0  2  0  0  0  0  0  0  0  0  0
   10.4043   -1.9332   24.6203 O   0  0  0  0  0  0  0  0  0  0  0  0
   13.2736   -3.2547   22.5645 C   0  0  0  0  0  0  0  0  0  0  0  0
   14.5885   -3.2744   22.2543 N   0  0  0  0  0  0  0  0  0  0  0  0
   11.2598   -3.3459   26.4792 C   0  0  1  0  0  0  0  0  0  0  0  0
   10.7734   -4.5024   25.8762 O   0  0  0  0  0  0  0  0  0  0  0  0
  1  2  1  1  0  0  0
  1  5  1  0  0  0  0
  1 29  1  0  0  0  0
  3  4  1  1  0  0  0
  3  7  1  0  0  0  0
  3 34  1  0  0  0  0
  5  6  1  1  0  0  0
  5 16  1  0  0  0  0
  7 19  1  0  0  0  0
  8  4  1  0  0  0  0
  8 24  2  0  0  0  0
  9  8  1  6  0  0  0
  9 10  1  0  0  0  0
  9 13  1  0  0  0  0
 10 11  1  0  0  0  0
 11 12  1  0  0  0  0
 14 15  1  0  0  0  0
 14 35  1  0  0  0  0
 15 17  1  0  0  0  0
 16 18  1  6  0  0  0
 16 25  1  0  0  0  0
 19 20  1  1  0  0  0
 19 27  1  0  0  0  0
 21 22  1  0  0  0  0
 21 23  1  0  0  0  0
 23 17  1  0  0  0  0
 25 26  1  6  0  0  0
 25 28  1  0  0  0  0
 27  2  1  6  0  0  0
 27 30  1  0  0  0  0
 28 29  1  0  0  0  0
 28 32  1  6  0  0  0
 30 31  1  1  0  0  0
 30 34  1  0  0  0  0
 32 33  2  0  0  0  0
 34 35  1  6  0  0  0
M  END
>  <CHROM.1>
160.22467813,74.54169842,-172.16659879,-74.67544576,66.98974538,-169.98733555
74.51782612,-154.66470030,-169.66892540,-61.34014069,47.91512092,80.15412996
179.65935124,11.62523155,-2.78985653,25.25475584,-1.19762085,1.05779470,1.64591038

>  <Name>
2f4t_lig

>  <RI>
0

>  <Rbt.Current_Directory>
/home/itssahil/PROJECTS/Mol_Feturizer/New_Systems/rnas/2f4t

>  <Rbt.Executable>
rbdock ($Id: //depot/dev/client3/rdock/2013.1/src/exe/rbdock.cxx#4 $)

>  <Rbt.Library>
libRbt.so (2013.1, Build901 2013/11/27)

>  <Rbt.Parameter_File>
/export/apps/rDock/src/rDock_2013.1_src/data/scripts/dock_solv.prm

>  <Rbt.Receptor>
prm/blind_docking_60.prm

>  <SCORE>
5.26616

>  <SCORE.INTER>
5.5586

>  <SCORE.INTER.CONST>
1

>  <SCORE.INTER.POLAR>
0

>  <SCORE.INTER.ROT>
13

>  <SCORE.INTER.SOLV>
18.2267

>  <SCORE.INTER.VDW>
-14.6365

>  <SCORE.INTER.norm>
0.158817

>  <SCORE.INTRA>
-2.80205

>  <SCORE.INTRA.DIHEDRAL>
-15.6155

>  <SCORE.INTRA.DIHEDRAL.0>
23.8882

>  <SCORE.INTRA.POLAR>
0

>  <SCORE.INTRA.POLAR.0>
0

>  <SCORE.INTRA.REPUL>
0

>  <SCORE.INTRA.REPUL.0>
0

>  <SCORE.INTRA.SOLV>
4.40619

>  <SCORE.INTRA.SOLV.lig_0>
-97.6888

>  <SCORE.INTRA.VDW>
2.80258

>  <SCORE.INTRA.VDW.0>
-3.9206

>  <SCORE.INTRA.norm>
-0.0800586

>  <SCORE.RESTR>
2.50961

>  <SCORE.RESTR.CAVITY>
2.50961

>  <SCORE.RESTR.norm>
0.0717031

>  <SCORE.SYSTEM>
0

>  <SCORE.SYSTEM.CONST>
0

>  <SCORE.SYSTEM.DIHEDRAL>
0

>  <SCORE.SYSTEM.SOLV>
0

>  <SCORE.SYSTEM.norm>
0

>  <SCORE.heavy>
35

>  <SCORE.norm>
0.150462

>  <RMSD>
11.820

$$$$
2f4t_lig
 OpenBabel11021811433D
libRbt.so/2013.1/901 2013/11/27
 35 36  0  0  0  0  0  0  0  0999 V2000
   14.4954    0.1508   24.4740 C   0  0  2  0  0  0  0  0  0  0  0  0
   13.4417    0.3030   25.4809 O   0  0  0  0  0  0  0  0  0  0  0  0
   12.5630   -3.7961   26.5214 C   0  0  2  0  0  0  0  0  0  0  0  0
   12.1656   -4.9647   27.3208 N   0  0  0  0  0  0  0  0  0  0  0  0
   14.1353    1.1437   23.3277 C   0  0  2  0  0  0  0  0  0  0  0  0
   14.0119    2.4888   23.8386 N   0  0  0  0  0  0  0  0  0  0  0  0
   13.6695   -2.9898   27.2955 C   0  0  0  0  0  0  0  0  0  0  0  0
   11.2204   -4.4333   28.7147 C   0  0  0  0  0  0  0  0  0  0  0  0
   11.1229   -5.8999   29.0724 C   0  0  1  0  0  0  0  0  0  0  0  0
   10.1974   -6.0187   30.2854 C   0  0  0  0  0  0  0  0  0  0  0  0
   10.6187   -5.2127   31.5256 C   0  0  0  0  0  0  0  0  0  0  0  0
    9.4430   -5.0347   32.3830 N   0  0  0  0  0  0  0  0  0  0  0  0
   10.5038   -6.6271   28.0438 O   0  0  0  0  0  0  0  0  0  0  0  0
    9.5634   -4.7068   25.2116 C   0  0  0  0  0  0  0  0  0  0  0  0
   10.3773   -5.5743   24.2636 C   0  0  0  0  0  0  0  0  0  0  0  0
   12.8092    0.6962   22.6252 C   0  0  1  0  0  0  0  0  0  0  0  0
    9.5647   -6.2237   23.2117 N   0  0  0  0  0  0  0  0  0  0  0  0
   12.4668    1.5824   21.5775 O   0  0  0  0  0  0  0  0  0  0  0  0
   14.1219   -1.7467   26.5168 C   0  0  2  0  0  0  0  0  0  0  0  0
   15.1181   -0.9940   27.2726 N   0  0  0  0  0  0  0  0  0  0  0  0
    9.3905   -4.3148   21.6126 C   0  0  0  0  0  0  0  0  0  0  0  0
    9.7757   -3.0760   22.4839 N   0  0  0  0  0  0  0  0  0  0  0  0
    8.6150   -5.4147   22.3962 C   0  0  0  0  0  0  0  0  0  0  0  0
   10.8972   -3.4853   29.0834 O   0  0  0  0  0  0  0  0  0  0  0  0
   13.0116   -0.7248   22.0892 C   0  0  2  0  0  0  0  0  0  0  0  0
   11.8463   -1.1886   21.4268 O   0  0  0  0  0  0  0  0  0  0  0  0
   12.9442   -0.8506   26.2250 C   0  0  2  0  0  0  0  0  0  0  0  0
   13.3880   -1.6831   23.2558 C   0  0  2  0  0  0  0  0  0  0  0  0
   14.5740   -1.2283   23.9399 O   0  0  0  0  0  0  0  0  0  0  0  0
   11.8350   -1.6501   25.4155 C   0  0  2  0  0  0  0  0  0  0  0  0
   10.7166   -0.7523   25.1465 O   0  0  0  0  0  0  0  0  0  0  0  0
   13.6231   -3.0676   22.7817 C   0  0  0  0  0  0  0  0  0  0  0  0
   12.4391   -3.6532   22.4973 N   0  0  0  0  0  0  0  0  0  0  0  0
   11.3604   -2.8711   26.2775 C   0  0  1  0  0  0  0  0  0  0  0  0
   10.3661   -3.5772   25.6063 O   0  0  0  0  0  0  0  0  0  0  0  0
  1  2  1  1  0  0  0
  1  5  1  0  0  0  0
  1 29  1  0  0  0  0
  3  4  1  1  0  0  0
  3  7  1  0  0  0  0
  3 34  1  0  0  0  0
  5  6  1  1  0  0  0
  5 16  1  0  0  0  0
  7 19  1  0  0  0  0
  8  4  1  0  0  0  0
  8 24  2  0  0  0  0
  9  8  1  6  0  0  0
  9 10  1  0  0  0  0
  9 13  1  0  0  0  0
 10 11  1  0  0  0  0
 11 12  1  0  0  0  0
 14 15  1  0  0  0  0
 14 35  1  0  0  0  0
 15 17  1  0  0  0  0
 16 18  1  6  0  0  0
 16 25  1  0  0  0  0
 19 20  1  1  0  0  0
 19 27  1  0  0  0  0
 21 22  1  0  0  0  0
 21 23  1  0  0  0  0
 23 17  1  0  0  0  0
 25 26  1  1  0  0  0
 25 28  1  0  0  0  0
 27  2  1  6  0  0  0
 27 30  1  0  0  0  0
 28 29  1  0  0  0  0
 28 32  1  6  0  0  0
 30 31  1  1  0  0  0
 30 34  1  0  0  0  0
 32 33  2  0  0  0  0
 34 35  1  6  0  0  0
M  END
>  <CHROM.1>
142.97881905,71.88657868,-174.87083702,-57.19657035,159.76001720,-145.65348257
-75.42972941,50.03633858,-78.66842735,60.81686372,37.95962700,-74.92610833
32.04061265,11.87239487,-2.71652174,25.39321069,-1.05173346,0.91225228,1.84204968

>  <Name>
2f4t_lig

>  <RI>
0

>  <Rbt.Current_Directory>
/home/itssahil/PROJECTS/Mol_Feturizer/New_Systems/rnas/2f4t

>  <Rbt.Executable>
rbdock ($Id: //depot/dev/client3/rdock/2013.1/src/exe/rbdock.cxx#4 $)

>  <Rbt.Library>
libRbt.so (2013.1, Build901 2013/11/27)

>  <Rbt.Parameter_File>
/export/apps/rDock/src/rDock_2013.1_src/data/scripts/dock_solv.prm

>  <Rbt.Receptor>
prm/blind_docking_60.prm

>  <SCORE>
12.1387

>  <SCORE.INTER>
2.2437

>  <SCORE.INTER.CONST>
1

>  <SCORE.INTER.POLAR>
0

>  <SCORE.INTER.ROT>
13

>  <SCORE.INTER.SOLV>
18.9237

>  <SCORE.INTER.VDW>
-17.0788

>  <SCORE.INTER.norm>
0.0641057

>  <SCORE.INTRA>
7.49953

>  <SCORE.INTRA.DIHEDRAL>
-3.78897

>  <SCORE.INTRA.DIHEDRAL.0>
23.8882

>  <SCORE.INTRA.POLAR>
0

>  <SCORE.INTRA.POLAR.0>
0

>  <SCORE.INTRA.REPUL>
0

>  <SCORE.INTRA.REPUL.0>
0

>  <SCORE.INTRA.SOLV>
11.4426

>  <SCORE.INTRA.SOLV.lig_0>
-97.6888

>  <SCORE.INTRA.VDW>
3.67273

>  <SCORE.INTRA.VDW.0>
-3.9206

>  <SCORE.INTRA.norm>
0.214272

>  <SCORE.RESTR>
2.39543

>  <SCORE.RESTR.CAVITY>
2.39543

>  <SCORE.RESTR.norm>
0.0684409

>  <SCORE.SYSTEM>
0

>  <SCORE.SYSTEM.CONST>
0

>  <SCORE.SYSTEM.DIHEDRAL>
0

>  <SCORE.SYSTEM.SOLV>
0

>  <SCORE.SYSTEM.norm>
0

>  <SCORE.heavy>
35

>  <SCORE.norm>
0.346819

>  <RMSD>
11.821

$$$$
2f4t_lig
 OpenBabel11021811433D
libRbt.so/2013.1/901 2013/11/27
 35 36  0  0  0  0  0  0  0  0999 V2000
   14.2869   -1.1579   24.7870 C   0  0  2  0  0  0  0  0  0  0  0  0
   12.9526   -0.6916   25.1735 O   0  0  0  0  0  0  0  0  0  0  0  0
   11.2000   -4.3304   26.7048 C   0  0  2  0  0  0  0  0  0  0  0  0
   10.2682   -5.2290   27.4026 N   0  0  0  0  0  0  0  0  0  0  0  0
   14.9748    0.0531   24.0871 C   0  0  2  0  0  0  0  0  0  0  0  0
   14.9932    1.2032   24.9601 N   0  0  0  0  0  0  0  0  0  0  0  0
   11.6359   -3.1759   27.6798 C   0  0  0  0  0  0  0  0  0  0  0  0
   11.1143   -6.0543   28.7147 C   0  0  0  0  0  0  0  0  0  0  0  0
    9.7894   -6.7248   29.0036 C   0  0  1  0  0  0  0  0  0  0  0  0
    9.8559   -7.2846   30.4263 C   0  0  0  0  0  0  0  0  0  0  0  0
    9.7832   -6.2431   31.5556 C   0  0  0  0  0  0  0  0  0  0  0  0
   10.9181   -5.3262   31.4131 N   0  0  0  0  0  0  0  0  0  0  0  0
    8.7436   -5.7886   29.0073 O   0  0  0  0  0  0  0  0  0  0  0  0
   10.2336   -5.8940   23.7804 C   0  0  0  0  0  0  0  0  0  0  0  0
    8.9544   -6.0397   22.9705 C   0  0  0  0  0  0  0  0  0  0  0  0
   14.2381    0.3893   22.7467 C   0  0  1  0  0  0  0  0  0  0  0  0
    8.8575   -5.0878   21.8422 N   0  0  0  0  0  0  0  0  0  0  0  0
   14.8503    1.4837   22.0927 O   0  0  0  0  0  0  0  0  0  0  0  0
   12.6043   -2.1933   27.0067 C   0  0  2  0  0  0  0  0  0  0  0  0
   12.9619   -1.1100   27.9171 N   0  0  0  0  0  0  0  0  0  0  0  0
    9.5703   -4.1521   19.6404 C   0  0  0  0  0  0  0  0  0  0  0  0
    8.6028   -5.0015   18.7548 N   0  0  0  0  0  0  0  0  0  0  0  0
   10.0261   -4.8761   20.9417 C   0  0  0  0  0  0  0  0  0  0  0  0
   12.1149   -6.0415   29.0860 O   0  0  0  0  0  0  0  0  0  0  0  0
   14.2711   -0.8599   21.8601 C   0  0  2  0  0  0  0  0  0  0  0  0
   13.6284   -0.6190   20.6189 O   0  0  0  0  0  0  0  0  0  0  0  0
   11.9809   -1.6074   25.7644 C   0  0  2  0  0  0  0  0  0  0  0  0
   13.5944   -2.0515   22.5971 C   0  0  2  0  0  0  0  0  0  0  0  0
   14.2376   -2.3133   23.8618 O   0  0  0  0  0  0  0  0  0  0  0  0
   11.5663   -2.7671   24.7604 C   0  0  2  0  0  0  0  0  0  0  0  0
   10.9739   -2.1641   23.5711 O   0  0  0  0  0  0  0  0  0  0  0  0
   13.6276   -3.2937   21.7893 C   0  0  0  0  0  0  0  0  0  0  0  0
   12.6137   -4.1032   22.1666 N   0  0  0  0  0  0  0  0  0  0  0  0
   10.5302   -3.7056   25.4710 C   0  0  1  0  0  0  0  0  0  0  0  0
   10.1249   -4.7181   24.6059 O   0  0  0  0  0  0  0  0  0  0  0  0
  1  2  1  6  0  0  0
  1  5  1  0  0  0  0
  1 29  1  0  0  0  0
  3  4  1  1  0  0  0
  3  7  1  0  0  0  0
  3 34  1  0  0  0  0
  5  6  1  1  0  0  0
  5 16  1  0  0  0  0
  7 19  1  0  0  0  0
  8  4  1  0  0  0  0
  8 24  2  0  0  0  0
  9  8  1  1  0  0  0
  9 10  1  0  0  0  0
  9 13  1  0  0  0  0
 10 11  1  0  0  0  0
 11 12  1  0  0  0  0
 14 15  1  0  0  0  0
 14 35  1  0  0  0  0
 15 17  1  0  0  0  0
 16 18  1  6  0  0  0
 16 25  1  0  0  0  0
 19 20  1  1  0  0  0
 19 27  1  0  0  0  0
 21 22  1  0  0  0  0
 21 23  1  0  0  0  0
 23 17  1  0  0  0  0
 25 26  1  6  0  0  0
 25 28  1  0  0  0  0
 27  2  1  6  0  0  0
 27 30  1  0  0  0  0
 28 29  1  0  0  0  0
 28 32  1  6  0  0  0
 30 31  1  6  0  0  0
 30 34  1  0  0  0  0
 32 33  2  0  0  0  0
 34 35  1  6  0  0  0
M  END
>  <CHROM.1>
175.01575394,-66.07686927,-161.86724511,73.15023835,-60.42433339,75.27108545
-170.36370395,45.97296944,-65.45689219,164.67905625,57.66170949,-155.04964512
-53.23018592,11.72713022,-3.34595081,24.97706947,-1.06365149,0.84750080,1.73740685

>  <Name>
2f4t_lig

>  <RI>
0

>  <Rbt.Current_Directory>
/home/itssahil/PROJECTS/Mol_Feturizer/New_Systems/rnas/2f4t

>  <Rbt.Executable>
rbdock ($Id: //depot/dev/client3/rdock/2013.1/src/exe/rbdock.cxx#4 $)

>  <Rbt.Library>
libRbt.so (2013.1, Build901 2013/11/27)

>  <Rbt.Parameter_File>
/export/apps/rDock/src/rDock_2013.1_src/data/scripts/dock_solv.prm

>  <Rbt.Receptor>
prm/blind_docking_60.prm

>  <SCORE>
0.820936

>  <SCORE.INTER>
-0.533922

>  <SCORE.INTER.CONST>
1

>  <SCORE.INTER.POLAR>
-0.775257

>  <SCORE.INTER.ROT>
13

>  <SCORE.INTER.SOLV>
19.9023

>  <SCORE.INTER.VDW>
-16.6725

>  <SCORE.INTER.norm>
-0.0152549

>  <SCORE.INTRA>
-2.59542

>  <SCORE.INTRA.DIHEDRAL>
-18.4878

>  <SCORE.INTRA.DIHEDRAL.0>
23.8882

>  <SCORE.INTRA.POLAR>
0

>  <SCORE.INTRA.POLAR.0>
0

>  <SCORE.INTRA.REPUL>
0

>  <SCORE.INTRA.REPUL.0>
0

>  <SCORE.INTRA.SOLV>
6.85105

>  <SCORE.INTRA.SOLV.lig_0>
-97.6888

>  <SCORE.INTRA.VDW>
3.22294

>  <SCORE.INTRA.VDW.0>
-3.9206

>  <SCORE.INTRA.norm>
-0.0741547

>  <SCORE.RESTR>
3.95027

>  <SCORE.RESTR.CAVITY>
3.95027

>  <SCORE.RESTR.norm>
0.112865

>  <SCORE.SYSTEM>
0

>  <SCORE.SYSTEM.CONST>
0

>  <SCORE.SYSTEM.DIHEDRAL>
0

>  <SCORE.SYSTEM.SOLV>
0

>  <SCORE.SYSTEM.norm>
0

>  <SCORE.heavy>
35

>  <SCORE.norm>
0.0234553

>  <RMSD>
11.852

$$$$
2f4t_lig
 OpenBabel11021811433D
libRbt.so/2013.1/901 2013/11/27
 35 36  0  0  0  0  0  0  0  0999 V2000
   14.6475   -1.0413   23.6120 C   0  0  2  0  0  0  0  0  0  0  0  0
   13.5133   -1.9690   23.6140 O   0  0  0  0  0  0  0  0  0  0  0  0
   11.7724   -3.2198   27.3639 C   0  0  2  0  0  0  0  0  0  0  0  0
   11.3835   -4.0862   28.4868 N   0  0  0  0  0  0  0  0  0  0  0  0
   14.0491    0.3634   23.9255 C   0  0  2  0  0  0  0  0  0  0  0  0
   13.3214    0.3405   25.1727 N   0  0  0  0  0  0  0  0  0  0  0  0
   11.3413   -3.8977   26.0118 C   0  0  0  0  0  0  0  0  0  0  0  0
   11.6955   -5.7730   28.0671 C   0  0  0  0  0  0  0  0  0  0  0  0
   11.1681   -6.1019   29.4462 C   0  0  1  0  0  0  0  0  0  0  0  0
    9.7863   -6.7363   29.2727 C   0  0  0  0  0  0  0  0  0  0  0  0
    9.0265   -7.0432   30.5741 C   0  0  0  0  0  0  0  0  0  0  0  0
    9.2095   -5.9162   31.4936 N   0  0  0  0  0  0  0  0  0  0  0  0
   11.9634   -7.0769   30.0682 O   0  0  0  0  0  0  0  0  0  0  0  0
   14.5021   -1.6463   29.4476 C   0  0  0  0  0  0  0  0  0  0  0  0
   14.3810   -0.1774   29.0718 C   0  0  0  0  0  0  0  0  0  0  0  0
   13.1201    0.8263   22.7529 C   0  0  1  0  0  0  0  0  0  0  0  0
   12.9924    0.3313   29.1152 N   0  0  0  0  0  0  0  0  0  0  0  0
   12.5700    2.1025   23.0157 O   0  0  0  0  0  0  0  0  0  0  0  0
   11.7295   -3.0459   24.7952 C   0  0  2  0  0  0  0  0  0  0  0  0
   11.3559   -3.7139   23.5525 N   0  0  0  0  0  0  0  0  0  0  0  0
   10.6795   -0.4753   28.6343 C   0  0  0  0  0  0  0  0  0  0  0  0
   10.8305   -1.5219   29.7847 N   0  0  0  0  0  0  0  0  0  0  0  0
   12.0366   -0.0143   28.0250 C   0  0  0  0  0  0  0  0  0  0  0  0
   12.0841   -6.2716   27.2071 O   0  0  0  0  0  0  0  0  0  0  0  0
   13.9535    0.8494   21.4673 C   0  0  2  0  0  0  0  0  0  0  0  0
   13.1717    1.2743   20.3627 O   0  0  0  0  0  0  0  0  0  0  0  0
   13.2151   -2.7853   24.7873 C   0  0  2  0  0  0  0  0  0  0  0  0
   14.5500   -0.5619   21.1965 C   0  0  2  0  0  0  0  0  0  0  0  0
   15.3516   -1.0097   22.3094 O   0  0  0  0  0  0  0  0  0  0  0  0
   13.6532   -2.0719   26.1379 C   0  0  2  0  0  0  0  0  0  0  0  0
   15.0916   -1.8307   26.0921 O   0  0  0  0  0  0  0  0  0  0  0  0
   15.3904   -0.5834   19.9758 C   0  0  0  0  0  0  0  0  0  0  0  0
   16.3092    0.4049   20.0445 N   0  0  0  0  0  0  0  0  0  0  0  0
   13.2941   -3.0072   27.3443 C   0  0  1  0  0  0  0  0  0  0  0  0
   13.6919   -2.4216   28.5429 O   0  0  0  0  0  0  0  0  0  0  0  0
  1  2  1  6  0  0  0
  1  5  1  0  0  0  0
  1 29  1  0  0  0  0
  3  4  1  1  0  0  0
  3  7  1  0  0  0  0
  3 34  1  0  0  0  0
  5  6  1  1  0  0  0
  5 16  1  0  0  0  0
  7 19  1  0  0  0  0
  8  4  1  0  0  0  0
  8 24  2  0  0  0  0
  9  8  1  6  0  0  0
  9 10  1  0  0  0  0
  9 13  1  0  0  0  0
 10 11  1  0  0  0  0
 11 12  1  0  0  0  0
 14 15  1  0  0  0  0
 14 35  1  0  0  0  0
 15 17  1  0  0  0  0
 16 18  1  1  0  0  0
 16 25  1  0  0  0  0
 19 20  1  6  0  0  0
 19 27  1  0  0  0  0
 21 22  1  0  0  0  0
 21 23  1  0  0  0  0
 23 17  1  0  0  0  0
 25 26  1  6  0  0  0
 25 28  1  0  0  0  0
 27  2  1  6  0  0  0
 27 30  1  0  0  0  0
 28 29  1  0  0  0  0
 28 32  1  6  0  0  0
 30 31  1  6  0  0  0
 30 34  1  0  0  0  0
 32 33  2  0  0  0  0
 34 35  1  1  0  0  0
M  END
>  <CHROM.1>
-98.61174642,40.35067837,107.41680604,-175.29696601,41.65364478,58.62883016
69.16210393,-75.97789264,-47.41074819,133.16879173,151.17517724,52.18753997
-154.08351580,12.77738732,-2.21060790,26.02536337,0.33459141,-1.20600912
-2.17183733

>  <Name>
2f4t_lig

>  <RI>
0

>  <Rbt.Current_Directory>
/home/itssahil/PROJECTS/Mol_Feturizer/New_Systems/rnas/2f4t

>  <Rbt.Executable>
rbdock ($Id: //depot/dev/client3/rdock/2013.1/src/exe/rbdock.cxx#4 $)

>  <Rbt.Library>
libRbt.so (2013.1, Build901 2013/11/27)

>  <Rbt.Parameter_File>
/export/apps/rDock/src/rDock_2013.1_src/data/scripts/dock_solv.prm

>  <Rbt.Receptor>
prm/blind_docking_60.prm

>  <SCORE>
10.1467

>  <SCORE.INTER>
-1.72067

>  <SCORE.INTER.CONST>
1

>  <SCORE.INTER.POLAR>
0

>  <SCORE.INTER.ROT>
13

>  <SCORE.INTER.SOLV>
12.1403

>  <SCORE.INTER.VDW>
-17.4606

>  <SCORE.INTER.norm>
-0.0491621

>  <SCORE.INTRA>
6.85271

>  <SCORE.INTRA.DIHEDRAL>
-4.62462

>  <SCORE.INTRA.DIHEDRAL.0>
23.8882

>  <SCORE.INTRA.POLAR>
0

>  <SCORE.INTRA.POLAR.0>
0

>  <SCORE.INTRA.REPUL>
0

>  <SCORE.INTRA.REPUL.0>
0

>  <SCORE.INTRA.SOLV>
13.1564

>  <SCORE.INTRA.SOLV.lig_0>
-97.6888

>  <SCORE.INTRA.VDW>
2.58681

>  <SCORE.INTRA.VDW.0>
-3.9206

>  <SCORE.INTRA.norm>
0.195792

>  <SCORE.RESTR>
5.01471

>  <SCORE.RESTR.CAVITY>
5.01471

>  <SCORE.RESTR.norm>
0.143277

>  <SCORE.SYSTEM>
0

>  <SCORE.SYSTEM.CONST>
0

>  <SCORE.SYSTEM.DIHEDRAL>
0

>  <SCORE.SYSTEM.SOLV>
0

>  <SCORE.SYSTEM.norm>
0

>  <SCORE.heavy>
35

>  <SCORE.norm>
0.289907

>  <RMSD>
11.859

$$$$
2f4t_lig
 OpenBabel11021811433D
libRbt.so/2013.1/901 2013/11/27
 35 36  0  0  0  0  0  0  0  0999 V2000
   10.8315   -5.0564   22.3076 C   0  0  2  0  0  0  0  0  0  0  0  0
   10.8330   -3.5981   22.4506 O   0  0  0  0  0  0  0  0  0  0  0  0
   11.6585   -0.5876   25.4360 C   0  0  2  0  0  0  0  0  0  0  0  0
   11.7482    0.0699   26.7484 N   0  0  0  0  0  0  0  0  0  0  0  0
    9.3858   -5.4396   21.8684 C   0  0  2  0  0  0  0  0  0  0  0  0
    9.0174   -4.7385   20.6608 N   0  0  0  0  0  0  0  0  0  0  0  0
   10.1986   -1.1344   25.2282 C   0  0  0  0  0  0  0  0  0  0  0  0
   11.9204   -1.1526   28.0111 C   0  0  0  0  0  0  0  0  0  0  0  0
   11.9657    0.0085   28.9796 C   0  0  1  0  0  0  0  0  0  0  0  0
   11.9728   -0.5717   30.3957 C   0  0  0  0  0  0  0  0  0  0  0  0
   10.8583   -1.5852   30.7055 C   0  0  0  0  0  0  0  0  0  0  0  0
   11.4069   -2.9364   30.5559 N   0  0  0  0  0  0  0  0  0  0  0  0
   13.1671    0.7227   28.8508 O   0  0  0  0  0  0  0  0  0  0  0  0
   15.3662   -1.3535   25.7288 C   0  0  0  0  0  0  0  0  0  0  0  0
   16.0361   -0.8094   24.4763 C   0  0  0  0  0  0  0  0  0  0  0  0
    8.3726   -5.1250   23.0202 C   0  0  1  0  0  0  0  0  0  0  0  0
   15.2776    0.2823   23.8270 N   0  0  0  0  0  0  0  0  0  0  0  0
    7.0538   -5.4702   22.6433 O   0  0  0  0  0  0  0  0  0  0  0  0
   10.0403   -1.8443   23.8764 C   0  0  2  0  0  0  0  0  0  0  0  0
    8.6903   -2.3778   23.7244 N   0  0  0  0  0  0  0  0  0  0  0  0
   13.6238    1.2793   22.2452 C   0  0  0  0  0  0  0  0  0  0  0  0
   12.9403    2.0572   23.4155 N   0  0  0  0  0  0  0  0  0  0  0  0
   14.3522   -0.0204   22.6985 C   0  0  0  0  0  0  0  0  0  0  0  0
   11.9655   -2.2189   28.0204 O   0  0  0  0  0  0  0  0  0  0  0  0
    8.8053   -5.9119   24.2617 C   0  0  2  0  0  0  0  0  0  0  0  0
    7.9183   -5.6809   25.3442 O   0  0  0  0  0  0  0  0  0  0  0  0
   11.0329   -2.9734   23.7551 C   0  0  2  0  0  0  0  0  0  0  0  0
   10.2574   -5.5189   24.6592 C   0  0  2  0  0  0  0  0  0  0  0  0
   11.1750   -5.7501   23.5702 O   0  0  0  0  0  0  0  0  0  0  0  0
   12.5130   -2.4231   23.9329 C   0  0  2  0  0  0  0  0  0  0  0  0
   13.4438   -3.5393   23.8039 O   0  0  0  0  0  0  0  0  0  0  0  0
   10.7329   -6.2769   25.8408 C   0  0  0  0  0  0  0  0  0  0  0  0
   10.3690   -5.6275   26.9684 N   0  0  0  0  0  0  0  0  0  0  0  0
   12.6418   -1.7653   25.3507 C   0  0  1  0  0  0  0  0  0  0  0  0
   13.9378   -1.2974   25.5487 O   0  0  0  0  0  0  0  0  0  0  0  0
  1  2  1  1  0  0  0
  1  5  1  0  0  0  0
  1 29  1  0  0  0  0
  3  4  1  1  0  0  0
  3  7  1  0  0  0  0
  3 34  1  0  0  0  0
  5  6  1  6  0  0  0
  5 16  1  0  0  0  0
  7 19  1  0  0  0  0
  8  4  1  0  0  0  0
  8 24  2  0  0  0  0
  9  8  1  6  0  0  0
  9 10  1  0  0  0  0
  9 13  1  0  0  0  0
 10 11  1  0  0  0  0
 11 12  1  0  0  0  0
 14 15  1  0  0  0  0
 14 35  1  0  0  0  0
 15 17  1  0  0  0  0
 16 18  1  6  0  0  0
 16 25  1  0  0  0  0
 19 20  1  1  0  0  0
 19 27  1  0  0  0  0
 21 22  1  0  0  0  0
 21 23  1  0  0  0  0
 23 17  1  0  0  0  0
 25 26  1  1  0  0  0
 25 28  1  0  0  0  0
 27  2  1  6  0  0  0
 27 30  1  0  0  0  0
 28 29  1  0  0  0  0
 28 32  1  1  0  0  0
 30 31  1  1  0  0  0
 30 34  1  0  0  0  0
 32 33  2  0  0  0  0
 34 35  1  6  0  0  0
M  END
>  <CHROM.1>
114.60426259,79.23691821,174.00091902,-52.00492322,98.07174274,34.04772394
109.23104121,-95.58790884,-51.66475622,176.98226657,-136.88219377,-87.29774515
174.78026141,11.48006810,-2.53125773,25.11368786,-2.48743145,0.82279535,1.42439445

>  <Name>
2f4t_lig

>  <RI>
0

>  <Rbt.Current_Directory>
/home/itssahil/PROJECTS/Mol_Feturizer/New_Systems/rnas/2f4t

>  <Rbt.Executable>
rbdock ($Id: //depot/dev/client3/rdock/2013.1/src/exe/rbdock.cxx#4 $)

>  <Rbt.Library>
libRbt.so (2013.1, Build901 2013/11/27)

>  <Rbt.Parameter_File>
/export/apps/rDock/src/rDock_2013.1_src/data/scripts/dock_solv.prm

>  <Rbt.Receptor>
prm/blind_docking_60.prm

>  <SCORE>
19.4154

>  <SCORE.INTER>
5.88737

>  <SCORE.INTER.CONST>
1

>  <SCORE.INTER.POLAR>
-1.32046

>  <SCORE.INTER.ROT>
13

>  <SCORE.INTER.SOLV>
19.6753

>  <SCORE.INTER.VDW>
-10.4987

>  <SCORE.INTER.norm>
0.168211

>  <SCORE.INTRA>
8.2627

>  <SCORE.INTRA.DIHEDRAL>
5.62581

>  <SCORE.INTRA.DIHEDRAL.0>
23.8882

>  <SCORE.INTRA.POLAR>
0

>  <SCORE.INTRA.POLAR.0>
0

>  <SCORE.INTRA.REPUL>
0.0455612

>  <SCORE.INTRA.REPUL.0>
0

>  <SCORE.INTRA.SOLV>
11.1704

>  <SCORE.INTRA.SOLV.lig_0>
-97.6888

>  <SCORE.INTRA.VDW>
-0.363221

>  <SCORE.INTRA.VDW.0>
-3.9206

>  <SCORE.INTRA.norm>
0.236077

>  <SCORE.RESTR>
5.26528

>  <SCORE.RESTR.CAVITY>
5.26528

>  <SCORE.RESTR.norm>
0.150437

>  <SCORE.SYSTEM>
0

>  <SCORE.SYSTEM.CONST>
0

>  <SCORE.SYSTEM.DIHEDRAL>
0

>  <SCORE.SYSTEM.SOLV>
0

>  <SCORE.SYSTEM.norm>
0

>  <SCORE.heavy>
35

>  <SCORE.norm>
0.554724

>  <RMSD>
11.882

$$$$
2f4t_lig
 OpenBabel11021811433D
libRbt.so/2013.1/901 2013/11/27
 35 36  0  0  0  0  0  0  0  0999 V2000
    9.0824   -3.5170   22.7450 C   0  0  2  0  0  0  0  0  0  0  0  0
   10.3721   -4.1822   22.9486 O   0  0  0  0  0  0  0  0  0  0  0  0
   11.3877   -2.9012   26.9467 C   0  0  2  0  0  0  0  0  0  0  0  0
   12.0091   -2.8923   28.2796 N   0  0  0  0  0  0  0  0  0  0  0  0
    9.0194   -3.1659   21.2276 C   0  0  2  0  0  0  0  0  0  0  0  0
    9.1932   -4.3520   20.4224 N   0  0  0  0  0  0  0  0  0  0  0  0
   10.7133   -4.3000   26.6978 C   0  0  0  0  0  0  0  0  0  0  0  0
   11.9148   -1.2672   28.9645 C   0  0  0  0  0  0  0  0  0  0  0  0
   12.6165   -1.8510   30.1708 C   0  0  1  0  0  0  0  0  0  0  0  0
   14.1228   -1.7017   29.9456 C   0  0  0  0  0  0  0  0  0  0  0  0
   14.6530   -2.2446   28.6080 C   0  0  0  0  0  0  0  0  0  0  0  0
   16.1052   -2.0478   28.5718 N   0  0  0  0  0  0  0  0  0  0  0  0
   12.3254   -1.1110   31.3274 O   0  0  0  0  0  0  0  0  0  0  0  0
   14.1082   -0.4460   26.0737 C   0  0  0  0  0  0  0  0  0  0  0  0
   14.6535   -0.3137   24.6600 C   0  0  0  0  0  0  0  0  0  0  0  0
   10.1085   -2.0965   20.8773 C   0  0  1  0  0  0  0  0  0  0  0  0
   13.7371    0.3903   23.7363 N   0  0  0  0  0  0  0  0  0  0  0  0
   10.0651   -1.7601   19.5043 O   0  0  0  0  0  0  0  0  0  0  0  0
   10.0531   -4.3791   25.3143 C   0  0  2  0  0  0  0  0  0  0  0  0
    9.4703   -5.6984   25.0911 N   0  0  0  0  0  0  0  0  0  0  0  0
   13.8432    0.5862   21.2500 C   0  0  0  0  0  0  0  0  0  0  0  0
   14.6473    1.1289   20.0250 N   0  0  0  0  0  0  0  0  0  0  0  0
   14.2871    1.1986   22.6113 C   0  0  0  0  0  0  0  0  0  0  0  0
   11.5241   -0.3332   28.6266 O   0  0  0  0  0  0  0  0  0  0  0  0
    9.8574   -0.8602   21.7468 C   0  0  2  0  0  0  0  0  0  0  0  0
   10.8060    0.1572   21.4694 O   0  0  0  0  0  0  0  0  0  0  0  0
   11.0645   -4.0976   24.2313 C   0  0  2  0  0  0  0  0  0  0  0  0
    9.9083   -1.2510   23.2520 C   0  0  2  0  0  0  0  0  0  0  0  0
    8.9469   -2.2836   23.5536 O   0  0  0  0  0  0  0  0  0  0  0  0
   11.7279   -2.6717   24.4587 C   0  0  2  0  0  0  0  0  0  0  0  0
   12.6939   -2.4317   23.3917 O   0  0  0  0  0  0  0  0  0  0  0  0
    9.6416   -0.0910   24.1351 C   0  0  0  0  0  0  0  0  0  0  0  0
    9.8812   -0.4381   25.4188 N   0  0  0  0  0  0  0  0  0  0  0  0
   12.4422   -2.6623   25.8548 C   0  0  1  0  0  0  0  0  0  0  0  0
   13.0587   -1.4333   26.0722 O   0  0  0  0  0  0  0  0  0  0  0  0
  1  2  1  6  0  0  0
  1  5  1  0  0  0  0
  1 29  1  0  0  0  0
  3  4  1  1  0  0  0
  3  7  1  0  0  0  0
  3 34  1  0  0  0  0
  5  6  1  6  0  0  0
  5 16  1  0  0  0  0
  7 19  1  0  0  0  0
  8  4  1  0  0  0  0
  8 24  2  0  0  0  0
  9  8  1  6  0  0  0
  9 10  1  0  0  0  0
  9 13  1  0  0  0  0
 10 11  1  0  0  0  0
 11 12  1  0  0  0  0
 14 15  1  0  0  0  0
 14 35  1  0  0  0  0
 15 17  1  0  0  0  0
 16 18  1  6  0  0  0
 16 25  1  0  0  0  0
 19 20  1  6  0  0  0
 19 27  1  0  0  0  0
 21 22  1  0  0  0  0
 21 23  1  0  0  0  0
 23 17  1  0  0  0  0
 25 26  1  1  0  0  0
 25 28  1  0  0  0  0
 27  2  1  6  0  0  0
 27 30  1  0  0  0  0
 28 29  1  0  0  0  0
 28 32  1  1  0  0  0
 30 31  1  6  0  0  0
 30 34  1  0  0  0  0
 32 33  2  0  0  0  0
 34 35  1  1  0  0  0
M  END
>  <CHROM.1>
150.85808396,-147.04906330,90.08737635,-52.10045147,-178.79803463,73.02628224
54.34426594,149.10720839,-165.36934947,116.59793896,46.75021554,-171.47335793
148.11880776,11.72676159,-1.84785485,24.79657661,2.01382764,-0.70255830,-1.28942435

>  <Name>
2f4t_lig

>  <RI>
0

>  <Rbt.Current_Directory>
/home/itssahil/PROJECTS/Mol_Feturizer/New_Systems/rnas/2f4t

>  <Rbt.Executable>
rbdock ($Id: //depot/dev/client3/rdock/2013.1/src/exe/rbdock.cxx#4 $)

>  <Rbt.Library>
libRbt.so (2013.1, Build901 2013/11/27)

>  <Rbt.Parameter_File>
/export/apps/rDock/src/rDock_2013.1_src/data/scripts/dock_solv.prm

>  <Rbt.Receptor>
prm/blind_docking_60.prm

>  <SCORE>
8.12007

>  <SCORE.INTER>
2.82878

>  <SCORE.INTER.CONST>
1

>  <SCORE.INTER.POLAR>
-0.586013

>  <SCORE.INTER.ROT>
13

>  <SCORE.INTER.SOLV>
15.9241

>  <SCORE.INTER.VDW>
-13.7355

>  <SCORE.INTER.norm>
0.0808223

>  <SCORE.INTRA>
0.467162

>  <SCORE.INTRA.DIHEDRAL>
-7.91131

>  <SCORE.INTRA.DIHEDRAL.0>
23.8882

>  <SCORE.INTRA.POLAR>
0

>  <SCORE.INTRA.POLAR.0>
0

>  <SCORE.INTRA.REPUL>
0

>  <SCORE.INTRA.REPUL.0>
0

>  <SCORE.INTRA.SOLV>
5.55049

>  <SCORE.INTRA.SOLV.lig_0>
-97.6888

>  <SCORE.INTRA.VDW>
1.64757

>  <SCORE.INTRA.VDW.0>
-3.9206

>  <SCORE.INTRA.norm>
0.0133475

>  <SCORE.RESTR>
4.82413

>  <SCORE.RESTR.CAVITY>
4.82413

>  <SCORE.RESTR.norm>
0.137832

>  <SCORE.SYSTEM>
0

>  <SCORE.SYSTEM.CONST>
0

>  <SCORE.SYSTEM.DIHEDRAL>
0

>  <SCORE.SYSTEM.SOLV>
0

>  <SCORE.SYSTEM.norm>
0

>  <SCORE.heavy>
35

>  <SCORE.norm>
0.232002

>  <RMSD>
12.116

$$$$
2f4t_lig
 OpenBabel11021811433D
libRbt.so/2013.1/901 2013/11/27
 35 36  0  0  0  0  0  0  0  0999 V2000
    9.1654   -3.5882   21.1451 C   0  0  2  0  0  0  0  0  0  0  0  0
    9.9265   -2.3978   21.5337 O   0  0  0  0  0  0  0  0  0  0  0  0
   12.5810   -1.0262   24.6529 C   0  0  2  0  0  0  0  0  0  0  0  0
   13.2338   -0.9238   25.9667 N   0  0  0  0  0  0  0  0  0  0  0  0
    7.9151   -3.6164   22.0755 C   0  0  2  0  0  0  0  0  0  0  0  0
    7.1665   -2.3869   21.9606 N   0  0  0  0  0  0  0  0  0  0  0  0
   11.0207   -0.9702   24.8430 C   0  0  0  0  0  0  0  0  0  0  0  0
   13.1608   -2.4865   26.7861 C   0  0  0  0  0  0  0  0  0  0  0  0
   13.9072   -1.8092   27.9141 C   0  0  1  0  0  0  0  0  0  0  0  0
   12.9961   -1.8218   29.1436 C   0  0  0  0  0  0  0  0  0  0  0  0
   11.5921   -1.2289   28.9379 C   0  0  0  0  0  0  0  0  0  0  0  0
   10.7788   -1.5459   30.1156 N   0  0  0  0  0  0  0  0  0  0  0  0
   15.0479   -2.5440   28.2733 O   0  0  0  0  0  0  0  0  0  0  0  0
   15.7186   -2.3939   24.1785 C   0  0  0  0  0  0  0  0  0  0  0  0
   16.5246   -1.8596   23.0045 C   0  0  0  0  0  0  0  0  0  0  0  0
    8.3540   -3.8589   23.5591 C   0  0  1  0  0  0  0  0  0  0  0  0
   16.0362   -0.5593   22.4951 N   0  0  0  0  0  0  0  0  0  0  0  0
    7.2325   -3.8928   24.4202 O   0  0  0  0  0  0  0  0  0  0  0  0
   10.2767   -1.0833   23.5051 C   0  0  2  0  0  0  0  0  0  0  0  0
    8.8319   -1.0699   23.7111 N   0  0  0  0  0  0  0  0  0  0  0  0
   14.4535    0.9489   21.2902 C   0  0  0  0  0  0  0  0  0  0  0  0
   13.7383    1.5438   22.5458 N   0  0  0  0  0  0  0  0  0  0  0  0
   14.9422   -0.5170   21.4839 C   0  0  0  0  0  0  0  0  0  0  0  0
   12.7560   -3.4430   26.5405 O   0  0  0  0  0  0  0  0  0  0  0  0
    9.1222   -5.1833   23.6169 C   0  0  2  0  0  0  0  0  0  0  0  0
    9.5399   -5.4709   24.9416 O   0  0  0  0  0  0  0  0  0  0  0  0
   10.6614   -2.3571   22.7948 C   0  0  2  0  0  0  0  0  0  0  0  0
   10.3503   -5.1261   22.6632 C   0  0  2  0  0  0  0  0  0  0  0  0
    9.9439   -4.8373   21.3093 O   0  0  0  0  0  0  0  0  0  0  0  0
   12.2338   -2.4062   22.5712 C   0  0  2  0  0  0  0  0  0  0  0  0
   12.5674   -3.6461   21.8781 O   0  0  0  0  0  0  0  0  0  0  0  0
   11.1109   -6.3983   22.6621 C   0  0  0  0  0  0  0  0  0  0  0  0
   10.2911   -7.4124   22.3084 N   0  0  0  0  0  0  0  0  0  0  0  0
   12.9457   -2.3522   23.9675 C   0  0  1  0  0  0  0  0  0  0  0  0
   14.3267   -2.4220   23.8071 O   0  0  0  0  0  0  0  0  0  0  0  0
  1  2  1  1  0  0  0
  1  5  1  0  0  0  0
  1 29  1  0  0  0  0
  3  4  1  1  0  0  0
  3  7  1  0  0  0  0
  3 34  1  0  0  0  0
  5  6  1  1  0  0  0
  5 16  1  0  0  0  0
  7 19  1  0  0  0  0
  8  4  1  0  0  0  0
  8 24  2  0  0  0  0
  9  8  1  6  0  0  0
  9 10  1  0  0  0  0
  9 13  1  0  0  0  0
 10 11  1  0  0  0  0
 11 12  1  0  0  0  0
 14 15  1  0  0  0  0
 14 35  1  0  0  0  0
 15 17  1  0  0  0  0
 16 18  1  1  0  0  0
 16 25  1  0  0  0  0
 19 20  1  1  0  0  0
 19 27  1  0  0  0  0
 21 22  1  0  0  0  0
 21 23  1  0  0  0  0
 23 17  1  0  0  0  0
 25 26  1  1  0  0  0
 25 28  1  0  0  0  0
 27  2  1  6  0  0  0
 27 30  1  0  0  0  0
 28 29  1  0  0  0  0
 28 32  1  6  0  0  0
 30 31  1  1  0  0  0
 30 34  1  0  0  0  0
 32 33  2  0  0  0  0
 34 35  1  6  0  0  0
M  END
>  <CHROM.1>
72.27040417,78.58767512,116.61280942,-53.75356154,169.44760970,53.36998576
-148.09851343,-85.99933505,-67.04139370,170.65821085,-129.77581457,57.45470072
53.66423478,11.73619682,-2.59217702,24.07955661,-2.63898581,0.50864271,1.55762245

>  <Name>
2f4t_lig

>  <RI>
0

>  <Rbt.Current_Directory>
/home/itssahil/PROJECTS/Mol_Feturizer/New_Systems/rnas/2f4t

>  <Rbt.Executable>
rbdock ($Id: //depot/dev/client3/rdock/2013.1/src/exe/rbdock.cxx#4 $)

>  <Rbt.Library>
libRbt.so (2013.1, Build901 2013/11/27)

>  <Rbt.Parameter_File>
/export/apps/rDock/src/rDock_2013.1_src/data/scripts/dock_solv.prm

>  <Rbt.Receptor>
prm/blind_docking_60.prm

>  <SCORE>
9.19707

>  <SCORE.INTER>
2.64018

>  <SCORE.INTER.CONST>
1

>  <SCORE.INTER.POLAR>
-0.302167

>  <SCORE.INTER.ROT>
13

>  <SCORE.INTER.SOLV>
18.1898

>  <SCORE.INTER.VDW>
-15.5626

>  <SCORE.INTER.norm>
0.0754338

>  <SCORE.INTRA>
2.25263

>  <SCORE.INTRA.DIHEDRAL>
-6.28063

>  <SCORE.INTRA.DIHEDRAL.0>
23.8882

>  <SCORE.INTRA.POLAR>
0

>  <SCORE.INTRA.POLAR.0>
0

>  <SCORE.INTRA.REPUL>
0

>  <SCORE.INTRA.REPUL.0>
0

>  <SCORE.INTRA.SOLV>
10.5226

>  <SCORE.INTRA.SOLV.lig_0>
-97.6888

>  <SCORE.INTRA.VDW>
0.131643

>  <SCORE.INTRA.VDW.0>
-3.9206

>  <SCORE.INTRA.norm>
0.064361

>  <SCORE.RESTR>
4.30426

>  <SCORE.RESTR.CAVITY>
4.30426

>  <SCORE.RESTR.norm>
0.122979

>  <SCORE.SYSTEM>
0

>  <SCORE.SYSTEM.CONST>
0

>  <SCORE.SYSTEM.DIHEDRAL>
0

>  <SCORE.SYSTEM.SOLV>
0

>  <SCORE.SYSTEM.norm>
0

>  <SCORE.heavy>
35

>  <SCORE.norm>
0.262774

>  <RMSD>
12.160

$$$$
2f4t_lig
 OpenBabel11021811433D
libRbt.so/2013.1/901 2013/11/27
 35 36  0  0  0  0  0  0  0  0999 V2000
   14.8713   -0.5400   24.3989 C   0  0  2  0  0  0  0  0  0  0  0  0
   14.1335   -1.8031   24.3128 O   0  0  0  0  0  0  0  0  0  0  0  0
   12.2325   -4.3116   27.2709 C   0  0  2  0  0  0  0  0  0  0  0  0
   11.4198   -4.7089   28.4304 N   0  0  0  0  0  0  0  0  0  0  0  0
   13.8200    0.5411   24.7932 C   0  0  2  0  0  0  0  0  0  0  0  0
   13.1497    0.1768   26.0193 N   0  0  0  0  0  0  0  0  0  0  0  0
   13.2319   -3.1764   27.7022 C   0  0  0  0  0  0  0  0  0  0  0  0
   10.8446   -3.2661   29.2710 C   0  0  0  0  0  0  0  0  0  0  0  0
   10.1606   -4.2235   30.2216 C   0  0  1  0  0  0  0  0  0  0  0  0
   10.9202   -4.1772   31.5493 C   0  0  0  0  0  0  0  0  0  0  0  0
   11.1594   -5.5368   32.2272 C   0  0  0  0  0  0  0  0  0  0  0  0
    9.8605   -6.1819   32.4414 N   0  0  0  0  0  0  0  0  0  0  0  0
    8.8551   -3.7964   30.5106 O   0  0  0  0  0  0  0  0  0  0  0  0
    9.1719   -5.3620   25.4156 C   0  0  0  0  0  0  0  0  0  0  0  0
    8.4778   -4.4722   24.3959 C   0  0  0  0  0  0  0  0  0  0  0  0
   12.7846    0.7326   23.6340 C   0  0  1  0  0  0  0  0  0  0  0  0
    9.2696   -4.2541   23.1655 N   0  0  0  0  0  0  0  0  0  0  0  0
   11.8233    1.7141   23.9702 O   0  0  0  0  0  0  0  0  0  0  0  0
   14.1058   -2.7076   26.5304 C   0  0  2  0  0  0  0  0  0  0  0  0
   14.9953   -1.6274   26.9451 N   0  0  0  0  0  0  0  0  0  0  0  0
    9.7248   -4.9510   20.8120 C   0  0  0  0  0  0  0  0  0  0  0  0
   10.0996   -3.4435   20.6419 N   0  0  0  0  0  0  0  0  0  0  0  0
    9.6337   -5.4097   22.2975 C   0  0  0  0  0  0  0  0  0  0  0  0
   10.9627   -2.2158   29.1230 O   0  0  0  0  0  0  0  0  0  0  0  0
   13.5537    1.1367   22.3719 C   0  0  2  0  0  0  0  0  0  0  0  0
   12.6696    1.3393   21.2814 O   0  0  0  0  0  0  0  0  0  0  0  0
   13.2436   -2.2259   25.3905 C   0  0  2  0  0  0  0  0  0  0  0  0
   14.6056    0.0457   22.0198 C   0  0  2  0  0  0  0  0  0  0  0  0
   15.5163   -0.1719   23.1175 O   0  0  0  0  0  0  0  0  0  0  0  0
   12.2522   -3.3785   24.9284 C   0  0  2  0  0  0  0  0  0  0  0  0
   11.4404   -2.8797   23.8233 O   0  0  0  0  0  0  0  0  0  0  0  0
   15.3972    0.4060   20.8195 C   0  0  0  0  0  0  0  0  0  0  0  0
   14.5606    0.6863   19.7962 N   0  0  0  0  0  0  0  0  0  0  0  0
   11.3399   -3.7776   26.1399 C   0  0  1  0  0  0  0  0  0  0  0  0
   10.4389   -4.7679   25.7588 O   0  0  0  0  0  0  0  0  0  0  0  0
  1  2  1  6  0  0  0
  1  5  1  0  0  0  0
  1 29  1  0  0  0  0
  3  4  1  1  0  0  0
  3  7  1  0  0  0  0
  3 34  1  0  0  0  0
  5  6  1  1  0  0  0
  5 16  1  0  0  0  0
  7 19  1  0  0  0  0
  8  4  1  0  0  0  0
  8 24  2  0  0  0  0
  9  8  1  6  0  0  0
  9 10  1  0  0  0  0
  9 13  1  0  0  0  0
 10 11  1  0  0  0  0
 11 12  1  0  0  0  0
 14 15  1  0  0  0  0
 14 35  1  0  0  0  0
 15 17  1  0  0  0  0
 16 18  1  1  0  0  0
 16 25  1  0  0  0  0
 19 20  1  1  0  0  0
 19 27  1  0  0  0  0
 21 22  1  0  0  0  0
 21 23  1  0  0  0  0
 23 17  1  0  0  0  0
 25 26  1  6  0  0  0
 25 28  1  0  0  0  0
 27  2  1  6  0  0  0
 27 30  1  0  0  0  0
 28 29  1  0  0  0  0
 28 32  1  6  0  0  0
 30 31  1  6  0  0  0
 30 34  1  0  0  0  0
 32 33  2  0  0  0  0
 34 35  1  6  0  0  0
M  END
>  <CHROM.1>
-49.42554618,45.49238925,108.21304604,-137.69222034,-57.22967040,57.93364628
48.59645650,61.81085680,27.52127715,148.96497441,-74.99558708,-53.74333476
132.15055864,11.99539090,-2.46504165,25.46378158,-1.08902505,0.79400120,1.73828294

>  <Name>
2f4t_lig

>  <RI>
0

>  <Rbt.Current_Directory>
/home/itssahil/PROJECTS/Mol_Feturizer/New_Systems/rnas/2f4t

>  <Rbt.Executable>
rbdock ($Id: //depot/dev/client3/rdock/2013.1/src/exe/rbdock.cxx#4 $)

>  <Rbt.Library>
libRbt.so (2013.1, Build901 2013/11/27)

>  <Rbt.Parameter_File>
/export/apps/rDock/src/rDock_2013.1_src/data/scripts/dock_solv.prm

>  <Rbt.Receptor>
prm/blind_docking_60.prm

>  <SCORE>
13.8111

>  <SCORE.INTER>
1.54556

>  <SCORE.INTER.CONST>
1

>  <SCORE.INTER.POLAR>
0

>  <SCORE.INTER.ROT>
13

>  <SCORE.INTER.SOLV>
13.7291

>  <SCORE.INTER.VDW>
-15.8127

>  <SCORE.INTER.norm>
0.0441589

>  <SCORE.INTRA>
8.51223

>  <SCORE.INTRA.DIHEDRAL>
-2.95725

>  <SCORE.INTRA.DIHEDRAL.0>
23.8882

>  <SCORE.INTRA.POLAR>
0

>  <SCORE.INTRA.POLAR.0>
0

>  <SCORE.INTRA.REPUL>
0

>  <SCORE.INTRA.REPUL.0>
0

>  <SCORE.INTRA.SOLV>
10.9024

>  <SCORE.INTRA.SOLV.lig_0>
-97.6888

>  <SCORE.INTRA.VDW>
4.53965

>  <SCORE.INTRA.VDW.0>
-3.9206

>  <SCORE.INTRA.norm>
0.243207

>  <SCORE.RESTR>
3.75333

>  <SCORE.RESTR.CAVITY>
3.75333

>  <SCORE.RESTR.norm>
0.107238

>  <SCORE.SYSTEM>
0

>  <SCORE.SYSTEM.CONST>
0

>  <SCORE.SYSTEM.DIHEDRAL>
0

>  <SCORE.SYSTEM.SOLV>
0

>  <SCORE.SYSTEM.norm>
0

>  <SCORE.heavy>
35

>  <SCORE.norm>
0.394604

>  <RMSD>
12.204

$$$$
2f4t_lig
 OpenBabel11021811433D
libRbt.so/2013.1/901 2013/11/27
 35 36  0  0  0  0  0  0  0  0999 V2000
   13.6029    0.5767   24.1727 C   0  0  2  0  0  0  0  0  0  0  0  0
   13.8578   -0.8452   24.4183 O   0  0  0  0  0  0  0  0  0  0  0  0
   12.7016   -4.0167   27.1130 C   0  0  2  0  0  0  0  0  0  0  0  0
   12.0748   -4.7024   28.2531 N   0  0  0  0  0  0  0  0  0  0  0  0
   12.0773    0.6902   23.8737 C   0  0  2  0  0  0  0  0  0  0  0  0
   11.3025    0.1421   24.9622 N   0  0  0  0  0  0  0  0  0  0  0  0
   13.5085   -2.7721   27.6358 C   0  0  0  0  0  0  0  0  0  0  0  0
   11.0118   -3.5794   29.1062 C   0  0  0  0  0  0  0  0  0  0  0  0
   10.7082   -4.7373   30.0310 C   0  0  1  0  0  0  0  0  0  0  0  0
    9.5485   -4.3139   30.9353 C   0  0  0  0  0  0  0  0  0  0  0  0
    9.8919   -3.2749   32.0159 C   0  0  0  0  0  0  0  0  0  0  0  0
    8.6759   -2.9841   32.7813 N   0  0  0  0  0  0  0  0  0  0  0  0
   10.2466   -5.8487   29.3087 O   0  0  0  0  0  0  0  0  0  0  0  0
    9.9838   -5.3612   24.8336 C   0  0  0  0  0  0  0  0  0  0  0  0
    9.0857   -4.3759   24.1015 C   0  0  0  0  0  0  0  0  0  0  0  0
   11.7365   -0.0402   22.5311 C   0  0  1  0  0  0  0  0  0  0  0  0
    9.0312   -4.5989   22.6400 N   0  0  0  0  0  0  0  0  0  0  0  0
   10.3560    0.0551   22.2386 O   0  0  0  0  0  0  0  0  0  0  0  0
   14.1810   -2.0035   26.4897 C   0  0  2  0  0  0  0  0  0  0  0  0
   14.8889   -0.8315   26.9950 N   0  0  0  0  0  0  0  0  0  0  0  0
    9.9671   -4.0275   20.3974 C   0  0  0  0  0  0  0  0  0  0  0  0
    8.9505   -4.9182   19.6131 N   0  0  0  0  0  0  0  0  0  0  0  0
   10.2817   -4.5500   21.8304 C   0  0  0  0  0  0  0  0  0  0  0  0
   10.7461   -2.5539   28.9761 O   0  0  0  0  0  0  0  0  0  0  0  0
   12.5722    0.5989   21.4171 C   0  0  2  0  0  0  0  0  0  0  0  0
   12.3013   -0.0107   20.1654 O   0  0  0  0  0  0  0  0  0  0  0  0
   13.1533   -1.5605   25.4785 C   0  0  2  0  0  0  0  0  0  0  0  0
   14.0861    0.4846   21.7578 C   0  0  2  0  0  0  0  0  0  0  0  0
   14.3812    1.1026   23.0277 O   0  0  0  0  0  0  0  0  0  0  0  0
   12.3549   -2.8168   24.9225 C   0  0  2  0  0  0  0  0  0  0  0  0
   11.3764   -2.3518   23.9451 O   0  0  0  0  0  0  0  0  0  0  0  0
   14.9366    1.1162   20.7212 C   0  0  0  0  0  0  0  0  0  0  0  0
   15.5050    2.2337   21.2249 N   0  0  0  0  0  0  0  0  0  0  0  0
   11.6352   -3.5298   26.1196 C   0  0  1  0  0  0  0  0  0  0  0  0
   10.9025   -4.6207   25.6604 O   0  0  0  0  0  0  0  0  0  0  0  0
  1  2  1  6  0  0  0
  1  5  1  0  0  0  0
  1 29  1  0  0  0  0
  3  4  1  1  0  0  0
  3  7  1  0  0  0  0
  3 34  1  0  0  0  0
  5  6  1  1  0  0  0
  5 16  1  0  0  0  0
  7 19  1  0  0  0  0
  8  4  1  0  0  0  0
  8 24  2  0  0  0  0
  9  8  1  6  0  0  0
  9 10  1  0  0  0  0
  9 13  1  0  0  0  0
 10 11  1  0  0  0  0
 11 12  1  0  0  0  0
 14 15  1  0  0  0  0
 14 35  1  0  0  0  0
 15 17  1  0  0  0  0
 16 18  1  6  0  0  0
 16 25  1  0  0  0  0
 19 20  1  1  0  0  0
 19 27  1  0  0  0  0
 21 22  1  0  0  0  0
 21 23  1  0  0  0  0
 23 17  1  0  0  0  0
 25 26  1  6  0  0  0
 25 28  1  0  0  0  0
 27  2  1  6  0  0  0
 27 30  1  0  0  0  0
 28 29  1  0  0  0  0
 28 32  1  6  0  0  0
 30 31  1  6  0  0  0
 30 34  1  0  0  0  0
 32 33  2  0  0  0  0
 34 35  1  6  0  0  0
M  END
>  <CHROM.1>
-58.01174761,58.45653988,-170.79033181,-72.18769278,179.85871407,128.44645752
-18.90180537,-58.65269045,-60.09169328,-148.66654021,-116.17925134,110.45514253
-167.64807971,11.73825506,-2.24196880,25.11876134,-1.16569763,0.85695549
1.70872440

>  <Name>
2f4t_lig

>  <RI>
0

>  <Rbt.Current_Directory>
/home/itssahil/PROJECTS/Mol_Feturizer/New_Systems/rnas/2f4t

>  <Rbt.Executable>
rbdock ($Id: //depot/dev/client3/rdock/2013.1/src/exe/rbdock.cxx#4 $)

>  <Rbt.Library>
libRbt.so (2013.1, Build901 2013/11/27)

>  <Rbt.Parameter_File>
/export/apps/rDock/src/rDock_2013.1_src/data/scripts/dock_solv.prm

>  <Rbt.Receptor>
prm/blind_docking_60.prm

>  <SCORE>
4.38705

>  <SCORE.INTER>
-5.03916

>  <SCORE.INTER.CONST>
1

>  <SCORE.INTER.POLAR>
-0.916515

>  <SCORE.INTER.ROT>
13

>  <SCORE.INTER.SOLV>
14.5849

>  <SCORE.INTER.VDW>
-17.4327

>  <SCORE.INTER.norm>
-0.143976

>  <SCORE.INTRA>
5.50232

>  <SCORE.INTRA.DIHEDRAL>
-2.24638

>  <SCORE.INTRA.DIHEDRAL.0>
23.8882

>  <SCORE.INTRA.POLAR>
0

>  <SCORE.INTRA.POLAR.0>
0

>  <SCORE.INTRA.REPUL>
0

>  <SCORE.INTRA.REPUL.0>
0

>  <SCORE.INTRA.SOLV>
5.72732

>  <SCORE.INTRA.SOLV.lig_0>
-97.6888

>  <SCORE.INTRA.VDW>
3.76185

>  <SCORE.INTRA.VDW.0>
-3.9206

>  <SCORE.INTRA.norm>
0.157209

>  <SCORE.RESTR>
3.92389

>  <SCORE.RESTR.CAVITY>
3.92389

>  <SCORE.RESTR.norm>
0.112111

>  <SCORE.SYSTEM>
0

>  <SCORE.SYSTEM.CONST>
0

>  <SCORE.SYSTEM.DIHEDRAL>
0

>  <SCORE.SYSTEM.SOLV>
0

>  <SCORE.SYSTEM.norm>
0

>  <SCORE.heavy>
35

>  <SCORE.norm>
0.125344

>  <RMSD>
12.257

$$$$
2f4t_lig
 OpenBabel11021811433D
libRbt.so/2013.1/901 2013/11/27
 35 36  0  0  0  0  0  0  0  0999 V2000
    9.3219   -2.2616   21.4390 C   0  0  2  0  0  0  0  0  0  0  0  0
    9.1517   -1.3745   22.5929 O   0  0  0  0  0  0  0  0  0  0  0  0
   11.5374   -0.0393   25.9370 C   0  0  2  0  0  0  0  0  0  0  0  0
   12.4021   -0.0887   27.1254 N   0  0  0  0  0  0  0  0  0  0  0  0
    8.2461   -3.3783   21.5983 C   0  0  2  0  0  0  0  0  0  0  0  0
    6.9252   -2.8030   21.6971 N   0  0  0  0  0  0  0  0  0  0  0  0
   10.2950   -0.9776   26.1597 C   0  0  0  0  0  0  0  0  0  0  0  0
   12.7418   -1.7716   27.5394 C   0  0  0  0  0  0  0  0  0  0  0  0
   13.5681   -1.2130   28.6767 C   0  0  1  0  0  0  0  0  0  0  0  0
   13.1021   -1.8958   29.9645 C   0  0  0  0  0  0  0  0  0  0  0  0
   11.7630   -1.3987   30.5346 C   0  0  0  0  0  0  0  0  0  0  0  0
   10.6828   -1.8894   29.6735 N   0  0  0  0  0  0  0  0  0  0  0  0
   14.9215   -1.5544   28.5286 O   0  0  0  0  0  0  0  0  0  0  0  0
   14.7636    0.7687   24.6381 C   0  0  0  0  0  0  0  0  0  0  0  0
   15.7169   -0.3686   24.3047 C   0  0  0  0  0  0  0  0  0  0  0  0
    8.5622   -4.2542   22.8573 C   0  0  1  0  0  0  0  0  0  0  0  0
   15.9450   -0.5426   22.8534 N   0  0  0  0  0  0  0  0  0  0  0  0
    7.5993   -5.2777   23.0174 O   0  0  0  0  0  0  0  0  0  0  0  0
    9.3545   -0.9796   24.9466 C   0  0  2  0  0  0  0  0  0  0  0  0
    8.2320   -1.8876   25.1607 N   0  0  0  0  0  0  0  0  0  0  0  0
   14.5807   -2.5984   22.4739 C   0  0  0  0  0  0  0  0  0  0  0  0
   15.6973   -3.6271   22.1044 N   0  0  0  0  0  0  0  0  0  0  0  0
   14.8843   -1.1469   21.9983 C   0  0  0  0  0  0  0  0  0  0  0  0
   12.4595   -2.7157   27.1294 O   0  0  0  0  0  0  0  0  0  0  0  0
    9.9629   -4.8501   22.6820 C   0  0  2  0  0  0  0  0  0  0  0  0
   10.3086   -5.6688   23.7874 O   0  0  0  0  0  0  0  0  0  0  0  0
   10.0987   -1.4005   23.7040 C   0  0  2  0  0  0  0  0  0  0  0  0
   11.0065   -3.7093   22.5068 C   0  0  2  0  0  0  0  0  0  0  0  0
   10.6724   -2.8672   21.3840 O   0  0  0  0  0  0  0  0  0  0  0  0
   11.3377   -0.4374   23.4550 C   0  0  2  0  0  0  0  0  0  0  0  0
   12.0284   -0.8701   22.2447 O   0  0  0  0  0  0  0  0  0  0  0  0
   12.3764   -4.2378   22.3041 C   0  0  0  0  0  0  0  0  0  0  0  0
   12.4612   -4.8122   21.0841 N   0  0  0  0  0  0  0  0  0  0  0  0
   12.2989   -0.5188   24.6914 C   0  0  1  0  0  0  0  0  0  0  0  0
   13.4111    0.2941   24.4914 O   0  0  0  0  0  0  0  0  0  0  0  0
  1  2  1  1  0  0  0
  1  5  1  0  0  0  0
  1 29  1  0  0  0  0
  3  4  1  1  0  0  0
  3  7  1  0  0  0  0
  3 34  1  0  0  0  0
  5  6  1  1  0  0  0
  5 16  1  0  0  0  0
  7 19  1  0  0  0  0
  8  4  1  0  0  0  0
  8 24  2  0  0  0  0
  9  8  1  6  0  0  0
  9 10  1  0  0  0  0
  9 13  1  0  0  0  0
 10 11  1  0  0  0  0
 11 12  1  0  0  0  0
 14 15  1  0  0  0  0
 14 35  1  0  0  0  0
 15 17  1  0  0  0  0
 16 18  1  6  0  0  0
 16 25  1  0  0  0  0
 19 20  1  1  0  0  0
 19 27  1  0  0  0  0
 21 22  1  0  0  0  0
 21 23  1  0  0  0  0
 23 17  1  0  0  0  0
 25 26  1  1  0  0  0
 25 28  1  0  0  0  0
 27  2  1  6  0  0  0
 27 30  1  0  0  0  0
 28 29  1  0  0  0  0
 28 32  1  6  0  0  0
 30 31  1  6  0  0  0
 30 34  1  0  0  0  0
 32 33  2  0  0  0  0
 34 35  1  6  0  0  0
M  END
>  <CHROM.1>
105.23648573,50.97414692,127.97074373,-75.98993204,72.49962071,81.94998051
55.36274452,-74.10708866,-73.58393873,-61.27332755,-151.63223645,70.46212294
85.70686048,11.67870535,-2.07735859,24.43208779,2.18007404,-0.31756049,-1.78764424

>  <Name>
2f4t_lig

>  <RI>
0

>  <Rbt.Current_Directory>
/home/itssahil/PROJECTS/Mol_Feturizer/New_Systems/rnas/2f4t

>  <Rbt.Executable>
rbdock ($Id: //depot/dev/client3/rdock/2013.1/src/exe/rbdock.cxx#4 $)

>  <Rbt.Library>
libRbt.so (2013.1, Build901 2013/11/27)

>  <Rbt.Parameter_File>
/export/apps/rDock/src/rDock_2013.1_src/data/scripts/dock_solv.prm

>  <Rbt.Receptor>
prm/blind_docking_60.prm

>  <SCORE>
12.0834

>  <SCORE.INTER>
2.08018

>  <SCORE.INTER.CONST>
1

>  <SCORE.INTER.POLAR>
-1.15376

>  <SCORE.INTER.ROT>
13

>  <SCORE.INTER.SOLV>
15.6944

>  <SCORE.INTER.VDW>
-12.2655

>  <SCORE.INTER.norm>
0.0594338

>  <SCORE.INTRA>
5.98925

>  <SCORE.INTRA.DIHEDRAL>
-3.36256

>  <SCORE.INTRA.DIHEDRAL.0>
23.8882

>  <SCORE.INTRA.POLAR>
0

>  <SCORE.INTRA.POLAR.0>
0

>  <SCORE.INTRA.REPUL>
0

>  <SCORE.INTRA.REPUL.0>
0

>  <SCORE.INTRA.SOLV>
10.8757

>  <SCORE.INTRA.SOLV.lig_0>
-97.6888

>  <SCORE.INTRA.VDW>
2.23266

>  <SCORE.INTRA.VDW.0>
-3.9206

>  <SCORE.INTRA.norm>
0.171121

>  <SCORE.RESTR>
4.01398

>  <SCORE.RESTR.CAVITY>
4.01398

>  <SCORE.RESTR.norm>
0.114685

>  <SCORE.SYSTEM>
0

>  <SCORE.SYSTEM.CONST>
0

>  <SCORE.SYSTEM.DIHEDRAL>
0

>  <SCORE.SYSTEM.SOLV>
0

>  <SCORE.SYSTEM.norm>
0

>  <SCORE.heavy>
35

>  <SCORE.norm>
0.34524

>  <RMSD>
12.257

$$$$
2f4t_lig
 OpenBabel11021811433D
libRbt.so/2013.1/901 2013/11/27
 35 36  0  0  0  0  0  0  0  0999 V2000
    9.3755   -2.2304   21.2889 C   0  0  2  0  0  0  0  0  0  0  0  0
    9.1026   -1.1304   22.2179 O   0  0  0  0  0  0  0  0  0  0  0  0
   10.7908    0.5538   25.8194 C   0  0  2  0  0  0  0  0  0  0  0  0
   11.3938    0.6315   27.1584 N   0  0  0  0  0  0  0  0  0  0  0  0
    8.3178   -3.3298   21.6087 C   0  0  2  0  0  0  0  0  0  0  0  0
    6.9800   -2.7972   21.4992 N   0  0  0  0  0  0  0  0  0  0  0  0
    9.5054   -0.3503   25.8807 C   0  0  0  0  0  0  0  0  0  0  0  0
   12.0969   -0.9324   27.5814 C   0  0  0  0  0  0  0  0  0  0  0  0
   12.5066   -0.2760   28.8812 C   0  0  1  0  0  0  0  0  0  0  0  0
   12.7570   -1.3888   29.9014 C   0  0  0  0  0  0  0  0  0  0  0  0
   11.4984   -2.0250   30.5149 C   0  0  0  0  0  0  0  0  0  0  0  0
   10.8431   -2.8388   29.4866 N   0  0  0  0  0  0  0  0  0  0  0  0
   13.7297    0.3979   28.7394 O   0  0  0  0  0  0  0  0  0  0  0  0
   14.2208    1.1677   24.3103 C   0  0  0  0  0  0  0  0  0  0  0  0
   15.1739   -0.0176   24.3154 C   0  0  0  0  0  0  0  0  0  0  0  0
    8.5643   -3.9129   23.0411 C   0  0  1  0  0  0  0  0  0  0  0  0
   14.6827   -1.1745   23.5350 N   0  0  0  0  0  0  0  0  0  0  0  0
    7.6169   -4.9168   23.3494 O   0  0  0  0  0  0  0  0  0  0  0  0
    8.8319   -0.4816   24.5075 C   0  0  2  0  0  0  0  0  0  0  0  0
    7.6663   -1.3569   24.5818 N   0  0  0  0  0  0  0  0  0  0  0  0
   15.5342   -0.6234   21.2541 C   0  0  0  0  0  0  0  0  0  0  0  0
   14.1450    0.0077   20.9170 N   0  0  0  0  0  0  0  0  0  0  0  0
   15.4785   -1.6918   22.3859 C   0  0  0  0  0  0  0  0  0  0  0  0
   12.1675   -1.8788   27.0931 O   0  0  0  0  0  0  0  0  0  0  0  0
    9.9876   -4.4785   23.0854 C   0  0  2  0  0  0  0  0  0  0  0  0
   10.2730   -5.0365   24.3578 O   0  0  0  0  0  0  0  0  0  0  0  0
    9.8025   -1.0382   23.4961 C   0  0  2  0  0  0  0  0  0  0  0  0
   11.0136   -3.3600   22.7429 C   0  0  2  0  0  0  0  0  0  0  0  0
   10.7404   -2.7824   21.4494 O   0  0  0  0  0  0  0  0  0  0  0  0
   11.0907   -0.1122   23.4059 C   0  0  2  0  0  0  0  0  0  0  0  0
   12.0020   -0.6769   22.4160 O   0  0  0  0  0  0  0  0  0  0  0  0
   12.4066   -3.8665   22.7444 C   0  0  0  0  0  0  0  0  0  0  0  0
   12.5087   -4.9054   21.8865 N   0  0  0  0  0  0  0  0  0  0  0  0
   11.7774   -0.0615   24.8148 C   0  0  1  0  0  0  0  0  0  0  0  0
   12.9276    0.7210   24.7621 O   0  0  0  0  0  0  0  0  0  0  0  0
  1  2  1  1  0  0  0
  1  5  1  0  0  0  0
  1 29  1  0  0  0  0
  3  4  1  1  0  0  0
  3  7  1  0  0  0  0
  3 34  1  0  0  0  0
  5  6  1  1  0  0  0
  5 16  1  0  0  0  0
  7 19  1  0  0  0  0
  8  4  1  0  0  0  0
  8 24  2  0  0  0  0
  9  8  1  6  0  0  0
  9 10  1  0  0  0  0
  9 13  1  0  0  0  0
 10 11  1  0  0  0  0
 11 12  1  0  0  0  0
 14 15  1  0  0  0  0
 14 35  1  0  0  0  0
 15 17  1  0  0  0  0
 16 18  1  6  0  0  0
 16 25  1  0  0  0  0
 19 20  1  1  0  0  0
 19 27  1  0  0  0  0
 21 22  1  0  0  0  0
 21 23  1  0  0  0  0
 23 17  1  0  0  0  0
 25 26  1  1  0  0  0
 25 28  1  0  0  0  0
 27  2  1  6  0  0  0
 27 30  1  0  0  0  0
 28 29  1  0  0  0  0
 28 32  1  6  0  0  0
 30 31  1  6  0  0  0
 30 34  1  0  0  0  0
 32 33  2  0  0  0  0
 34 35  1  6  0  0  0
M  END
>  <CHROM.1>
93.47635006,70.06122735,159.36545459,-77.30115789,71.33737462,54.62543280
-52.15685808,120.46814675,-47.10938309,-65.61066548,-144.60389969,56.11015379
-174.55513816,11.36943056,-1.61122437,24.42819182,-2.08756369,0.46634633
1.40155963

>  <Name>
2f4t_lig

>  <RI>
0

>  <Rbt.Current_Directory>
/home/itssahil/PROJECTS/Mol_Feturizer/New_Systems/rnas/2f4t

>  <Rbt.Executable>
rbdock ($Id: //depot/dev/client3/rdock/2013.1/src/exe/rbdock.cxx#4 $)

>  <Rbt.Library>
libRbt.so (2013.1, Build901 2013/11/27)

>  <Rbt.Parameter_File>
/export/apps/rDock/src/rDock_2013.1_src/data/scripts/dock_solv.prm

>  <Rbt.Receptor>
prm/blind_docking_60.prm

>  <SCORE>
5.29704

>  <SCORE.INTER>
0.584889

>  <SCORE.INTER.CONST>
1

>  <SCORE.INTER.POLAR>
-0.77953

>  <SCORE.INTER.ROT>
13

>  <SCORE.INTER.SOLV>
15.5223

>  <SCORE.INTER.VDW>
-14.4524

>  <SCORE.INTER.norm>
0.0167111

>  <SCORE.INTRA>
2.27349

>  <SCORE.INTRA.DIHEDRAL>
-8.02188

>  <SCORE.INTRA.DIHEDRAL.0>
23.8882

>  <SCORE.INTRA.POLAR>
0

>  <SCORE.INTRA.POLAR.0>
0

>  <SCORE.INTRA.REPUL>
0

>  <SCORE.INTRA.REPUL.0>
0

>  <SCORE.INTRA.SOLV>
13.6996

>  <SCORE.INTRA.SOLV.lig_0>
-97.6888

>  <SCORE.INTRA.VDW>
-0.565395

>  <SCORE.INTRA.VDW.0>
-3.9206

>  <SCORE.INTRA.norm>
0.0649569

>  <SCORE.RESTR>
2.43866

>  <SCORE.RESTR.CAVITY>
2.43866

>  <SCORE.RESTR.norm>
0.0696761

>  <SCORE.SYSTEM>
0

>  <SCORE.SYSTEM.CONST>
0

>  <SCORE.SYSTEM.DIHEDRAL>
0

>  <SCORE.SYSTEM.SOLV>
0

>  <SCORE.SYSTEM.norm>
0

>  <SCORE.heavy>
35

>  <SCORE.norm>
0.151344

>  <RMSD>
12.317

$$$$
2f4t_lig
 OpenBabel11021811433D
libRbt.so/2013.1/901 2013/11/27
 35 36  0  0  0  0  0  0  0  0999 V2000
   11.4062   -4.7158   28.0732 C   0  0  2  0  0  0  0  0  0  0  0  0
   10.1172   -4.3826   27.4610 O   0  0  0  0  0  0  0  0  0  0  0  0
   10.9581   -4.4258   23.2245 C   0  0  2  0  0  0  0  0  0  0  0  0
   10.7915   -4.2079   21.7797 N   0  0  0  0  0  0  0  0  0  0  0  0
   11.0761   -5.6403   29.2839 C   0  0  2  0  0  0  0  0  0  0  0  0
   10.3234   -6.7950   28.8530 N   0  0  0  0  0  0  0  0  0  0  0  0
    9.6707   -5.1258   23.7956 C   0  0  0  0  0  0  0  0  0  0  0  0
    9.1913   -3.5303   21.4651 C   0  0  0  0  0  0  0  0  0  0  0  0
    9.5959   -3.5300   20.0075 C   0  0  1  0  0  0  0  0  0  0  0  0
    9.6251   -4.9857   19.5363 C   0  0  0  0  0  0  0  0  0  0  0  0
    9.6105   -5.1926   18.0124 C   0  0  0  0  0  0  0  0  0  0  0  0
    9.4357   -6.6226   17.7413 N   0  0  0  0  0  0  0  0  0  0  0  0
    8.6278   -2.8898   19.2182 O   0  0  0  0  0  0  0  0  0  0  0  0
   13.6704   -2.2609   23.1011 C   0  0  0  0  0  0  0  0  0  0  0  0
   13.9597   -0.7684   23.0538 C   0  0  0  0  0  0  0  0  0  0  0  0
   10.2839   -4.8396   30.3719 C   0  0  1  0  0  0  0  0  0  0  0  0
   12.7834    0.0505   22.6874 N   0  0  0  0  0  0  0  0  0  0  0  0
    9.9783   -5.6602   31.4826 O   0  0  0  0  0  0  0  0  0  0  0  0
    9.7763   -5.3729   25.3070 C   0  0  2  0  0  0  0  0  0  0  0  0
    8.5549   -5.9854   25.8201 N   0  0  0  0  0  0  0  0  0  0  0  0
   10.9745    0.3397   24.3831 C   0  0  0  0  0  0  0  0  0  0  0  0
   10.1945    1.3121   25.3254 N   0  0  0  0  0  0  0  0  0  0  0  0
   12.1963    0.9981   23.6767 C   0  0  0  0  0  0  0  0  0  0  0  0
    8.3574   -3.2635   22.0755 O   0  0  0  0  0  0  0  0  0  0  0  0
   11.1413   -3.6443   30.8004 C   0  0  2  0  0  0  0  0  0  0  0  0
   10.4846   -2.8799   31.7985 O   0  0  0  0  0  0  0  0  0  0  0  0
   10.0212   -4.0758   26.0367 C   0  0  2  0  0  0  0  0  0  0  0  0
   11.4671   -2.7554   29.5656 C   0  0  2  0  0  0  0  0  0  0  0  0
   12.1388   -3.5163   28.5402 O   0  0  0  0  0  0  0  0  0  0  0  0
   11.3383   -3.3779   25.4863 C   0  0  2  0  0  0  0  0  0  0  0  0
   11.5462   -2.1324   26.2176 O   0  0  0  0  0  0  0  0  0  0  0  0
   12.3213   -1.5988   29.9252 C   0  0  0  0  0  0  0  0  0  0  0  0
   13.5062   -1.6975   29.2833 N   0  0  0  0  0  0  0  0  0  0  0  0
   11.1566   -3.0890   23.9557 C   0  0  1  0  0  0  0  0  0  0  0  0
   12.2850   -2.4508   23.4485 O   0  0  0  0  0  0  0  0  0  0  0  0
  1  2  1  1  0  0  0
  1  5  1  0  0  0  0
  1 29  1  0  0  0  0
  3  4  1  6  0  0  0
  3  7  1  0  0  0  0
  3 34  1  0  0  0  0
  5  6  1  6  0  0  0
  5 16  1  0  0  0  0
  7 19  1  0  0  0  0
  8  4  1  0  0  0  0
  8 24  2  0  0  0  0
  9  8  1  1  0  0  0
  9 10  1  0  0  0  0
  9 13  1  0  0  0  0
 10 11  1  0  0  0  0
 11 12  1  0  0  0  0
 14 15  1  0  0  0  0
 14 35  1  0  0  0  0
 15 17  1  0  0  0  0
 16 18  1  1  0  0  0
 16 25  1  0  0  0  0
 19 20  1  1  0  0  0
 19 27  1  0  0  0  0
 21 22  1  0  0  0  0
 21 23  1  0  0  0  0
 23 17  1  0  0  0  0
 25 26  1  1  0  0  0
 25 28  1  0  0  0  0
 27  2  1  1  0  0  0
 27 30  1  0  0  0  0
 28 29  1  0  0  0  0
 28 32  1  1  0  0  0
 30 31  1  1  0  0  0
 30 34  1  0  0  0  0
 32 33  2  0  0  0  0
 34 35  1  6  0  0  0
M  END
>  <CHROM.1>
-151.88388513,46.11775688,71.22350168,162.93781549,-171.48726926,-29.00259724
-154.29858882,114.42792593,-173.61895361,-97.52082756,89.61218235,116.80676849
-58.87173537,10.80929849,-3.37836034,25.17557018,1.32973708,1.08831921,1.79385105

>  <Name>
2f4t_lig

>  <RI>
0

>  <Rbt.Current_Directory>
/home/itssahil/PROJECTS/Mol_Feturizer/New_Systems/rnas/2f4t

>  <Rbt.Executable>
rbdock ($Id: //depot/dev/client3/rdock/2013.1/src/exe/rbdock.cxx#4 $)

>  <Rbt.Library>
libRbt.so (2013.1, Build901 2013/11/27)

>  <Rbt.Parameter_File>
/export/apps/rDock/src/rDock_2013.1_src/data/scripts/dock_solv.prm

>  <Rbt.Receptor>
prm/blind_docking_60.prm

>  <SCORE>
4.13058

>  <SCORE.INTER>
-2.29986

>  <SCORE.INTER.CONST>
1

>  <SCORE.INTER.POLAR>
-1.2579

>  <SCORE.INTER.ROT>
13

>  <SCORE.INTER.SOLV>
22.7361

>  <SCORE.INTER.VDW>
-17.1856

>  <SCORE.INTER.norm>
-0.0657102

>  <SCORE.INTRA>
1.39072

>  <SCORE.INTRA.DIHEDRAL>
-6.11297

>  <SCORE.INTRA.DIHEDRAL.0>
23.8882

>  <SCORE.INTRA.POLAR>
0

>  <SCORE.INTRA.POLAR.0>
0

>  <SCORE.INTRA.REPUL>
0

>  <SCORE.INTRA.REPUL.0>
0

>  <SCORE.INTRA.SOLV>
2.54756

>  <SCORE.INTRA.SOLV.lig_0>
-97.6888

>  <SCORE.INTRA.VDW>
3.17343

>  <SCORE.INTRA.VDW.0>
-3.9206

>  <SCORE.INTRA.norm>
0.0397349

>  <SCORE.RESTR>
5.03972

>  <SCORE.RESTR.CAVITY>
5.03972

>  <SCORE.RESTR.norm>
0.143992

>  <SCORE.SYSTEM>
0

>  <SCORE.SYSTEM.CONST>
0

>  <SCORE.SYSTEM.DIHEDRAL>
0

>  <SCORE.SYSTEM.SOLV>
0

>  <SCORE.SYSTEM.norm>
0

>  <SCORE.heavy>
35

>  <SCORE.norm>
0.118017

>  <RMSD>
12.347

$$$$
2f4t_lig
 OpenBabel11021811433D
libRbt.so/2013.1/901 2013/11/27
 35 36  0  0  0  0  0  0  0  0999 V2000
   13.3901    0.9487   24.1597 C   0  0  2  0  0  0  0  0  0  0  0  0
   13.7198   -0.4349   24.5120 O   0  0  0  0  0  0  0  0  0  0  0  0
   12.7527   -3.4397   27.4604 C   0  0  2  0  0  0  0  0  0  0  0  0
   12.1742   -4.0641   28.6597 N   0  0  0  0  0  0  0  0  0  0  0  0
   11.9228    0.9161   23.6347 C   0  0  2  0  0  0  0  0  0  0  0  0
   11.0401    0.3438   24.6241 N   0  0  0  0  0  0  0  0  0  0  0  0
   13.5046   -2.1214   27.8731 C   0  0  0  0  0  0  0  0  0  0  0  0
   10.8972   -3.0299   29.3066 C   0  0  0  0  0  0  0  0  0  0  0  0
   10.7250   -4.0907   30.3710 C   0  0  1  0  0  0  0  0  0  0  0  0
   10.8012   -3.3955   31.7322 C   0  0  0  0  0  0  0  0  0  0  0  0
   12.0955   -2.6121   32.0080 C   0  0  0  0  0  0  0  0  0  0  0  0
   12.2064   -1.5378   31.0167 N   0  0  0  0  0  0  0  0  0  0  0  0
    9.4463   -4.6657   30.3041 O   0  0  0  0  0  0  0  0  0  0  0  0
   10.1950   -5.4437   26.2569 C   0  0  0  0  0  0  0  0  0  0  0  0
    9.3577   -5.6644   25.0065 C   0  0  0  0  0  0  0  0  0  0  0  0
   11.8485    0.1078   22.2954 C   0  0  1  0  0  0  0  0  0  0  0  0
   10.1586   -5.7438   23.7652 N   0  0  0  0  0  0  0  0  0  0  0  0
   10.5247    0.0701   21.7990 O   0  0  0  0  0  0  0  0  0  0  0  0
   14.1247   -1.4128   26.6607 C   0  0  2  0  0  0  0  0  0  0  0  0
   14.7810   -0.1728   27.0631 N   0  0  0  0  0  0  0  0  0  0  0  0
   10.1443   -4.8077   21.4511 C   0  0  0  0  0  0  0  0  0  0  0  0
    9.3596   -4.6329   20.1111 N   0  0  0  0  0  0  0  0  0  0  0  0
    9.4781   -5.8088   22.4407 C   0  0  0  0  0  0  0  0  0  0  0  0
   10.4811   -2.0882   29.0250 O   0  0  0  0  0  0  0  0  0  0  0  0
   12.7877    0.7750   21.2852 C   0  0  2  0  0  0  0  0  0  0  0  0
   12.7588    0.0966   20.0399 O   0  0  0  0  0  0  0  0  0  0  0  0
   13.0642   -1.0987   25.6352 C   0  0  2  0  0  0  0  0  0  0  0  0
   14.2373    0.8073   21.8497 C   0  0  2  0  0  0  0  0  0  0  0  0
   14.2866    1.4969   23.1161 O   0  0  0  0  0  0  0  0  0  0  0  0
   12.3210   -2.4308   25.1902 C   0  0  2  0  0  0  0  0  0  0  0  0
   11.3089   -2.0898   24.1959 O   0  0  0  0  0  0  0  0  0  0  0  0
   15.1800    1.4712   20.9184 C   0  0  0  0  0  0  0  0  0  0  0  0
   15.9230    0.5356   20.2873 N   0  0  0  0  0  0  0  0  0  0  0  0
   11.6517   -3.0823   26.4499 C   0  0  1  0  0  0  0  0  0  0  0  0
   10.9672   -4.2391   26.0876 O   0  0  0  0  0  0  0  0  0  0  0  0
  1  2  1  6  0  0  0
  1  5  1  0  0  0  0
  1 29  1  0  0  0  0
  3  4  1  1  0  0  0
  3  7  1  0  0  0  0
  3 34  1  0  0  0  0
  5  6  1  1  0  0  0
  5 16  1  0  0  0  0
  7 19  1  0  0  0  0
  8  4  1  0  0  0  0
  8 24  2  0  0  0  0
  9  8  1  6  0  0  0
  9 10  1  0  0  0  0
  9 13  1  0  0  0  0
 10 11  1  0  0  0  0
 11 12  1  0  0  0  0
 14 15  1  0  0  0  0
 14 35  1  0  0  0  0
 15 17  1  0  0  0  0
 16 18  1  6  0  0  0
 16 25  1  0  0  0  0
 19 20  1  1  0  0  0
 19 27  1  0  0  0  0
 21 22  1  0  0  0  0
 21 23  1  0  0  0  0
 23 17  1  0  0  0  0
 25 26  1  6  0  0  0
 25 28  1  0  0  0  0
 27  2  1  6  0  0  0
 27 30  1  0  0  0  0
 28 29  1  0  0  0  0
 28 32  1  6  0  0  0
 30 31  1  6  0  0  0
 30 34  1  0  0  0  0
 32 33  2  0  0  0  0
 34 35  1  6  0  0  0
M  END
>  <CHROM.1>
-67.70635556,66.71284160,127.36166497,-57.84283527,62.01109628,57.11051682
150.71784611,-173.34462719,-170.63418793,133.42985992,-116.36650993,-103.48528712
56.59901899,11.96296894,-2.02202701,25.31720968,-1.20024918,0.92730878,1.68683655

>  <Name>
2f4t_lig

>  <RI>
0

>  <Rbt.Current_Directory>
/home/itssahil/PROJECTS/Mol_Feturizer/New_Systems/rnas/2f4t

>  <Rbt.Executable>
rbdock ($Id: //depot/dev/client3/rdock/2013.1/src/exe/rbdock.cxx#4 $)

>  <Rbt.Library>
libRbt.so (2013.1, Build901 2013/11/27)

>  <Rbt.Parameter_File>
/export/apps/rDock/src/rDock_2013.1_src/data/scripts/dock_solv.prm

>  <Rbt.Receptor>
prm/blind_docking_60.prm

>  <SCORE>
-1.88724

>  <SCORE.INTER>
-7.398

>  <SCORE.INTER.CONST>
1

>  <SCORE.INTER.POLAR>
-0.709883

>  <SCORE.INTER.ROT>
13

>  <SCORE.INTER.SOLV>
13.4755

>  <SCORE.INTER.VDW>
-19.3242

>  <SCORE.INTER.norm>
-0.211372

>  <SCORE.INTRA>
1.27318

>  <SCORE.INTRA.DIHEDRAL>
-8.09639

>  <SCORE.INTRA.DIHEDRAL.0>
23.8882

>  <SCORE.INTRA.POLAR>
0

>  <SCORE.INTRA.POLAR.0>
0

>  <SCORE.INTRA.REPUL>
0

>  <SCORE.INTRA.REPUL.0>
0

>  <SCORE.INTRA.SOLV>
9.10515

>  <SCORE.INTRA.SOLV.lig_0>
-97.6888

>  <SCORE.INTRA.VDW>
0.768803

>  <SCORE.INTRA.VDW.0>
-3.9206

>  <SCORE.INTRA.norm>
0.0363766

>  <SCORE.RESTR>
4.23758

>  <SCORE.RESTR.CAVITY>
4.23758

>  <SCORE.RESTR.norm>
0.121074

>  <SCORE.SYSTEM>
0

>  <SCORE.SYSTEM.CONST>
0

>  <SCORE.SYSTEM.DIHEDRAL>
0

>  <SCORE.SYSTEM.SOLV>
0

>  <SCORE.SYSTEM.norm>
0

>  <SCORE.heavy>
35

>  <SCORE.norm>
-0.0539212

>  <RMSD>
12.456

$$$$
2f4t_lig
 OpenBabel11021811433D
libRbt.so/2013.1/901 2013/11/27
 35 36  0  0  0  0  0  0  0  0999 V2000
    9.4748   -2.4178   21.1691 C   0  0  2  0  0  0  0  0  0  0  0  0
    9.5008   -1.4080   22.2306 O   0  0  0  0  0  0  0  0  0  0  0  0
   11.9773   -0.4022   25.6236 C   0  0  2  0  0  0  0  0  0  0  0  0
   12.7591   -0.5588   26.8593 N   0  0  0  0  0  0  0  0  0  0  0  0
    8.2936   -3.3728   21.5190 C   0  0  2  0  0  0  0  0  0  0  0  0
    7.0600   -2.6327   21.6451 N   0  0  0  0  0  0  0  0  0  0  0  0
   10.5513   -1.0332   25.8283 C   0  0  0  0  0  0  0  0  0  0  0  0
   13.2581   -2.2439   27.0332 C   0  0  0  0  0  0  0  0  0  0  0  0
   13.9365   -1.7993   28.3101 C   0  0  1  0  0  0  0  0  0  0  0  0
   13.0286   -2.1947   29.4769 C   0  0  0  0  0  0  0  0  0  0  0  0
   11.6046   -1.6153   29.4384 C   0  0  0  0  0  0  0  0  0  0  0  0
   10.8202   -2.2440   30.5054 N   0  0  0  0  0  0  0  0  0  0  0  0
   15.1401   -2.4940   28.5069 O   0  0  0  0  0  0  0  0  0  0  0  0
   15.3384   -0.5407   23.9313 C   0  0  0  0  0  0  0  0  0  0  0  0
   15.4775   -0.6405   22.4199 C   0  0  0  0  0  0  0  0  0  0  0  0
    8.6064   -4.1536   22.8399 C   0  0  1  0  0  0  0  0  0  0  0  0
   15.1929    0.6286   21.7150 N   0  0  0  0  0  0  0  0  0  0  0  0
    7.5478   -5.0305   23.1730 O   0  0  0  0  0  0  0  0  0  0  0  0
    9.6853   -0.9119   24.5666 C   0  0  2  0  0  0  0  0  0  0  0  0
    8.3832   -1.5398   24.7676 N   0  0  0  0  0  0  0  0  0  0  0  0
   14.4883    0.8853   19.3340 C   0  0  0  0  0  0  0  0  0  0  0  0
   13.3187    1.0654   18.3133 N   0  0  0  0  0  0  0  0  0  0  0  0
   14.0137    0.7310   20.8092 C   0  0  0  0  0  0  0  0  0  0  0  0
   13.1129   -3.1314   26.4584 O   0  0  0  0  0  0  0  0  0  0  0  0
    9.9105   -4.9314   22.6347 C   0  0  2  0  0  0  0  0  0  0  0  0
   10.2469   -5.6744   23.7951 O   0  0  0  0  0  0  0  0  0  0  0  0
   10.3712   -1.5646   23.3925 C   0  0  2  0  0  0  0  0  0  0  0  0
   11.0612   -3.9501   22.2686 C   0  0  2  0  0  0  0  0  0  0  0  0
   10.7377   -3.1871   21.0876 O   0  0  0  0  0  0  0  0  0  0  0  0
   11.8005   -0.9105   23.1601 C   0  0  2  0  0  0  0  0  0  0  0  0
   12.4302   -1.5610   22.0158 O   0  0  0  0  0  0  0  0  0  0  0  0
   12.3404   -4.6601   22.0310 C   0  0  0  0  0  0  0  0  0  0  0  0
   13.3721   -3.8453   22.3433 N   0  0  0  0  0  0  0  0  0  0  0  0
   12.6673   -1.1159   24.4507 C   0  0  1  0  0  0  0  0  0  0  0  0
   13.9380   -0.5775   24.2684 O   0  0  0  0  0  0  0  0  0  0  0  0
  1  2  1  1  0  0  0
  1  5  1  0  0  0  0
  1 29  1  0  0  0  0
  3  4  1  1  0  0  0
  3  7  1  0  0  0  0
  3 34  1  0  0  0  0
  5  6  1  1  0  0  0
  5 16  1  0  0  0  0
  7 19  1  0  0  0  0
  8  4  1  0  0  0  0
  8 24  2  0  0  0  0
  9  8  1  6  0  0  0
  9 10  1  0  0  0  0
  9 13  1  0  0  0  0
 10 11  1  0  0  0  0
 11 12  1  0  0  0  0
 14 15  1  0  0  0  0
 14 35  1  0  0  0  0
 15 17  1  0  0  0  0
 16 18  1  6  0  0  0
 16 25  1  0  0  0  0
 19 20  1  1  0  0  0
 19 27  1  0  0  0  0
 21 22  1  0  0  0  0
 21 23  1  0  0  0  0
 23 17  1  0  0  0  0
 25 26  1  1  0  0  0
 25 28  1  0  0  0  0
 27  2  1  6  0  0  0
 27 30  1  0  0  0  0
 28 29  1  0  0  0  0
 28 32  1  6  0  0  0
 30 31  1  6  0  0  0
 30 34  1  0  0  0  0
 32 33  2  0  0  0  0
 34 35  1  6  0  0  0
M  END
>  <CHROM.1>
94.67045605,73.68866650,100.62368896,-57.93967988,171.76178103,77.94440600
72.16952877,-114.32438744,-177.39091450,-112.15141955,-148.69654491,-151.15838210
147.38322489,11.76633366,-1.98727539,23.93896385,1.86994769,-0.53617719,-1.42657814

>  <Name>
2f4t_lig

>  <RI>
0

>  <Rbt.Current_Directory>
/home/itssahil/PROJECTS/Mol_Feturizer/New_Systems/rnas/2f4t

>  <Rbt.Executable>
rbdock ($Id: //depot/dev/client3/rdock/2013.1/src/exe/rbdock.cxx#4 $)

>  <Rbt.Library>
libRbt.so (2013.1, Build901 2013/11/27)

>  <Rbt.Parameter_File>
/export/apps/rDock/src/rDock_2013.1_src/data/scripts/dock_solv.prm

>  <Rbt.Receptor>
prm/blind_docking_60.prm

>  <SCORE>
7.78483

>  <SCORE.INTER>
2.76993

>  <SCORE.INTER.CONST>
1

>  <SCORE.INTER.POLAR>
-1.10435

>  <SCORE.INTER.ROT>
13

>  <SCORE.INTER.SOLV>
20.4681

>  <SCORE.INTER.VDW>
-13.5616

>  <SCORE.INTER.norm>
0.0791409

>  <SCORE.INTRA>
1.67043

>  <SCORE.INTRA.DIHEDRAL>
-3.3896

>  <SCORE.INTRA.DIHEDRAL.0>
23.8882

>  <SCORE.INTRA.POLAR>
0

>  <SCORE.INTRA.POLAR.0>
0

>  <SCORE.INTRA.REPUL>
0

>  <SCORE.INTRA.REPUL.0>
0

>  <SCORE.INTRA.SOLV>
5.31463

>  <SCORE.INTRA.SOLV.lig_0>
-97.6888

>  <SCORE.INTRA.VDW>
0.707912

>  <SCORE.INTRA.VDW.0>
-3.9206

>  <SCORE.INTRA.norm>
0.0477265

>  <SCORE.RESTR>
3.34447

>  <SCORE.RESTR.CAVITY>
3.34447

>  <SCORE.RESTR.norm>
0.0955563

>  <SCORE.SYSTEM>
0

>  <SCORE.SYSTEM.CONST>
0

>  <SCORE.SYSTEM.DIHEDRAL>
0

>  <SCORE.SYSTEM.SOLV>
0

>  <SCORE.SYSTEM.norm>
0

>  <SCORE.heavy>
35

>  <SCORE.norm>
0.222424

>  <RMSD>
12.619

$$$$
2f4t_lig
 OpenBabel11021811433D
libRbt.so/2013.1/901 2013/11/27
 35 36  0  0  0  0  0  0  0  0999 V2000
   14.3327    1.0494   24.5979 C   0  0  2  0  0  0  0  0  0  0  0  0
   13.0348    0.5444   25.0538 O   0  0  0  0  0  0  0  0  0  0  0  0
   10.4376   -2.8737   24.5764 C   0  0  2  0  0  0  0  0  0  0  0  0
    9.8465   -4.0912   24.0011 N   0  0  0  0  0  0  0  0  0  0  0  0
   14.0770    1.6723   23.1921 C   0  0  2  0  0  0  0  0  0  0  0  0
   13.0526    2.6877   23.2633 N   0  0  0  0  0  0  0  0  0  0  0  0
   10.5113   -1.7593   23.4690 C   0  0  0  0  0  0  0  0  0  0  0  0
    8.4486   -3.6589   23.0123 C   0  0  0  0  0  0  0  0  0  0  0  0
    8.3198   -5.1408   22.7374 C   0  0  1  0  0  0  0  0  0  0  0  0
    9.5712   -5.5790   21.9732 C   0  0  0  0  0  0  0  0  0  0  0  0
    9.9627   -4.6973   20.7756 C   0  0  0  0  0  0  0  0  0  0  0  0
    8.8694   -4.7304   19.7996 N   0  0  0  0  0  0  0  0  0  0  0  0
    8.3229   -5.8752   23.9336 O   0  0  0  0  0  0  0  0  0  0  0  0
   11.3958   -4.8216   27.2655 C   0  0  0  0  0  0  0  0  0  0  0  0
   11.4082   -3.8214   28.4113 C   0  0  0  0  0  0  0  0  0  0  0  0
   13.6750    0.5533   22.1729 C   0  0  1  0  0  0  0  0  0  0  0  0
   12.7502   -3.2696   28.6998 N   0  0  0  0  0  0  0  0  0  0  0  0
   13.4429    1.0976   20.8883 O   0  0  0  0  0  0  0  0  0  0  0  0
   11.1311   -0.4609   24.0041 C   0  0  2  0  0  0  0  0  0  0  0  0
   11.2260    0.5431   22.9489 N   0  0  0  0  0  0  0  0  0  0  0  0
   11.7994   -1.1242   29.5512 C   0  0  0  0  0  0  0  0  0  0  0  0
   11.8141    0.4371   29.4876 N   0  0  0  0  0  0  0  0  0  0  0  0
   12.9554   -1.7942   28.7511 C   0  0  0  0  0  0  0  0  0  0  0  0
    7.9631   -2.7422   22.7613 O   0  0  0  0  0  0  0  0  0  0  0  0
   14.8074   -0.4778   22.1284 C   0  0  2  0  0  0  0  0  0  0  0  0
   14.5117   -1.5178   21.2103 O   0  0  0  0  0  0  0  0  0  0  0  0
   12.5087   -0.7245   24.5588 C   0  0  2  0  0  0  0  0  0  0  0  0
   15.0476   -1.0635   23.5498 C   0  0  2  0  0  0  0  0  0  0  0  0
   15.3531   -0.0193   24.4974 O   0  0  0  0  0  0  0  0  0  0  0  0
   12.4376   -1.8274   25.7005 C   0  0  2  0  0  0  0  0  0  0  0  0
   13.7840   -2.0514   26.2164 O   0  0  0  0  0  0  0  0  0  0  0  0
   16.1563   -2.0471   23.5638 C   0  0  0  0  0  0  0  0  0  0  0  0
   15.6492   -3.2978   23.4974 N   0  0  0  0  0  0  0  0  0  0  0  0
   11.8588   -3.1511   25.0905 C   0  0  1  0  0  0  0  0  0  0  0  0
   11.8101   -4.1477   26.0612 O   0  0  0  0  0  0  0  0  0  0  0  0
  1  2  1  6  0  0  0
  1  5  1  0  0  0  0
  1 29  1  0  0  0  0
  3  4  1  6  0  0  0
  3  7  1  0  0  0  0
  3 34  1  0  0  0  0
  5  6  1  1  0  0  0
  5 16  1  0  0  0  0
  7 19  1  0  0  0  0
  8  4  1  0  0  0  0
  8 24  2  0  0  0  0
  9  8  1  1  0  0  0
  9 10  1  0  0  0  0
  9 13  1  0  0  0  0
 10 11  1  0  0  0  0
 11 12  1  0  0  0  0
 14 15  1  0  0  0  0
 14 35  1  0  0  0  0
 15 17  1  0  0  0  0
 16 18  1  6  0  0  0
 16 25  1  0  0  0  0
 19 20  1  6  0  0  0
 19 27  1  0  0  0  0
 21 22  1  0  0  0  0
 21 23  1  0  0  0  0
 23 17  1  0  0  0  0
 25 26  1  6  0  0  0
 25 28  1  0  0  0  0
 27  2  1  1  0  0  0
 27 30  1  0  0  0  0
 28 29  1  0  0  0  0
 28 32  1  6  0  0  0
 30 31  1  6  0  0  0
 30 34  1  0  0  0  0
 32 33  2  0  0  0  0
 34 35  1  1  0  0  0
M  END
>  <CHROM.1>
78.98858375,-43.90500297,-64.02625231,-48.24571174,-61.53868165,-62.57926895
-46.73143497,127.03160627,-171.72677001,44.16755221,-125.85879010,-97.95438738
-53.79362026,12.06613055,-1.95577230,24.32747411,-0.12714183,-0.78671344
-1.43461728

>  <Name>
2f4t_lig

>  <RI>
0

>  <Rbt.Current_Directory>
/home/itssahil/PROJECTS/Mol_Feturizer/New_Systems/rnas/2f4t

>  <Rbt.Executable>
rbdock ($Id: //depot/dev/client3/rdock/2013.1/src/exe/rbdock.cxx#4 $)

>  <Rbt.Library>
libRbt.so (2013.1, Build901 2013/11/27)

>  <Rbt.Parameter_File>
/export/apps/rDock/src/rDock_2013.1_src/data/scripts/dock_solv.prm

>  <Rbt.Receptor>
prm/blind_docking_60.prm

>  <SCORE>
14.1241

>  <SCORE.INTER>
1.91024

>  <SCORE.INTER.CONST>
1

>  <SCORE.INTER.POLAR>
-0.885745

>  <SCORE.INTER.ROT>
13

>  <SCORE.INTER.SOLV>
21.0111

>  <SCORE.INTER.VDW>
-15.0444

>  <SCORE.INTER.norm>
0.0545784

>  <SCORE.INTRA>
9.02677

>  <SCORE.INTRA.DIHEDRAL>
-10.0093

>  <SCORE.INTRA.DIHEDRAL.0>
23.8882

>  <SCORE.INTRA.POLAR>
0

>  <SCORE.INTRA.POLAR.0>
0

>  <SCORE.INTRA.REPUL>
0

>  <SCORE.INTRA.REPUL.0>
0

>  <SCORE.INTRA.SOLV>
10.516

>  <SCORE.INTRA.SOLV.lig_0>
-97.6888

>  <SCORE.INTRA.VDW>
8.77344

>  <SCORE.INTRA.VDW.0>
-3.9206

>  <SCORE.INTRA.norm>
0.257908

>  <SCORE.RESTR>
3.18704

>  <SCORE.RESTR.CAVITY>
3.18704

>  <SCORE.RESTR.norm>
0.0910583

>  <SCORE.SYSTEM>
0

>  <SCORE.SYSTEM.CONST>
0

>  <SCORE.SYSTEM.DIHEDRAL>
0

>  <SCORE.SYSTEM.SOLV>
0

>  <SCORE.SYSTEM.norm>
0

>  <SCORE.heavy>
35

>  <SCORE.norm>
0.403544

>  <RMSD>
12.667

$$$$
2f4t_lig
 OpenBabel11021811433D
libRbt.so/2013.1/901 2013/11/27
 35 36  0  0  0  0  0  0  0  0999 V2000
   11.4101   -4.7546   28.0094 C   0  0  2  0  0  0  0  0  0  0  0  0
   10.1617   -4.3984   27.3298 O   0  0  0  0  0  0  0  0  0  0  0  0
   11.2809   -4.3830   23.1579 C   0  0  2  0  0  0  0  0  0  0  0  0
   11.2014   -4.1628   21.7061 N   0  0  0  0  0  0  0  0  0  0  0  0
   10.9929   -5.6027   29.2490 C   0  0  2  0  0  0  0  0  0  0  0  0
   10.2073   -6.7447   28.8440 N   0  0  0  0  0  0  0  0  0  0  0  0
    9.9870   -5.1358   23.6402 C   0  0  0  0  0  0  0  0  0  0  0  0
    9.6408   -3.4413   21.3025 C   0  0  0  0  0  0  0  0  0  0  0  0
   10.1261   -3.4546   19.8698 C   0  0  1  0  0  0  0  0  0  0  0  0
    9.2566   -4.4490   19.0972 C   0  0  0  0  0  0  0  0  0  0  0  0
    9.9965   -5.3230   18.0706 C   0  0  0  0  0  0  0  0  0  0  0  0
    9.0026   -6.0908   17.3146 N   0  0  0  0  0  0  0  0  0  0  0  0
    9.9199   -2.2079   19.2586 O   0  0  0  0  0  0  0  0  0  0  0  0
   13.5324   -1.3424   23.4582 C   0  0  0  0  0  0  0  0  0  0  0  0
   12.8595    0.0217   23.4571 C   0  0  0  0  0  0  0  0  0  0  0  0
   10.1953   -4.7158   30.2637 C   0  0  1  0  0  0  0  0  0  0  0  0
   13.4245    0.9588   22.4615 N   0  0  0  0  0  0  0  0  0  0  0  0
    9.8109   -5.4661   31.3993 O   0  0  0  0  0  0  0  0  0  0  0  0
   10.0024   -5.3879   25.1544 C   0  0  2  0  0  0  0  0  0  0  0  0
    8.7747   -6.0505   25.5835 N   0  0  0  0  0  0  0  0  0  0  0  0
   14.3852    1.0447   20.1591 C   0  0  0  0  0  0  0  0  0  0  0  0
   15.5426    0.0333   20.4410 N   0  0  0  0  0  0  0  0  0  0  0  0
   13.1091    0.7902   21.0146 C   0  0  0  0  0  0  0  0  0  0  0  0
    8.7819   -3.1504   21.8653 O   0  0  0  0  0  0  0  0  0  0  0  0
   11.0873   -3.5378   30.6686 C   0  0  2  0  0  0  0  0  0  0  0  0
   10.4268   -2.6973   31.6009 O   0  0  0  0  0  0  0  0  0  0  0  0
   10.1478   -4.0868   25.9033 C   0  0  2  0  0  0  0  0  0  0  0  0
   11.4996   -2.7264   29.4066 C   0  0  2  0  0  0  0  0  0  0  0  0
   12.1763   -3.5652   28.4474 O   0  0  0  0  0  0  0  0  0  0  0  0
   11.4701   -3.3350   25.4436 C   0  0  2  0  0  0  0  0  0  0  0  0
   11.5805   -2.0870   26.1915 O   0  0  0  0  0  0  0  0  0  0  0  0
   12.3894   -1.5902   29.7445 C   0  0  0  0  0  0  0  0  0  0  0  0
   13.6712   -1.9297   29.4849 N   0  0  0  0  0  0  0  0  0  0  0  0
   11.3783   -3.0440   23.9054 C   0  0  1  0  0  0  0  0  0  0  0  0
   12.5119   -2.3594   23.4762 O   0  0  0  0  0  0  0  0  0  0  0  0
  1  2  1  1  0  0  0
  1  5  1  0  0  0  0
  1 29  1  0  0  0  0
  3  4  1  6  0  0  0
  3  7  1  0  0  0  0
  3 34  1  0  0  0  0
  5  6  1  6  0  0  0
  5 16  1  0  0  0  0
  7 19  1  0  0  0  0
  8  4  1  0  0  0  0
  8 24  2  0  0  0  0
  9  8  1  1  0  0  0
  9 10  1  0  0  0  0
  9 13  1  0  0  0  0
 10 11  1  0  0  0  0
 11 12  1  0  0  0  0
 14 15  1  0  0  0  0
 14 35  1  0  0  0  0
 15 17  1  0  0  0  0
 16 18  1  1  0  0  0
 16 25  1  0  0  0  0
 19 20  1  1  0  0  0
 19 27  1  0  0  0  0
 21 22  1  0  0  0  0
 21 23  1  0  0  0  0
 23 17  1  0  0  0  0
 25 26  1  1  0  0  0
 25 28  1  0  0  0  0
 27  2  1  1  0  0  0
 27 30  1  0  0  0  0
 28 29  1  0  0  0  0
 28 32  1  1  0  0  0
 30 31  1  1  0  0  0
 30 34  1  0  0  0  0
 32 33  2  0  0  0  0
 34 35  1  6  0  0  0
M  END
>  <CHROM.1>
-155.32229182,50.00697040,113.10922478,-140.26889418,-173.18600158,-133.53258017
-52.44650477,74.85980235,62.61252482,-139.13311636,86.34692327,99.98138671
-170.55821792,11.19258374,-3.25100623,24.76580397,1.61646675,0.90272636,1.68297566

>  <Name>
2f4t_lig

>  <RI>
0

>  <Rbt.Current_Directory>
/home/itssahil/PROJECTS/Mol_Feturizer/New_Systems/rnas/2f4t

>  <Rbt.Executable>
rbdock ($Id: //depot/dev/client3/rdock/2013.1/src/exe/rbdock.cxx#4 $)

>  <Rbt.Library>
libRbt.so (2013.1, Build901 2013/11/27)

>  <Rbt.Parameter_File>
/export/apps/rDock/src/rDock_2013.1_src/data/scripts/dock_solv.prm

>  <Rbt.Receptor>
prm/blind_docking_60.prm

>  <SCORE>
5.16048

>  <SCORE.INTER>
-0.448187

>  <SCORE.INTER.CONST>
1

>  <SCORE.INTER.POLAR>
-0.473128

>  <SCORE.INTER.ROT>
13

>  <SCORE.INTER.SOLV>
17.7892

>  <SCORE.INTER.VDW>
-16.9181

>  <SCORE.INTER.norm>
-0.0128053

>  <SCORE.INTRA>
0.281539

>  <SCORE.INTRA.DIHEDRAL>
-4.09935

>  <SCORE.INTRA.DIHEDRAL.0>
23.8882

>  <SCORE.INTRA.POLAR>
0

>  <SCORE.INTRA.POLAR.0>
0

>  <SCORE.INTRA.REPUL>
0

>  <SCORE.INTRA.REPUL.0>
0

>  <SCORE.INTRA.SOLV>
2.92454

>  <SCORE.INTRA.SOLV.lig_0>
-97.6888

>  <SCORE.INTRA.VDW>
0.868941

>  <SCORE.INTRA.VDW.0>
-3.9206

>  <SCORE.INTRA.norm>
0.00804398

>  <SCORE.RESTR>
5.32713

>  <SCORE.RESTR.CAVITY>
5.32713

>  <SCORE.RESTR.norm>
0.152204

>  <SCORE.SYSTEM>
0

>  <SCORE.SYSTEM.CONST>
0

>  <SCORE.SYSTEM.DIHEDRAL>
0

>  <SCORE.SYSTEM.SOLV>
0

>  <SCORE.SYSTEM.norm>
0

>  <SCORE.heavy>
35

>  <SCORE.norm>
0.147442

>  <RMSD>
12.926

$$$$
2f4t_lig
 OpenBabel11021811433D
libRbt.so/2013.1/901 2013/11/27
 35 36  0  0  0  0  0  0  0  0999 V2000
    9.3345   -5.3029   23.6230 C   0  0  2  0  0  0  0  0  0  0  0  0
   10.7851   -5.1808   23.7901 O   0  0  0  0  0  0  0  0  0  0  0  0
   13.9342   -2.2426   23.4619 C   0  0  2  0  0  0  0  0  0  0  0  0
   14.6550   -1.0288   23.0498 N   0  0  0  0  0  0  0  0  0  0  0  0
    9.1068   -5.6495   22.1204 C   0  0  2  0  0  0  0  0  0  0  0  0
    9.8346   -6.8427   21.7567 N   0  0  0  0  0  0  0  0  0  0  0  0
   13.3862   -2.9795   22.1851 C   0  0  0  0  0  0  0  0  0  0  0  0
   13.4949    0.2505   22.6804 C   0  0  0  0  0  0  0  0  0  0  0  0
   14.7020    1.1098   22.3759 C   0  0  1  0  0  0  0  0  0  0  0  0
   14.7814    1.2723   20.8563 C   0  0  0  0  0  0  0  0  0  0  0  0
   16.0851    0.7853   20.2018 C   0  0  0  0  0  0  0  0  0  0  0  0
   15.7608    0.2217   18.8879 N   0  0  0  0  0  0  0  0  0  0  0  0
   14.5396    2.4045   22.8931 O   0  0  0  0  0  0  0  0  0  0  0  0
   13.2543   -0.2368   26.5525 C   0  0  0  0  0  0  0  0  0  0  0  0
   11.9114   -0.2389   27.2666 C   0  0  0  0  0  0  0  0  0  0  0  0
    9.5379   -4.4438   21.2189 C   0  0  1  0  0  0  0  0  0  0  0  0
   11.8055   -1.2685   28.3236 N   0  0  0  0  0  0  0  0  0  0  0  0
    9.3346   -4.7363   19.8502 O   0  0  0  0  0  0  0  0  0  0  0  0
   12.6115   -4.2540   22.5482 C   0  0  2  0  0  0  0  0  0  0  0  0
   12.0790   -4.8973   21.3512 N   0  0  0  0  0  0  0  0  0  0  0  0
   12.2054   -2.1708   30.6165 C   0  0  0  0  0  0  0  0  0  0  0  0
   10.9565   -3.1084   30.6699 N   0  0  0  0  0  0  0  0  0  0  0  0
   11.9919   -0.8920   29.7536 C   0  0  0  0  0  0  0  0  0  0  0  0
   12.4300    0.3214   22.6885 O   0  0  0  0  0  0  0  0  0  0  0  0
    8.7182   -3.2194   21.6393 C   0  0  2  0  0  0  0  0  0  0  0  0
    9.0519   -2.0892   20.8499 O   0  0  0  0  0  0  0  0  0  0  0  0
   11.4721   -3.9298   23.4817 C   0  0  2  0  0  0  0  0  0  0  0  0
    8.9546   -2.9149   23.1467 C   0  0  2  0  0  0  0  0  0  0  0  0
    8.6172   -4.0535   23.9661 O   0  0  0  0  0  0  0  0  0  0  0  0
   12.0220   -3.2128   24.7888 C   0  0  2  0  0  0  0  0  0  0  0  0
   10.8954   -2.9204   25.6688 O   0  0  0  0  0  0  0  0  0  0  0  0
    8.1584   -1.7533   23.6090 C   0  0  0  0  0  0  0  0  0  0  0  0
    8.5594   -0.6428   22.9521 N   0  0  0  0  0  0  0  0  0  0  0  0
   12.7480   -1.8868   24.3716 C   0  0  1  0  0  0  0  0  0  0  0  0
   13.2177   -1.2195   25.4994 O   0  0  0  0  0  0  0  0  0  0  0  0
  1  2  1  6  0  0  0
  1  5  1  0  0  0  0
  1 29  1  0  0  0  0
  3  4  1  6  0  0  0
  3  7  1  0  0  0  0
  3 34  1  0  0  0  0
  5  6  1  6  0  0  0
  5 16  1  0  0  0  0
  7 19  1  0  0  0  0
  8  4  1  0  0  0  0
  8 24  2  0  0  0  0
  9  8  1  6  0  0  0
  9 10  1  0  0  0  0
  9 13  1  0  0  0  0
 10 11  1  0  0  0  0
 11 12  1  0  0  0  0
 14 15  1  0  0  0  0
 14 35  1  0  0  0  0
 15 17  1  0  0  0  0
 16 18  1  6  0  0  0
 16 25  1  0  0  0  0
 19 20  1  6  0  0  0
 19 27  1  0  0  0  0
 21 22  1  0  0  0  0
 21 23  1  0  0  0  0
 23 17  1  0  0  0  0
 25 26  1  6  0  0  0
 25 28  1  0  0  0  0
 27  2  1  1  0  0  0
 27 30  1  0  0  0  0
 28 29  1  0  0  0  0
 28 32  1  1  0  0  0
 30 31  1  1  0  0  0
 30 34  1  0  0  0  0
 32 33  2  0  0  0  0
 34 35  1  1  0  0  0
M  END
>  <CHROM.1>
84.12779192,79.00487942,106.60993041,-121.70790979,145.04142149,84.58041260
52.60813936,100.12890086,-65.56777804,-165.19883865,-128.05727391,-63.54287213
138.67811598,11.73308338,-2.18489022,23.68001525,2.40228660,-0.78598781,-1.67504863

>  <Name>
2f4t_lig

>  <RI>
0

>  <Rbt.Current_Directory>
/home/itssahil/PROJECTS/Mol_Feturizer/New_Systems/rnas/2f4t

>  <Rbt.Executable>
rbdock ($Id: //depot/dev/client3/rdock/2013.1/src/exe/rbdock.cxx#4 $)

>  <Rbt.Library>
libRbt.so (2013.1, Build901 2013/11/27)

>  <Rbt.Parameter_File>
/export/apps/rDock/src/rDock_2013.1_src/data/scripts/dock_solv.prm

>  <Rbt.Receptor>
prm/blind_docking_60.prm

>  <SCORE>
14.0686

>  <SCORE.INTER>
3.13747

>  <SCORE.INTER.CONST>
1

>  <SCORE.INTER.POLAR>
0

>  <SCORE.INTER.ROT>
13

>  <SCORE.INTER.SOLV>
20.9128

>  <SCORE.INTER.VDW>
-17.1459

>  <SCORE.INTER.norm>
0.0896419

>  <SCORE.INTRA>
9.22324

>  <SCORE.INTRA.DIHEDRAL>
7.5201

>  <SCORE.INTRA.DIHEDRAL.0>
23.8882

>  <SCORE.INTRA.POLAR>
0

>  <SCORE.INTRA.POLAR.0>
0

>  <SCORE.INTRA.REPUL>
0.0208388

>  <SCORE.INTRA.REPUL.0>
0

>  <SCORE.INTRA.SOLV>
8.09353

>  <SCORE.INTRA.SOLV.lig_0>
-97.6888

>  <SCORE.INTRA.VDW>
1.31224

>  <SCORE.INTRA.VDW.0>
-3.9206

>  <SCORE.INTRA.norm>
0.263521

>  <SCORE.RESTR>
1.70793

>  <SCORE.RESTR.CAVITY>
1.70793

>  <SCORE.RESTR.norm>
0.048798

>  <SCORE.SYSTEM>
0

>  <SCORE.SYSTEM.CONST>
0

>  <SCORE.SYSTEM.DIHEDRAL>
0

>  <SCORE.SYSTEM.SOLV>
0

>  <SCORE.SYSTEM.norm>
0

>  <SCORE.heavy>
35

>  <SCORE.norm>
0.401961

>  <RMSD>
13.085

$$$$
2f4t_lig
 OpenBabel11021811433D
libRbt.so/2013.1/901 2013/11/27
 35 36  0  0  0  0  0  0  0  0999 V2000
    9.5069   -5.2465   23.7315 C   0  0  2  0  0  0  0  0  0  0  0  0
   10.9639   -5.1096   23.8070 O   0  0  0  0  0  0  0  0  0  0  0  0
   14.0113   -2.0531   23.6378 C   0  0  2  0  0  0  0  0  0  0  0  0
   14.6926   -0.7981   23.2862 N   0  0  0  0  0  0  0  0  0  0  0  0
    9.2045   -5.7964   22.3047 C   0  0  2  0  0  0  0  0  0  0  0  0
    9.9155   -7.0319   22.0734 N   0  0  0  0  0  0  0  0  0  0  0  0
   13.4991   -2.7510   22.3247 C   0  0  0  0  0  0  0  0  0  0  0  0
   13.5937    0.2326   22.3648 C   0  0  0  0  0  0  0  0  0  0  0  0
   14.7319    1.2283   22.3260 C   0  0  1  0  0  0  0  0  0  0  0  0
   14.9418    1.6326   20.8651 C   0  0  0  0  0  0  0  0  0  0  0  0
   15.3890    0.5049   19.9198 C   0  0  0  0  0  0  0  0  0  0  0  0
   16.5912   -0.1192   20.4803 N   0  0  0  0  0  0  0  0  0  0  0  0
   14.3902    2.4076   23.0061 O   0  0  0  0  0  0  0  0  0  0  0  0
   14.0710   -0.8893   26.8632 C   0  0  0  0  0  0  0  0  0  0  0  0
   14.3680   -2.2115   27.5539 C   0  0  0  0  0  0  0  0  0  0  0  0
    9.5871   -4.7290   21.2246 C   0  0  1  0  0  0  0  0  0  0  0  0
   13.2567   -2.6994   28.3998 N   0  0  0  0  0  0  0  0  0  0  0  0
    9.3157   -5.2070   19.9214 O   0  0  0  0  0  0  0  0  0  0  0  0
   12.7665   -4.0663   22.6241 C   0  0  2  0  0  0  0  0  0  0  0  0
   12.2658   -4.6738   21.3950 N   0  0  0  0  0  0  0  0  0  0  0  0
   11.6387   -1.3859   29.7739 C   0  0  0  0  0  0  0  0  0  0  0  0
   11.4748   -0.2863   28.6757 N   0  0  0  0  0  0  0  0  0  0  0  0
   13.0227   -2.0993   29.7438 C   0  0  0  0  0  0  0  0  0  0  0  0
   12.5876    0.1369   22.0216 O   0  0  0  0  0  0  0  0  0  0  0  0
    8.7871   -3.4543   21.5121 C   0  0  2  0  0  0  0  0  0  0  0  0
    9.0783   -2.4457   20.5582 O   0  0  0  0  0  0  0  0  0  0  0  0
   11.6093   -3.8232   23.5605 C   0  0  2  0  0  0  0  0  0  0  0  0
    9.0986   -2.9454   22.9491 C   0  0  2  0  0  0  0  0  0  0  0  0
    8.8053   -3.9581   23.9341 O   0  0  0  0  0  0  0  0  0  0  0  0
   12.1238   -3.1464   24.9029 C   0  0  2  0  0  0  0  0  0  0  0  0
   10.9810   -2.9323   25.7846 O   0  0  0  0  0  0  0  0  0  0  0  0
    8.3243   -1.7272   23.2857 C   0  0  0  0  0  0  0  0  0  0  0  0
    9.1375   -0.8274   23.8814 N   0  0  0  0  0  0  0  0  0  0  0  0
   12.8065   -1.7791   24.5513 C   0  0  1  0  0  0  0  0  0  0  0  0
   13.2440   -1.1467   25.7117 O   0  0  0  0  0  0  0  0  0  0  0  0
  1  2  1  6  0  0  0
  1  5  1  0  0  0  0
  1 29  1  0  0  0  0
  3  4  1  6  0  0  0
  3  7  1  0  0  0  0
  3 34  1  0  0  0  0
  5  6  1  6  0  0  0
  5 16  1  0  0  0  0
  7 19  1  0  0  0  0
  8  4  1  0  0  0  0
  8 24  2  0  0  0  0
  9  8  1  6  0  0  0
  9 10  1  0  0  0  0
  9 13  1  0  0  0  0
 10 11  1  0  0  0  0
 11 12  1  0  0  0  0
 14 15  1  0  0  0  0
 14 35  1  0  0  0  0
 15 17  1  0  0  0  0
 16 18  1  6  0  0  0
 16 25  1  0  0  0  0
 19 20  1  6  0  0  0
 19 27  1  0  0  0  0
 21 22  1  0  0  0  0
 21 23  1  0  0  0  0
 23 17  1  0  0  0  0
 25 26  1  6  0  0  0
 25 28  1  0  0  0  0
 27  2  1  1  0  0  0
 27 30  1  0  0  0  0
 28 29  1  0  0  0  0
 28 32  1  1  0  0  0
 30 31  1  1  0  0  0
 30 34  1  0  0  0  0
 32 33  2  0  0  0  0
 34 35  1  1  0  0  0
M  END
>  <CHROM.1>
97.08507222,56.60450293,128.20877177,-63.85717673,-54.09380938,-79.32645597
-44.65255077,-77.53307720,-56.80484958,115.99253830,-133.26382325,-135.23531530
-44.97308653,11.98397039,-2.25230113,23.68636930,2.72097411,-0.77294617,-1.56093431

>  <Name>
2f4t_lig

>  <RI>
0

>  <Rbt.Current_Directory>
/home/itssahil/PROJECTS/Mol_Feturizer/New_Systems/rnas/2f4t

>  <Rbt.Executable>
rbdock ($Id: //depot/dev/client3/rdock/2013.1/src/exe/rbdock.cxx#4 $)

>  <Rbt.Library>
libRbt.so (2013.1, Build901 2013/11/27)

>  <Rbt.Parameter_File>
/export/apps/rDock/src/rDock_2013.1_src/data/scripts/dock_solv.prm

>  <Rbt.Receptor>
prm/blind_docking_60.prm

>  <SCORE>
8.82902

>  <SCORE.INTER>
4.18444

>  <SCORE.INTER.CONST>
1

>  <SCORE.INTER.POLAR>
0

>  <SCORE.INTER.ROT>
13

>  <SCORE.INTER.SOLV>
21.0892

>  <SCORE.INTER.VDW>
-16.5068

>  <SCORE.INTER.norm>
0.119555

>  <SCORE.INTRA>
3.64504

>  <SCORE.INTRA.DIHEDRAL>
-4.1299

>  <SCORE.INTRA.DIHEDRAL.0>
23.8882

>  <SCORE.INTRA.POLAR>
0

>  <SCORE.INTRA.POLAR.0>
0

>  <SCORE.INTRA.REPUL>
0

>  <SCORE.INTRA.REPUL.0>
0

>  <SCORE.INTRA.SOLV>
12.4165

>  <SCORE.INTRA.SOLV.lig_0>
-97.6888

>  <SCORE.INTRA.VDW>
-0.498248

>  <SCORE.INTRA.VDW.0>
-3.9206

>  <SCORE.INTRA.norm>
0.104144

>  <SCORE.RESTR>
0.99954

>  <SCORE.RESTR.CAVITY>
0.99954

>  <SCORE.RESTR.norm>
0.0285583

>  <SCORE.SYSTEM>
0

>  <SCORE.SYSTEM.CONST>
0

>  <SCORE.SYSTEM.DIHEDRAL>
0

>  <SCORE.SYSTEM.SOLV>
0

>  <SCORE.SYSTEM.norm>
0

>  <SCORE.heavy>
35

>  <SCORE.norm>
0.252258

>  <RMSD>
13.158

$$$$
2f4t_lig
 OpenBabel11021811433D
libRbt.so/2013.1/901 2013/11/27
 35 36  0  0  0  0  0  0  0  0999 V2000
   10.2845   -3.4804   29.7122 C   0  0  2  0  0  0  0  0  0  0  0  0
   11.7034   -3.1433   29.8550 O   0  0  0  0  0  0  0  0  0  0  0  0
   12.4454   -0.9017   26.2381 C   0  0  2  0  0  0  0  0  0  0  0  0
   13.1599   -0.1171   25.2200 N   0  0  0  0  0  0  0  0  0  0  0  0
    9.8419   -4.0526   31.0929 C   0  0  2  0  0  0  0  0  0  0  0  0
   10.1087   -3.1027   32.1475 N   0  0  0  0  0  0  0  0  0  0  0  0
   12.6698   -0.2465   27.6501 C   0  0  0  0  0  0  0  0  0  0  0  0
   11.9954    0.7756   24.2373 C   0  0  0  0  0  0  0  0  0  0  0  0
   13.1975    1.3130   23.4928 C   0  0  1  0  0  0  0  0  0  0  0  0
   13.4115    0.4289   22.2622 C   0  0  0  0  0  0  0  0  0  0  0  0
   12.3116    0.5031   21.1898 C   0  0  0  0  0  0  0  0  0  0  0  0
   11.0731   -0.0364   21.7592 N   0  0  0  0  0  0  0  0  0  0  0  0
   12.9471    2.6034   23.0004 O   0  0  0  0  0  0  0  0  0  0  0  0
   12.1081   -3.3323   23.8234 C   0  0  0  0  0  0  0  0  0  0  0  0
   10.8620   -4.1150   24.2079 C   0  0  0  0  0  0  0  0  0  0  0  0
   10.5741   -5.4083   31.3731 C   0  0  1  0  0  0  0  0  0  0  0  0
   10.5521   -5.2257   23.2812 N   0  0  0  0  0  0  0  0  0  0  0  0
   10.1825   -5.9474   32.6206 O   0  0  0  0  0  0  0  0  0  0  0  0
   11.9561   -1.0265   28.7630 C   0  0  2  0  0  0  0  0  0  0  0  0
   12.2124   -0.4233   30.0671 N   0  0  0  0  0  0  0  0  0  0  0  0
    9.7147   -4.6349   21.0049 C   0  0  0  0  0  0  0  0  0  0  0  0
   10.0544   -3.1099   20.9731 N   0  0  0  0  0  0  0  0  0  0  0  0
    9.3368   -5.1627   22.4205 C   0  0  0  0  0  0  0  0  0  0  0  0
   10.9312    0.8564   24.2254 O   0  0  0  0  0  0  0  0  0  0  0  0
   10.2353   -6.3754   30.2340 C   0  0  2  0  0  0  0  0  0  0  0  0
   10.8597   -7.6334   30.4331 O   0  0  0  0  0  0  0  0  0  0  0  0
   12.4228   -2.4607   28.7833 C   0  0  2  0  0  0  0  0  0  0  0  0
   10.6728   -5.7643   28.8716 C   0  0  2  0  0  0  0  0  0  0  0  0
   10.0445   -4.4845   28.6503 O   0  0  0  0  0  0  0  0  0  0  0  0
   12.1704   -3.1389   27.3686 C   0  0  2  0  0  0  0  0  0  0  0  0
   12.6272   -4.5234   27.4274 O   0  0  0  0  0  0  0  0  0  0  0  0
   10.3388   -6.6525   27.7330 C   0  0  0  0  0  0  0  0  0  0  0  0
   11.4496   -6.8789   26.9978 N   0  0  0  0  0  0  0  0  0  0  0  0
   12.9695   -2.3457   26.2770 C   0  0  1  0  0  0  0  0  0  0  0  0
   12.7913   -2.9331   25.0276 O   0  0  0  0  0  0  0  0  0  0  0  0
  1  2  1  1  0  0  0
  1  5  1  0  0  0  0
  1 29  1  0  0  0  0
  3  4  1  6  0  0  0
  3  7  1  0  0  0  0
  3 34  1  0  0  0  0
  5  6  1  1  0  0  0
  5 16  1  0  0  0  0
  7 19  1  0  0  0  0
  8  4  1  0  0  0  0
  8 24  2  0  0  0  0
  9  8  1  6  0  0  0
  9 10  1  0  0  0  0
  9 13  1  0  0  0  0
 10 11  1  0  0  0  0
 11 12  1  0  0  0  0
 14 15  1  0  0  0  0
 14 35  1  0  0  0  0
 15 17  1  0  0  0  0
 16 18  1  1  0  0  0
 16 25  1  0  0  0  0
 19 20  1  1  0  0  0
 19 27  1  0  0  0  0
 21 22  1  0  0  0  0
 21 23  1  0  0  0  0
 23 17  1  0  0  0  0
 25 26  1  1  0  0  0
 25 28  1  0  0  0  0
 27  2  1  1  0  0  0
 27 30  1  0  0  0  0
 28 29  1  0  0  0  0
 28 32  1  6  0  0  0
 30 31  1  1  0  0  0
 30 34  1  0  0  0  0
 32 33  2  0  0  0  0
 34 35  1  6  0  0  0
M  END
>  <CHROM.1>
-174.23598252,-107.84924631,95.10208347,66.79616480,-65.51970219,-144.04491241
-55.28554488,-112.23022174,-72.31252535,96.57824249,73.15674068,-126.25596248
-49.50960726,11.43516607,-2.87420971,26.52782514,-2.00886226,-1.23596070
-1.43753531

>  <Name>
2f4t_lig

>  <RI>
0

>  <Rbt.Current_Directory>
/home/itssahil/PROJECTS/Mol_Feturizer/New_Systems/rnas/2f4t

>  <Rbt.Executable>
rbdock ($Id: //depot/dev/client3/rdock/2013.1/src/exe/rbdock.cxx#4 $)

>  <Rbt.Library>
libRbt.so (2013.1, Build901 2013/11/27)

>  <Rbt.Parameter_File>
/export/apps/rDock/src/rDock_2013.1_src/data/scripts/dock_solv.prm

>  <Rbt.Receptor>
prm/blind_docking_60.prm

>  <SCORE>
-3.36207

>  <SCORE.INTER>
-4.50776

>  <SCORE.INTER.CONST>
1

>  <SCORE.INTER.POLAR>
0

>  <SCORE.INTER.ROT>
13

>  <SCORE.INTER.SOLV>
15.3022

>  <SCORE.INTER.VDW>
-20.3726

>  <SCORE.INTER.norm>
-0.128793

>  <SCORE.INTRA>
-1.58332

>  <SCORE.INTRA.DIHEDRAL>
-12.1031

>  <SCORE.INTRA.DIHEDRAL.0>
23.8882

>  <SCORE.INTRA.POLAR>
0

>  <SCORE.INTRA.POLAR.0>
0

>  <SCORE.INTRA.REPUL>
0.0135657

>  <SCORE.INTRA.REPUL.0>
0

>  <SCORE.INTRA.SOLV>
9.30024

>  <SCORE.INTRA.SOLV.lig_0>
-97.6888

>  <SCORE.INTRA.VDW>
-0.249736

>  <SCORE.INTRA.VDW.0>
-3.9206

>  <SCORE.INTRA.norm>
-0.0452378

>  <SCORE.RESTR>
2.72901

>  <SCORE.RESTR.CAVITY>
2.72901

>  <SCORE.RESTR.norm>
0.0779717

>  <SCORE.SYSTEM>
0

>  <SCORE.SYSTEM.CONST>
0

>  <SCORE.SYSTEM.DIHEDRAL>
0

>  <SCORE.SYSTEM.SOLV>
0

>  <SCORE.SYSTEM.norm>
0

>  <SCORE.heavy>
35

>  <SCORE.norm>
-0.0960593

>  <RMSD>
13.195

$$$$
2f4t_lig
 OpenBabel11021811433D
libRbt.so/2013.1/901 2013/11/27
 35 36  0  0  0  0  0  0  0  0999 V2000
   10.1657   -3.4340   29.2463 C   0  0  2  0  0  0  0  0  0  0  0  0
   11.5092   -2.8545   29.1653 O   0  0  0  0  0  0  0  0  0  0  0  0
   11.2781   -0.7099   25.4231 C   0  0  2  0  0  0  0  0  0  0  0  0
   11.6396    0.2028   24.3282 N   0  0  0  0  0  0  0  0  0  0  0  0
    9.9941   -3.9062   30.7219 C   0  0  2  0  0  0  0  0  0  0  0  0
   10.2081   -2.8091   31.6362 N   0  0  0  0  0  0  0  0  0  0  0  0
   11.3519    0.0644   26.7900 C   0  0  0  0  0  0  0  0  0  0  0  0
   13.3980    0.3197   24.2127 C   0  0  0  0  0  0  0  0  0  0  0  0
   13.1521    1.2630   23.0560 C   0  0  1  0  0  0  0  0  0  0  0  0
   14.5000    1.5272   22.3813 C   0  0  0  0  0  0  0  0  0  0  0  0
   14.9980    0.4230   21.4338 C   0  0  0  0  0  0  0  0  0  0  0  0
   15.1794   -0.8066   22.2111 N   0  0  0  0  0  0  0  0  0  0  0  0
   12.3449    0.6593   22.0791 O   0  0  0  0  0  0  0  0  0  0  0  0
   12.6148   -3.5045   23.2369 C   0  0  0  0  0  0  0  0  0  0  0  0
   11.4961   -3.6174   22.2126 C   0  0  0  0  0  0  0  0  0  0  0  0
   10.9824   -5.0815   31.0289 C   0  0  1  0  0  0  0  0  0  0  0  0
   10.2052   -4.0488   22.7922 N   0  0  0  0  0  0  0  0  0  0  0  0
   10.8393   -5.5285   32.3631 O   0  0  0  0  0  0  0  0  0  0  0  0
   10.9948   -0.8382   27.9792 C   0  0  2  0  0  0  0  0  0  0  0  0
   11.1099   -0.1090   29.2382 N   0  0  0  0  0  0  0  0  0  0  0  0
    8.7004   -5.5969   24.0454 C   0  0  0  0  0  0  0  0  0  0  0  0
    7.4123   -5.2455   23.2336 N   0  0  0  0  0  0  0  0  0  0  0  0
   10.0155   -5.4633   23.2219 C   0  0  0  0  0  0  0  0  0  0  0  0
   14.2143   -0.1096   24.7499 O   0  0  0  0  0  0  0  0  0  0  0  0
   10.6913   -6.2171   30.0424 C   0  0  2  0  0  0  0  0  0  0  0  0
   11.5475   -7.3238   30.2746 O   0  0  0  0  0  0  0  0  0  0  0  0
   11.9058   -2.0396   28.0205 C   0  0  2  0  0  0  0  0  0  0  0  0
   10.8531   -5.7055   28.5819 C   0  0  2  0  0  0  0  0  0  0  0  0
    9.9866   -4.5806   28.3262 O   0  0  0  0  0  0  0  0  0  0  0  0
   11.8129   -2.8448   26.6538 C   0  0  2  0  0  0  0  0  0  0  0  0
   12.7005   -4.0003   26.7324 O   0  0  0  0  0  0  0  0  0  0  0  0
   10.5527   -6.7630   27.5877 C   0  0  0  0  0  0  0  0  0  0  0  0
   11.6668   -7.0407   26.8755 N   0  0  0  0  0  0  0  0  0  0  0  0
   12.2475   -1.9008   25.4793 C   0  0  1  0  0  0  0  0  0  0  0  0
   12.2038   -2.5866   24.2687 O   0  0  0  0  0  0  0  0  0  0  0  0
  1  2  1  1  0  0  0
  1  5  1  0  0  0  0
  1 29  1  0  0  0  0
  3  4  1  6  0  0  0
  3  7  1  0  0  0  0
  3 34  1  0  0  0  0
  5  6  1  1  0  0  0
  5 16  1  0  0  0  0
  7 19  1  0  0  0  0
  8  4  1  0  0  0  0
  8 24  2  0  0  0  0
  9  8  1  1  0  0  0
  9 10  1  0  0  0  0
  9 13  1  0  0  0  0
 10 11  1  0  0  0  0
 11 12  1  0  0  0  0
 14 15  1  0  0  0  0
 14 35  1  0  0  0  0
 15 17  1  0  0  0  0
 16 18  1  1  0  0  0
 16 25  1  0  0  0  0
 19 20  1  1  0  0  0
 19 27  1  0  0  0  0
 21 22  1  0  0  0  0
 21 23  1  0  0  0  0
 23 17  1  0  0  0  0
 25 26  1  1  0  0  0
 25 28  1  0  0  0  0
 27  2  1  1  0  0  0
 27 30  1  0  0  0  0
 28 29  1  0  0  0  0
 28 32  1  6  0  0  0
 30 31  1  1  0  0  0
 30 34  1  0  0  0  0
 32 33  2  0  0  0  0
 34 35  1  6  0  0  0
M  END
>  <CHROM.1>
-165.96960899,81.40862765,-170.69078071,79.28044088,-61.64238243,-57.12529491
170.23544256,-73.13314261,62.63769246,168.80281274,61.35793472,-116.36761426
165.44430459,11.56884564,-2.88196252,26.27690815,-2.30294465,-1.13141237
-1.64796097

>  <Name>
2f4t_lig

>  <RI>
0

>  <Rbt.Current_Directory>
/home/itssahil/PROJECTS/Mol_Feturizer/New_Systems/rnas/2f4t

>  <Rbt.Executable>
rbdock ($Id: //depot/dev/client3/rdock/2013.1/src/exe/rbdock.cxx#4 $)

>  <Rbt.Library>
libRbt.so (2013.1, Build901 2013/11/27)

>  <Rbt.Parameter_File>
/export/apps/rDock/src/rDock_2013.1_src/data/scripts/dock_solv.prm

>  <Rbt.Receptor>
prm/blind_docking_60.prm

>  <SCORE>
-8.27913

>  <SCORE.INTER>
-7.07375

>  <SCORE.INTER.CONST>
1

>  <SCORE.INTER.POLAR>
-0.979796

>  <SCORE.INTER.ROT>
13

>  <SCORE.INTER.SOLV>
17.0725

>  <SCORE.INTER.VDW>
-19.4074

>  <SCORE.INTER.norm>
-0.202107

>  <SCORE.INTRA>
-3.94138

>  <SCORE.INTRA.DIHEDRAL>
-17.9622

>  <SCORE.INTRA.DIHEDRAL.0>
23.8882

>  <SCORE.INTRA.POLAR>
0

>  <SCORE.INTRA.POLAR.0>
0

>  <SCORE.INTRA.REPUL>
0

>  <SCORE.INTRA.REPUL.0>
0

>  <SCORE.INTRA.SOLV>
8.16026

>  <SCORE.INTRA.SOLV.lig_0>
-97.6888

>  <SCORE.INTRA.VDW>
0.959607

>  <SCORE.INTRA.VDW.0>
-3.9206

>  <SCORE.INTRA.norm>
-0.112611

>  <SCORE.RESTR>
2.736

>  <SCORE.RESTR.CAVITY>
2.736

>  <SCORE.RESTR.norm>
0.0781714

>  <SCORE.SYSTEM>
0

>  <SCORE.SYSTEM.CONST>
0

>  <SCORE.SYSTEM.DIHEDRAL>
0

>  <SCORE.SYSTEM.SOLV>
0

>  <SCORE.SYSTEM.norm>
0

>  <SCORE.heavy>
35

>  <SCORE.norm>
-0.236547

>  <RMSD>
13.201

$$$$
2f4t_lig
 OpenBabel11021811433D
libRbt.so/2013.1/901 2013/11/27
 35 36  0  0  0  0  0  0  0  0999 V2000
   11.0844   -5.8739   28.2428 C   0  0  2  0  0  0  0  0  0  0  0  0
   10.8383   -4.5134   27.7574 O   0  0  0  0  0  0  0  0  0  0  0  0
   12.7579   -1.3943   25.4675 C   0  0  2  0  0  0  0  0  0  0  0  0
   13.8030   -0.6526   24.7462 N   0  0  0  0  0  0  0  0  0  0  0  0
    9.7207   -6.6200   28.1281 C   0  0  2  0  0  0  0  0  0  0  0  0
    9.2244   -6.5691   26.7729 N   0  0  0  0  0  0  0  0  0  0  0  0
   13.2920   -1.7895   26.8930 C   0  0  0  0  0  0  0  0  0  0  0  0
   13.0565    0.5918   23.7396 C   0  0  0  0  0  0  0  0  0  0  0  0
   14.4665    0.9534   23.3283 C   0  0  1  0  0  0  0  0  0  0  0  0
   14.8740    0.0075   22.1964 C   0  0  0  0  0  0  0  0  0  0  0  0
   14.1516    0.2232   20.8560 C   0  0  0  0  0  0  0  0  0  0  0  0
   14.7412    1.3914   20.1953 N   0  0  0  0  0  0  0  0  0  0  0  0
   14.5146    2.2466   22.7847 O   0  0  0  0  0  0  0  0  0  0  0  0
   11.1844   -1.6250   22.4309 C   0  0  0  0  0  0  0  0  0  0  0  0
   11.1755   -2.4517   21.1542 C   0  0  0  0  0  0  0  0  0  0  0  0
    8.6815   -5.9969   29.1202 C   0  0  1  0  0  0  0  0  0  0  0  0
   10.0904   -3.4562   21.1078 N   0  0  0  0  0  0  0  0  0  0  0  0
    7.4370   -6.6635   29.0351 O   0  0  0  0  0  0  0  0  0  0  0  0
   12.2488   -2.5785   27.6966 C   0  0  2  0  0  0  0  0  0  0  0  0
   12.7815   -2.9684   28.9982 N   0  0  0  0  0  0  0  0  0  0  0  0
    8.1059   -3.5666   22.6181 C   0  0  0  0  0  0  0  0  0  0  0  0
    8.8694   -3.0375   23.8747 N   0  0  0  0  0  0  0  0  0  0  0  0
    8.6714   -3.0300   21.2699 C   0  0  0  0  0  0  0  0  0  0  0  0
   12.0522    0.8997   23.5506 O   0  0  0  0  0  0  0  0  0  0  0  0
    9.2561   -6.0999   30.5368 C   0  0  2  0  0  0  0  0  0  0  0  0
    8.3549   -5.5622   31.4909 O   0  0  0  0  0  0  0  0  0  0  0  0
   11.8310   -3.8170   26.9440 C   0  0  2  0  0  0  0  0  0  0  0  0
   10.6240   -5.3620   30.6092 C   0  0  2  0  0  0  0  0  0  0  0  0
   11.5555   -5.8982   29.6467 O   0  0  0  0  0  0  0  0  0  0  0  0
   11.2609   -3.4230   25.5141 C   0  0  2  0  0  0  0  0  0  0  0  0
   10.8623   -4.6424   24.8190 O   0  0  0  0  0  0  0  0  0  0  0  0
   11.2353   -5.4587   31.9561 C   0  0  0  0  0  0  0  0  0  0  0  0
   11.6052   -4.2274   32.3719 N   0  0  0  0  0  0  0  0  0  0  0  0
   12.3819   -2.6772   24.7100 C   0  0  1  0  0  0  0  0  0  0  0  0
   11.9219   -2.3427   23.4394 O   0  0  0  0  0  0  0  0  0  0  0  0
  1  2  1  1  0  0  0
  1  5  1  0  0  0  0
  1 29  1  0  0  0  0
  3  4  1  6  0  0  0
  3  7  1  0  0  0  0
  3 34  1  0  0  0  0
  5  6  1  6  0  0  0
  5 16  1  0  0  0  0
  7 19  1  0  0  0  0
  8  4  1  0  0  0  0
  8 24  2  0  0  0  0
  9  8  1  6  0  0  0
  9 10  1  0  0  0  0
  9 13  1  0  0  0  0
 10 11  1  0  0  0  0
 11 12  1  0  0  0  0
 14 15  1  0  0  0  0
 14 35  1  0  0  0  0
 15 17  1  0  0  0  0
 16 18  1  1  0  0  0
 16 25  1  0  0  0  0
 19 20  1  1  0  0  0
 19 27  1  0  0  0  0
 21 22  1  0  0  0  0
 21 23  1  0  0  0  0
 23 17  1  0  0  0  0
 25 26  1  1  0  0  0
 25 28  1  0  0  0  0
 27  2  1  1  0  0  0
 27 30  1  0  0  0  0
 28 29  1  0  0  0  0
 28 32  1  1  0  0  0
 30 31  1  6  0  0  0
 30 34  1  0  0  0  0
 32 33  2  0  0  0  0
 34 35  1  6  0  0  0
M  END
>  <CHROM.1>
-141.02994286,-144.78505034,83.64730759,69.71882297,77.25221692,85.46741801
-164.43748203,56.21072822,60.93077237,-111.80459715,-118.91908766,-130.04631994
-44.37655296,11.37284660,-3.02744031,25.81525921,-1.99798431,-0.71311259
-1.24081013

>  <Name>
2f4t_lig

>  <RI>
0

>  <Rbt.Current_Directory>
/home/itssahil/PROJECTS/Mol_Feturizer/New_Systems/rnas/2f4t

>  <Rbt.Executable>
rbdock ($Id: //depot/dev/client3/rdock/2013.1/src/exe/rbdock.cxx#4 $)

>  <Rbt.Library>
libRbt.so (2013.1, Build901 2013/11/27)

>  <Rbt.Parameter_File>
/export/apps/rDock/src/rDock_2013.1_src/data/scripts/dock_solv.prm

>  <Rbt.Receptor>
prm/blind_docking_60.prm

>  <SCORE>
12.076

>  <SCORE.INTER>
0.0826933

>  <SCORE.INTER.CONST>
1

>  <SCORE.INTER.POLAR>
-0.455082

>  <SCORE.INTER.ROT>
13

>  <SCORE.INTER.SOLV>
18.217

>  <SCORE.INTER.VDW>
-16.7669

>  <SCORE.INTER.norm>
0.00236267

>  <SCORE.INTRA>
4.39437

>  <SCORE.INTRA.DIHEDRAL>
-1.53777

>  <SCORE.INTRA.DIHEDRAL.0>
23.8882

>  <SCORE.INTRA.POLAR>
0

>  <SCORE.INTRA.POLAR.0>
0

>  <SCORE.INTRA.REPUL>
0

>  <SCORE.INTRA.REPUL.0>
0

>  <SCORE.INTRA.SOLV>
12.0318

>  <SCORE.INTRA.SOLV.lig_0>
-97.6888

>  <SCORE.INTRA.VDW>
-0.852638

>  <SCORE.INTRA.VDW.0>
-3.9206

>  <SCORE.INTRA.norm>
0.125554

>  <SCORE.RESTR>
7.59889

>  <SCORE.RESTR.CAVITY>
7.59889

>  <SCORE.RESTR.norm>
0.217111

>  <SCORE.SYSTEM>
0

>  <SCORE.SYSTEM.CONST>
0

>  <SCORE.SYSTEM.DIHEDRAL>
0

>  <SCORE.SYSTEM.SOLV>
0

>  <SCORE.SYSTEM.norm>
0

>  <SCORE.heavy>
35

>  <SCORE.norm>
0.345027

>  <RMSD>
13.433

$$$$
2f4t_lig
 OpenBabel11021811433D
libRbt.so/2013.1/901 2013/11/27
 35 36  0  0  0  0  0  0  0  0999 V2000
   10.8184   -2.8411   29.1364 C   0  0  2  0  0  0  0  0  0  0  0  0
   12.2628   -2.6667   28.9622 O   0  0  0  0  0  0  0  0  0  0  0  0
   12.4191   -0.7392   25.0999 C   0  0  2  0  0  0  0  0  0  0  0  0
   12.9544   -0.0179   23.9355 N   0  0  0  0  0  0  0  0  0  0  0  0
   10.5042   -2.3660   30.5873 C   0  0  2  0  0  0  0  0  0  0  0  0
   10.9522   -1.0078   30.7871 N   0  0  0  0  0  0  0  0  0  0  0  0
   12.7716    0.0563   26.4101 C   0  0  0  0  0  0  0  0  0  0  0  0
   11.7764   -0.0621   22.6205 C   0  0  0  0  0  0  0  0  0  0  0  0
   12.7835    0.7480   21.8345 C   0  0  1  0  0  0  0  0  0  0  0  0
   13.7378   -0.2363   21.1545 C   0  0  0  0  0  0  0  0  0  0  0  0
   15.2246   -0.0788   21.5148 C   0  0  0  0  0  0  0  0  0  0  0  0
   15.4427   -0.6584   22.8435 N   0  0  0  0  0  0  0  0  0  0  0  0
   12.1577    1.4560   20.7967 O   0  0  0  0  0  0  0  0  0  0  0  0
   12.7326   -3.1733   22.6310 C   0  0  0  0  0  0  0  0  0  0  0  0
   11.9745   -4.4770   22.4330 C   0  0  0  0  0  0  0  0  0  0  0  0
   11.1759   -3.3271   31.6253 C   0  0  1  0  0  0  0  0  0  0  0  0
   10.5963   -4.4468   22.9696 N   0  0  0  0  0  0  0  0  0  0  0  0
   10.8988   -2.9159   32.9499 O   0  0  0  0  0  0  0  0  0  0  0  0
   12.2484   -0.6515   27.6677 C   0  0  2  0  0  0  0  0  0  0  0  0
   12.6226    0.0837   28.8717 N   0  0  0  0  0  0  0  0  0  0  0  0
    8.1497   -3.9516   22.9426 C   0  0  0  0  0  0  0  0  0  0  0  0
    7.7837   -5.4062   23.3809 N   0  0  0  0  0  0  0  0  0  0  0  0
    9.4936   -3.8525   22.1619 C   0  0  0  0  0  0  0  0  0  0  0  0
   10.8052   -0.4875   22.4986 O   0  0  0  0  0  0  0  0  0  0  0  0
   10.6455   -4.7426   31.3748 C   0  0  2  0  0  0  0  0  0  0  0  0
   11.2072   -5.6656   32.2937 O   0  0  0  0  0  0  0  0  0  0  0  0
   12.8028   -2.0516   27.7531 C   0  0  2  0  0  0  0  0  0  0  0  0
   10.9592   -5.1756   29.9136 C   0  0  2  0  0  0  0  0  0  0  0  0
   10.3925   -4.2490   28.9639 O   0  0  0  0  0  0  0  0  0  0  0  0
   12.4237   -2.8716   26.4458 C   0  0  2  0  0  0  0  0  0  0  0  0
   12.9700   -4.2192   26.5662 O   0  0  0  0  0  0  0  0  0  0  0  0
   10.4387   -6.5305   29.6132 C   0  0  0  0  0  0  0  0  0  0  0  0
    9.8975   -7.0627   30.7310 N   0  0  0  0  0  0  0  0  0  0  0  0
   13.0334   -2.1443   25.1973 C   0  0  1  0  0  0  0  0  0  0  0  0
   12.7421   -2.8547   24.0362 O   0  0  0  0  0  0  0  0  0  0  0  0
  1  2  1  1  0  0  0
  1  5  1  0  0  0  0
  1 29  1  0  0  0  0
  3  4  1  6  0  0  0
  3  7  1  0  0  0  0
  3 34  1  0  0  0  0
  5  6  1  6  0  0  0
  5 16  1  0  0  0  0
  7 19  1  0  0  0  0
  8  4  1  0  0  0  0
  8 24  2  0  0  0  0
  9  8  1  6  0  0  0
  9 10  1  0  0  0  0
  9 13  1  0  0  0  0
 10 11  1  0  0  0  0
 11 12  1  0  0  0  0
 14 15  1  0  0  0  0
 14 35  1  0  0  0  0
 15 17  1  0  0  0  0
 16 18  1  1  0  0  0
 16 25  1  0  0  0  0
 19 20  1  1  0  0  0
 19 27  1  0  0  0  0
 21 22  1  0  0  0  0
 21 23  1  0  0  0  0
 23 17  1  0  0  0  0
 25 26  1  1  0  0  0
 25 28  1  0  0  0  0
 27  2  1  1  0  0  0
 27 30  1  0  0  0  0
 28 29  1  0  0  0  0
 28 32  1  6  0  0  0
 30 31  1  1  0  0  0
 30 34  1  0  0  0  0
 32 33  2  0  0  0  0
 34 35  1  6  0  0  0
M  END
>  <CHROM.1>
-134.32077847,-139.06456437,87.12626485,-121.27595484,77.00601852,56.46110265
178.63450871,82.56579785,-55.52727721,179.65305974,60.72447322,-3.80614189
61.41832947,11.70792568,-2.54180891,26.24838012,-1.89283430,-0.98288339,-1.48519915

>  <Name>
2f4t_lig

>  <RI>
0

>  <Rbt.Current_Directory>
/home/itssahil/PROJECTS/Mol_Feturizer/New_Systems/rnas/2f4t

>  <Rbt.Executable>
rbdock ($Id: //depot/dev/client3/rdock/2013.1/src/exe/rbdock.cxx#4 $)

>  <Rbt.Library>
libRbt.so (2013.1, Build901 2013/11/27)

>  <Rbt.Parameter_File>
/export/apps/rDock/src/rDock_2013.1_src/data/scripts/dock_solv.prm

>  <Rbt.Receptor>
prm/blind_docking_60.prm

>  <SCORE>
6.91377

>  <SCORE.INTER>
2.07285

>  <SCORE.INTER.CONST>
1

>  <SCORE.INTER.POLAR>
-0.979796

>  <SCORE.INTER.ROT>
13

>  <SCORE.INTER.SOLV>
17.4259

>  <SCORE.INTER.VDW>
-13.4274

>  <SCORE.INTER.norm>
0.0592242

>  <SCORE.INTRA>
1.65478

>  <SCORE.INTRA.DIHEDRAL>
-7.74307

>  <SCORE.INTRA.DIHEDRAL.0>
23.8882

>  <SCORE.INTRA.POLAR>
0

>  <SCORE.INTRA.POLAR.0>
0

>  <SCORE.INTRA.REPUL>
0

>  <SCORE.INTRA.REPUL.0>
0

>  <SCORE.INTRA.SOLV>
9.63613

>  <SCORE.INTRA.SOLV.lig_0>
-97.6888

>  <SCORE.INTRA.VDW>
0.708256

>  <SCORE.INTRA.VDW.0>
-3.9206

>  <SCORE.INTRA.norm>
0.0472796

>  <SCORE.RESTR>
3.18614

>  <SCORE.RESTR.CAVITY>
3.18614

>  <SCORE.RESTR.norm>
0.0910325

>  <SCORE.SYSTEM>
0

>  <SCORE.SYSTEM.CONST>
0

>  <SCORE.SYSTEM.DIHEDRAL>
0

>  <SCORE.SYSTEM.SOLV>
0

>  <SCORE.SYSTEM.norm>
0

>  <SCORE.heavy>
35

>  <SCORE.norm>
0.197536

>  <RMSD>
13.531

$$$$
2f4t_lig
 OpenBabel11021811433D
libRbt.so/2013.1/901 2013/11/27
 35 36  0  0  0  0  0  0  0  0999 V2000
   11.9304   -3.0680   28.7378 C   0  0  2  0  0  0  0  0  0  0  0  0
   10.9003   -2.5467   27.8354 O   0  0  0  0  0  0  0  0  0  0  0  0
   10.6924   -0.1884   24.2226 C   0  0  2  0  0  0  0  0  0  0  0  0
   11.1043    0.4546   22.9658 N   0  0  0  0  0  0  0  0  0  0  0  0
   12.5273   -4.3190   28.0249 C   0  0  2  0  0  0  0  0  0  0  0  0
   13.0267   -3.9696   26.7157 N   0  0  0  0  0  0  0  0  0  0  0  0
   11.7363    0.1551   25.3477 C   0  0  0  0  0  0  0  0  0  0  0  0
   12.3841   -0.4969   22.2071 C   0  0  0  0  0  0  0  0  0  0  0  0
   12.3599    0.5439   21.1096 C   0  0  1  0  0  0  0  0  0  0  0  0
   13.8078    0.8036   20.6878 C   0  0  0  0  0  0  0  0  0  0  0  0
   14.8262    0.9120   21.8351 C   0  0  0  0  0  0  0  0  0  0  0  0
   14.3070    1.8586   22.8268 N   0  0  0  0  0  0  0  0  0  0  0  0
   11.7087    0.0532   19.9670 O   0  0  0  0  0  0  0  0  0  0  0  0
    8.4553   -2.1056   22.3706 C   0  0  0  0  0  0  0  0  0  0  0  0
    8.6551   -2.8304   21.0484 C   0  0  0  0  0  0  0  0  0  0  0  0
   11.4450   -5.4459   27.9200 C   0  0  1  0  0  0  0  0  0  0  0  0
    9.0193   -4.2557   21.2048 N   0  0  0  0  0  0  0  0  0  0  0  0
   11.9684   -6.5932   27.2796 O   0  0  0  0  0  0  0  0  0  0  0  0
   11.3688   -0.4971   26.6878 C   0  0  2  0  0  0  0  0  0  0  0  0
   12.3725   -0.1976   27.7042 N   0  0  0  0  0  0  0  0  0  0  0  0
   10.4760   -5.6249   22.6997 C   0  0  0  0  0  0  0  0  0  0  0  0
    9.9248   -7.0486   22.3663 N   0  0  0  0  0  0  0  0  0  0  0  0
   10.4302   -4.6380   21.4958 C   0  0  0  0  0  0  0  0  0  0  0  0
   12.9001   -1.3960   22.4611 O   0  0  0  0  0  0  0  0  0  0  0  0
   10.9727   -5.7844   29.3378 C   0  0  2  0  0  0  0  0  0  0  0  0
    9.9956   -6.8124   29.3159 O   0  0  0  0  0  0  0  0  0  0  0  0
   11.2565   -1.9932   26.5321 C   0  0  2  0  0  0  0  0  0  0  0  0
   10.4018   -4.5104   30.0249 C   0  0  2  0  0  0  0  0  0  0  0  0
   11.3839   -3.4540   30.0591 O   0  0  0  0  0  0  0  0  0  0  0  0
   10.1803   -2.3486   25.4183 C   0  0  2  0  0  0  0  0  0  0  0  0
   10.0946   -3.8004   25.2997 O   0  0  0  0  0  0  0  0  0  0  0  0
    9.9574   -4.7813   31.4128 C   0  0  0  0  0  0  0  0  0  0  0  0
    9.4679   -3.6461   31.9582 N   0  0  0  0  0  0  0  0  0  0  0  0
   10.6323   -1.7149   24.0569 C   0  0  1  0  0  0  0  0  0  0  0  0
    9.7227   -2.0327   23.0521 O   0  0  0  0  0  0  0  0  0  0  0  0
  1  2  1  6  0  0  0
  1  5  1  0  0  0  0
  1 29  1  0  0  0  0
  3  4  1  6  0  0  0
  3  7  1  0  0  0  0
  3 34  1  0  0  0  0
  5  6  1  6  0  0  0
  5 16  1  0  0  0  0
  7 19  1  0  0  0  0
  8  4  1  0  0  0  0
  8 24  2  0  0  0  0
  9  8  1  1  0  0  0
  9 10  1  0  0  0  0
  9 13  1  0  0  0  0
 10 11  1  0  0  0  0
 11 12  1  0  0  0  0
 14 15  1  0  0  0  0
 14 35  1  0  0  0  0
 15 17  1  0  0  0  0
 16 18  1  1  0  0  0
 16 25  1  0  0  0  0
 19 20  1  1  0  0  0
 19 27  1  0  0  0  0
 21 22  1  0  0  0  0
 21 23  1  0  0  0  0
 23 17  1  0  0  0  0
 25 26  1  6  0  0  0
 25 28  1  0  0  0  0
 27  2  1  1  0  0  0
 27 30  1  0  0  0  0
 28 29  1  0  0  0  0
 28 32  1  1  0  0  0
 30 31  1  6  0  0  0
 30 34  1  0  0  0  0
 32 33  2  0  0  0  0
 34 35  1  6  0  0  0
M  END
>  <CHROM.1>
-65.86699774,79.22602480,140.50425540,-42.47777438,-50.10644131,66.55686977
-179.98231630,-81.05787776,71.07395864,130.51226205,-95.75329551,-179.77041249
-61.05509632,11.20397500,-2.63496645,25.18921705,-1.84199909,-1.09394088
-1.32315974

>  <Name>
2f4t_lig

>  <RI>
0

>  <Rbt.Current_Directory>
/home/itssahil/PROJECTS/Mol_Feturizer/New_Systems/rnas/2f4t

>  <Rbt.Executable>
rbdock ($Id: //depot/dev/client3/rdock/2013.1/src/exe/rbdock.cxx#4 $)

>  <Rbt.Library>
libRbt.so (2013.1, Build901 2013/11/27)

>  <Rbt.Parameter_File>
/export/apps/rDock/src/rDock_2013.1_src/data/scripts/dock_solv.prm

>  <Rbt.Receptor>
prm/blind_docking_60.prm

>  <SCORE>
1.21048

>  <SCORE.INTER>
-0.669254

>  <SCORE.INTER.CONST>
1

>  <SCORE.INTER.POLAR>
-0.676119

>  <SCORE.INTER.ROT>
13

>  <SCORE.INTER.SOLV>
24.4286

>  <SCORE.INTER.VDW>
-18.602

>  <SCORE.INTER.norm>
-0.0191215

>  <SCORE.INTRA>
-0.80868

>  <SCORE.INTRA.DIHEDRAL>
-11.4612

>  <SCORE.INTRA.DIHEDRAL.0>
23.8882

>  <SCORE.INTRA.POLAR>
0

>  <SCORE.INTRA.POLAR.0>
0

>  <SCORE.INTRA.REPUL>
0

>  <SCORE.INTRA.REPUL.0>
0

>  <SCORE.INTRA.SOLV>
8.83169

>  <SCORE.INTRA.SOLV.lig_0>
-97.6888

>  <SCORE.INTRA.VDW>
0.506076

>  <SCORE.INTRA.VDW.0>
-3.9206

>  <SCORE.INTRA.norm>
-0.0231051

>  <SCORE.RESTR>
2.68842

>  <SCORE.RESTR.CAVITY>
2.68842

>  <SCORE.RESTR.norm>
0.076812

>  <SCORE.SYSTEM>
0

>  <SCORE.SYSTEM.CONST>
0

>  <SCORE.SYSTEM.DIHEDRAL>
0

>  <SCORE.SYSTEM.SOLV>
0

>  <SCORE.SYSTEM.norm>
0

>  <SCORE.heavy>
35

>  <SCORE.norm>
0.0345853

>  <RMSD>
13.588

$$$$
2f4t_lig
 OpenBabel11021811433D
libRbt.so/2013.1/901 2013/11/27
 35 36  0  0  0  0  0  0  0  0999 V2000
   10.3777   -3.4401   29.6654 C   0  0  2  0  0  0  0  0  0  0  0  0
   11.7999   -3.1130   29.7986 O   0  0  0  0  0  0  0  0  0  0  0  0
   12.4975   -0.7838   26.2285 C   0  0  2  0  0  0  0  0  0  0  0  0
   13.1963    0.0354   25.2269 N   0  0  0  0  0  0  0  0  0  0  0  0
    9.9381   -4.0003   31.0519 C   0  0  2  0  0  0  0  0  0  0  0  0
   10.2176   -3.0459   32.0991 N   0  0  0  0  0  0  0  0  0  0  0  0
   12.7089   -0.1532   27.6537 C   0  0  0  0  0  0  0  0  0  0  0  0
   12.0234    0.7061   24.0897 C   0  0  0  0  0  0  0  0  0  0  0  0
   13.2099    1.3623   23.4189 C   0  0  1  0  0  0  0  0  0  0  0  0
   13.3343    0.7662   22.0149 C   0  0  0  0  0  0  0  0  0  0  0  0
   14.6193    1.1258   21.2504 C   0  0  0  0  0  0  0  0  0  0  0  0
   14.5860    0.4542   19.9477 N   0  0  0  0  0  0  0  0  0  0  0  0
   12.9861    2.7357   23.2350 O   0  0  0  0  0  0  0  0  0  0  0  0
   13.0546   -2.9567   23.5569 C   0  0  0  0  0  0  0  0  0  0  0  0
   11.9970   -3.9278   23.0548 C   0  0  0  0  0  0  0  0  0  0  0  0
   10.6615   -5.3597   31.3367 C   0  0  1  0  0  0  0  0  0  0  0  0
   11.9166   -4.0034   21.5796 N   0  0  0  0  0  0  0  0  0  0  0  0
   10.2724   -5.8881   32.5897 O   0  0  0  0  0  0  0  0  0  0  0  0
   12.0108   -0.9698   28.7502 C   0  0  2  0  0  0  0  0  0  0  0  0
   12.2551   -0.3883   30.0664 N   0  0  0  0  0  0  0  0  0  0  0  0
    9.4642   -3.5826   21.3796 C   0  0  0  0  0  0  0  0  0  0  0  0
    9.6000   -2.0812   20.9681 N   0  0  0  0  0  0  0  0  0  0  0  0
   10.6615   -4.4677   20.9233 C   0  0  0  0  0  0  0  0  0  0  0  0
   10.9639    0.6398   23.9799 O   0  0  0  0  0  0  0  0  0  0  0  0
   10.3094   -6.3314   30.2056 C   0  0  2  0  0  0  0  0  0  0  0  0
   10.9253   -7.5928   30.4093 O   0  0  0  0  0  0  0  0  0  0  0  0
   12.5056   -2.3946   28.7413 C   0  0  2  0  0  0  0  0  0  0  0  0
   10.7443   -5.7321   28.8370 C   0  0  2  0  0  0  0  0  0  0  0  0
   10.1246   -4.4490   28.6111 O   0  0  0  0  0  0  0  0  0  0  0  0
   12.2667   -3.0485   27.3130 C   0  0  2  0  0  0  0  0  0  0  0  0
   12.7507   -4.4247   27.3437 O   0  0  0  0  0  0  0  0  0  0  0  0
   10.3976   -6.6249   27.7058 C   0  0  0  0  0  0  0  0  0  0  0  0
   11.5178   -6.9331   27.0161 N   0  0  0  0  0  0  0  0  0  0  0  0
   13.0499   -2.2176   26.2381 C   0  0  1  0  0  0  0  0  0  0  0  0
   12.8833   -2.7829   24.9770 O   0  0  0  0  0  0  0  0  0  0  0  0
  1  2  1  1  0  0  0
  1  5  1  0  0  0  0
  1 29  1  0  0  0  0
  3  4  1  6  0  0  0
  3  7  1  0  0  0  0
  3 34  1  0  0  0  0
  5  6  1  1  0  0  0
  5 16  1  0  0  0  0
  7 19  1  0  0  0  0
  8  4  1  0  0  0  0
  8 24  2  0  0  0  0
  9  8  1  6  0  0  0
  9 10  1  0  0  0  0
  9 13  1  0  0  0  0
 10 11  1  0  0  0  0
 11 12  1  0  0  0  0
 14 15  1  0  0  0  0
 14 35  1  0  0  0  0
 15 17  1  0  0  0  0
 16 18  1  1  0  0  0
 16 25  1  0  0  0  0
 19 20  1  1  0  0  0
 19 27  1  0  0  0  0
 21 22  1  0  0  0  0
 21 23  1  0  0  0  0
 23 17  1  0  0  0  0
 25 26  1  1  0  0  0
 25 28  1  0  0  0  0
 27  2  1  1  0  0  0
 27 30  1  0  0  0  0
 28 29  1  0  0  0  0
 28 32  1  6  0  0  0
 30 31  1  1  0  0  0
 30 34  1  0  0  0  0
 32 33  2  0  0  0  0
 34 35  1  6  0  0  0
M  END
>  <CHROM.1>
-171.74080621,-117.45238421,115.54589252,-170.11108087,178.84131123,169.76237388
-167.11804641,-156.85441608,62.77155850,56.38405108,71.33190286,-122.37513793
63.52185895,11.76632091,-2.66607590,26.32443974,-2.22431756,-1.24173359,-1.67707811

>  <Name>
2f4t_lig

>  <RI>
0

>  <Rbt.Current_Directory>
/home/itssahil/PROJECTS/Mol_Feturizer/New_Systems/rnas/2f4t

>  <Rbt.Executable>
rbdock ($Id: //depot/dev/client3/rdock/2013.1/src/exe/rbdock.cxx#4 $)

>  <Rbt.Library>
libRbt.so (2013.1, Build901 2013/11/27)

>  <Rbt.Parameter_File>
/export/apps/rDock/src/rDock_2013.1_src/data/scripts/dock_solv.prm

>  <Rbt.Receptor>
prm/blind_docking_60.prm

>  <SCORE>
-9.05153

>  <SCORE.INTER>
-4.48465

>  <SCORE.INTER.CONST>
1

>  <SCORE.INTER.POLAR>
0

>  <SCORE.INTER.ROT>
13

>  <SCORE.INTER.SOLV>
16.569

>  <SCORE.INTER.VDW>
-20.7794

>  <SCORE.INTER.norm>
-0.128133

>  <SCORE.INTRA>
-7.42639

>  <SCORE.INTRA.DIHEDRAL>
-16.5008

>  <SCORE.INTRA.DIHEDRAL.0>
23.8882

>  <SCORE.INTRA.POLAR>
0

>  <SCORE.INTRA.POLAR.0>
0

>  <SCORE.INTRA.REPUL>
0

>  <SCORE.INTRA.REPUL.0>
0

>  <SCORE.INTRA.SOLV>
2.0667

>  <SCORE.INTRA.SOLV.lig_0>
-97.6888

>  <SCORE.INTRA.VDW>
-0.20933

>  <SCORE.INTRA.VDW.0>
-3.9206

>  <SCORE.INTRA.norm>
-0.212183

>  <SCORE.RESTR>
2.85951

>  <SCORE.RESTR.CAVITY>
2.85951

>  <SCORE.RESTR.norm>
0.0817004

>  <SCORE.SYSTEM>
0

>  <SCORE.SYSTEM.CONST>
0

>  <SCORE.SYSTEM.DIHEDRAL>
0

>  <SCORE.SYSTEM.SOLV>
0

>  <SCORE.SYSTEM.norm>
0

>  <SCORE.heavy>
35

>  <SCORE.norm>
-0.258615

>  <RMSD>
13.589

$$$$
2f4t_lig
 OpenBabel11021811433D
libRbt.so/2013.1/901 2013/11/27
 35 36  0  0  0  0  0  0  0  0999 V2000
   11.7541   -4.3639   28.4389 C   0  0  2  0  0  0  0  0  0  0  0  0
   10.7066   -4.0065   27.4786 O   0  0  0  0  0  0  0  0  0  0  0  0
   10.3665   -1.0895   24.3113 C   0  0  2  0  0  0  0  0  0  0  0  0
   10.7360   -0.2373   23.1711 N   0  0  0  0  0  0  0  0  0  0  0  0
   11.5018   -5.8572   28.8079 C   0  0  2  0  0  0  0  0  0  0  0  0
   11.4970   -6.6813   27.6221 N   0  0  0  0  0  0  0  0  0  0  0  0
   11.4276   -0.9105   25.4583 C   0  0  0  0  0  0  0  0  0  0  0  0
   12.2621   -0.8000   22.4831 C   0  0  0  0  0  0  0  0  0  0  0  0
   12.1041    0.3261   21.4857 C   0  0  1  0  0  0  0  0  0  0  0  0
   13.4369    1.0753   21.4204 C   0  0  0  0  0  0  0  0  0  0  0  0
   14.5830    0.3345   20.7114 C   0  0  0  0  0  0  0  0  0  0  0  0
   15.1634   -0.6285   21.6520 N   0  0  0  0  0  0  0  0  0  0  0  0
   11.8814   -0.1754   20.1938 O   0  0  0  0  0  0  0  0  0  0  0  0
    8.4643   -3.4184   22.0223 C   0  0  0  0  0  0  0  0  0  0  0  0
    8.6600   -2.9395   20.5920 C   0  0  0  0  0  0  0  0  0  0  0  0
   10.1488   -5.9984   29.5836 C   0  0  1  0  0  0  0  0  0  0  0  0
    8.7195   -4.0385   19.6034 N   0  0  0  0  0  0  0  0  0  0  0  0
    9.9029   -7.3468   29.9324 O   0  0  0  0  0  0  0  0  0  0  0  0
   11.1045   -1.7843   26.6783 C   0  0  2  0  0  0  0  0  0  0  0  0
   12.1240   -1.6318   27.7115 N   0  0  0  0  0  0  0  0  0  0  0  0
    9.9935   -5.4442   17.9809 C   0  0  0  0  0  0  0  0  0  0  0  0
    8.8566   -6.4974   17.7803 N   0  0  0  0  0  0  0  0  0  0  0  0
    9.9930   -4.7832   19.3911 C   0  0  0  0  0  0  0  0  0  0  0  0
   12.9426   -1.5890   22.7147 O   0  0  0  0  0  0  0  0  0  0  0  0
   10.2254   -5.1196   30.8364 C   0  0  2  0  0  0  0  0  0  0  0  0
    9.0305   -5.2113   31.5952 O   0  0  0  0  0  0  0  0  0  0  0  0
   11.0213   -3.2364   26.2787 C   0  0  2  0  0  0  0  0  0  0  0  0
   10.4970   -3.6419   30.4319 C   0  0  2  0  0  0  0  0  0  0  0  0
   11.7114   -3.5287   29.6613 O   0  0  0  0  0  0  0  0  0  0  0  0
    9.9284   -3.4298   25.1415 C   0  0  2  0  0  0  0  0  0  0  0  0
    9.8716   -4.8437   24.7854 O   0  0  0  0  0  0  0  0  0  0  0  0
   10.6088   -2.7552   31.6144 C   0  0  0  0  0  0  0  0  0  0  0  0
   11.8465   -2.2147   31.6561 N   0  0  0  0  0  0  0  0  0  0  0  0
   10.3358   -2.5685   23.8959 C   0  0  1  0  0  0  0  0  0  0  0  0
    9.4111   -2.7386   22.8694 O   0  0  0  0  0  0  0  0  0  0  0  0
  1  2  1  6  0  0  0
  1  5  1  0  0  0  0
  1 29  1  0  0  0  0
  3  4  1  6  0  0  0
  3  7  1  0  0  0  0
  3 34  1  0  0  0  0
  5  6  1  6  0  0  0
  5 16  1  0  0  0  0
  7 19  1  0  0  0  0
  8  4  1  0  0  0  0
  8 24  2  0  0  0  0
  9  8  1  1  0  0  0
  9 10  1  0  0  0  0
  9 13  1  0  0  0  0
 10 11  1  0  0  0  0
 11 12  1  0  0  0  0
 14 15  1  0  0  0  0
 14 35  1  0  0  0  0
 15 17  1  0  0  0  0
 16 18  1  1  0  0  0
 16 25  1  0  0  0  0
 19 20  1  1  0  0  0
 19 27  1  0  0  0  0
 21 22  1  0  0  0  0
 21 23  1  0  0  0  0
 23 17  1  0  0  0  0
 25 26  1  6  0  0  0
 25 28  1  0  0  0  0
 27  2  1  1  0  0  0
 27 30  1  0  0  0  0
 28 29  1  0  0  0  0
 28 32  1  1  0  0  0
 30 31  1  6  0  0  0
 30 34  1  0  0  0  0
 32 33  2  0  0  0  0
 34 35  1  6  0  0  0
M  END
>  <CHROM.1>
-136.06331097,65.20607291,131.84992407,72.17977619,-80.52486458,132.71009078
-140.47510580,-81.77344422,-62.01697630,-157.08880499,-80.63398804,117.75109133
-155.17103869,10.92733628,-3.10257374,25.01946142,-1.64706542,-0.99525503
-1.40576477

>  <Name>
2f4t_lig

>  <RI>
0

>  <Rbt.Current_Directory>
/home/itssahil/PROJECTS/Mol_Feturizer/New_Systems/rnas/2f4t

>  <Rbt.Executable>
rbdock ($Id: //depot/dev/client3/rdock/2013.1/src/exe/rbdock.cxx#4 $)

>  <Rbt.Library>
libRbt.so (2013.1, Build901 2013/11/27)

>  <Rbt.Parameter_File>
/export/apps/rDock/src/rDock_2013.1_src/data/scripts/dock_solv.prm

>  <Rbt.Receptor>
prm/blind_docking_60.prm

>  <SCORE>
12.5973

>  <SCORE.INTER>
2.49354

>  <SCORE.INTER.CONST>
1

>  <SCORE.INTER.POLAR>
-0.605598

>  <SCORE.INTER.ROT>
13

>  <SCORE.INTER.SOLV>
19.635

>  <SCORE.INTER.VDW>
-15.1306

>  <SCORE.INTER.norm>
0.071244

>  <SCORE.INTRA>
6.27182

>  <SCORE.INTRA.DIHEDRAL>
2.72919

>  <SCORE.INTRA.DIHEDRAL.0>
23.8882

>  <SCORE.INTRA.POLAR>
0

>  <SCORE.INTRA.POLAR.0>
0

>  <SCORE.INTRA.REPUL>
0

>  <SCORE.INTRA.REPUL.0>
0

>  <SCORE.INTRA.SOLV>
6.53866

>  <SCORE.INTRA.SOLV.lig_0>
-97.6888

>  <SCORE.INTRA.VDW>
1.63789

>  <SCORE.INTRA.VDW.0>
-3.9206

>  <SCORE.INTRA.norm>
0.179195

>  <SCORE.RESTR>
3.83196

>  <SCORE.RESTR.CAVITY>
3.83196

>  <SCORE.RESTR.norm>
0.109484

>  <SCORE.SYSTEM>
0

>  <SCORE.SYSTEM.CONST>
0

>  <SCORE.SYSTEM.DIHEDRAL>
0

>  <SCORE.SYSTEM.SOLV>
0

>  <SCORE.SYSTEM.norm>
0

>  <SCORE.heavy>
35

>  <SCORE.norm>
0.359923

>  <RMSD>
13.667

$$$$
2f4t_lig
 OpenBabel11021811433D
libRbt.so/2013.1/901 2013/11/27
 35 36  0  0  0  0  0  0  0  0999 V2000
   10.8762   -4.5810   28.2200 C   0  0  2  0  0  0  0  0  0  0  0  0
   12.2950   -4.2743   28.0198 O   0  0  0  0  0  0  0  0  0  0  0  0
   12.8383   -0.9000   25.3784 C   0  0  2  0  0  0  0  0  0  0  0  0
   13.3738   -0.0685   24.2901 N   0  0  0  0  0  0  0  0  0  0  0  0
   10.3295   -3.4689   29.1654 C   0  0  2  0  0  0  0  0  0  0  0  0
   10.5657   -2.1601   28.6026 N   0  0  0  0  0  0  0  0  0  0  0  0
   14.0280   -1.4307   26.2596 C   0  0  0  0  0  0  0  0  0  0  0  0
   14.0814   -1.1052   23.0478 C   0  0  0  0  0  0  0  0  0  0  0  0
   14.3979    0.1768   22.3100 C   0  0  1  0  0  0  0  0  0  0  0  0
   15.4803   -0.1409   21.2759 C   0  0  0  0  0  0  0  0  0  0  0  0
   15.7628    0.9660   20.2463 C   0  0  0  0  0  0  0  0  0  0  0  0
   14.5651    1.1462   19.4204 N   0  0  0  0  0  0  0  0  0  0  0  0
   13.2860    0.6222   21.5782 O   0  0  0  0  0  0  0  0  0  0  0  0
    9.7329   -1.6526   23.3738 C   0  0  0  0  0  0  0  0  0  0  0  0
    9.5164   -3.0121   22.7271 C   0  0  0  0  0  0  0  0  0  0  0  0
   10.9934   -3.5899   30.5786 C   0  0  1  0  0  0  0  0  0  0  0  0
   10.6834   -3.4920   21.9547 N   0  0  0  0  0  0  0  0  0  0  0  0
   10.5069   -2.5915   31.4542 O   0  0  0  0  0  0  0  0  0  0  0  0
   13.5357   -2.3178   27.4117 C   0  0  2  0  0  0  0  0  0  0  0  0
   14.6592   -2.8304   28.1896 N   0  0  0  0  0  0  0  0  0  0  0  0
   10.9284   -5.9145   22.5050 C   0  0  0  0  0  0  0  0  0  0  0  0
    9.5908   -5.9927   23.3091 N   0  0  0  0  0  0  0  0  0  0  0  0
   11.6000   -4.5099   22.5422 C   0  0  0  0  0  0  0  0  0  0  0  0
   14.2005   -2.1593   22.9303 O   0  0  0  0  0  0  0  0  0  0  0  0
   10.6900   -4.9877   31.1279 C   0  0  2  0  0  0  0  0  0  0  0  0
   11.2549   -5.1604   32.4174 O   0  0  0  0  0  0  0  0  0  0  0  0
   12.7357   -3.4793   26.8771 C   0  0  2  0  0  0  0  0  0  0  0  0
   11.2319   -6.0707   30.1508 C   0  0  2  0  0  0  0  0  0  0  0  0
   10.6653   -5.9124   28.8335 O   0  0  0  0  0  0  0  0  0  0  0  0
   11.5131   -2.9499   26.0111 C   0  0  2  0  0  0  0  0  0  0  0  0
   10.7604   -4.0981   25.5167 O   0  0  0  0  0  0  0  0  0  0  0  0
   10.9361   -7.4433   30.6256 C   0  0  0  0  0  0  0  0  0  0  0  0
    9.6340   -7.7262   30.4015 N   0  0  0  0  0  0  0  0  0  0  0  0
   12.0694   -2.1044   24.8132 C   0  0  1  0  0  0  0  0  0  0  0  0
   11.0220   -1.6488   24.0177 O   0  0  0  0  0  0  0  0  0  0  0  0
  1  2  1  1  0  0  0
  1  5  1  0  0  0  0
  1 29  1  0  0  0  0
  3  4  1  6  0  0  0
  3  7  1  0  0  0  0
  3 34  1  0  0  0  0
  5  6  1  6  0  0  0
  5 16  1  0  0  0  0
  7 19  1  0  0  0  0
  8  4  1  0  0  0  0
  8 24  2  0  0  0  0
  9  8  1  6  0  0  0
  9 10  1  0  0  0  0
  9 13  1  0  0  0  0
 10 11  1  0  0  0  0
 11 12  1  0  0  0  0
 14 15  1  0  0  0  0
 14 35  1  0  0  0  0
 15 17  1  0  0  0  0
 16 18  1  1  0  0  0
 16 25  1  0  0  0  0
 19 20  1  6  0  0  0
 19 27  1  0  0  0  0
 21 22  1  0  0  0  0
 21 23  1  0  0  0  0
 23 17  1  0  0  0  0
 25 26  1  1  0  0  0
 25 28  1  0  0  0  0
 27  2  1  1  0  0  0
 27 30  1  0  0  0  0
 28 29  1  0  0  0  0
 28 32  1  1  0  0  0
 30 31  1  6  0  0  0
 30 34  1  0  0  0  0
 32 33  2  0  0  0  0
 34 35  1  6  0  0  0
M  END
>  <CHROM.1>
-93.60893971,75.85271092,161.50129655,169.26064507,-65.15871587,-46.37195072
-47.48825302,101.27789875,-60.28407822,75.32161786,125.17912029,76.08717596
-150.84654142,11.99695570,-2.99702643,25.87132665,2.02122671,0.87731935,1.70860270

>  <Name>
2f4t_lig

>  <RI>
0

>  <Rbt.Current_Directory>
/home/itssahil/PROJECTS/Mol_Feturizer/New_Systems/rnas/2f4t

>  <Rbt.Executable>
rbdock ($Id: //depot/dev/client3/rdock/2013.1/src/exe/rbdock.cxx#4 $)

>  <Rbt.Library>
libRbt.so (2013.1, Build901 2013/11/27)

>  <Rbt.Parameter_File>
/export/apps/rDock/src/rDock_2013.1_src/data/scripts/dock_solv.prm

>  <Rbt.Receptor>
prm/blind_docking_60.prm

>  <SCORE>
8.04397

>  <SCORE.INTER>
0.41856

>  <SCORE.INTER.CONST>
1

>  <SCORE.INTER.POLAR>
0

>  <SCORE.INTER.ROT>
13

>  <SCORE.INTER.SOLV>
17.744

>  <SCORE.INTER.VDW>
-17.9023

>  <SCORE.INTER.norm>
0.0119589

>  <SCORE.INTRA>
5.31144

>  <SCORE.INTRA.DIHEDRAL>
-2.98262

>  <SCORE.INTRA.DIHEDRAL.0>
23.8882

>  <SCORE.INTRA.POLAR>
0

>  <SCORE.INTRA.POLAR.0>
0

>  <SCORE.INTRA.REPUL>
0

>  <SCORE.INTRA.REPUL.0>
0

>  <SCORE.INTRA.SOLV>
10.772

>  <SCORE.INTRA.SOLV.lig_0>
-97.6888

>  <SCORE.INTRA.VDW>
1.41675

>  <SCORE.INTRA.VDW.0>
-3.9206

>  <SCORE.INTRA.norm>
0.151755

>  <SCORE.RESTR>
2.31397

>  <SCORE.RESTR.CAVITY>
2.31397

>  <SCORE.RESTR.norm>
0.0661134

>  <SCORE.SYSTEM>
0

>  <SCORE.SYSTEM.CONST>
0

>  <SCORE.SYSTEM.DIHEDRAL>
0

>  <SCORE.SYSTEM.SOLV>
0

>  <SCORE.SYSTEM.norm>
0

>  <SCORE.heavy>
35

>  <SCORE.norm>
0.229828

>  <RMSD>
13.704

$$$$
2f4t_lig
 OpenBabel11021811433D
libRbt.so/2013.1/901 2013/11/27
 35 36  0  0  0  0  0  0  0  0999 V2000
   11.6493   -4.6282   28.6478 C   0  0  2  0  0  0  0  0  0  0  0  0
   10.8351   -4.3530   27.4609 O   0  0  0  0  0  0  0  0  0  0  0  0
   11.4149   -2.4083   23.6479 C   0  0  2  0  0  0  0  0  0  0  0  0
   12.0854   -1.9135   22.4361 N   0  0  0  0  0  0  0  0  0  0  0  0
   10.7609   -5.5076   29.5788 C   0  0  2  0  0  0  0  0  0  0  0  0
   10.3216   -6.6977   28.8888 N   0  0  0  0  0  0  0  0  0  0  0  0
   12.2298   -1.9540   24.9141 C   0  0  0  0  0  0  0  0  0  0  0  0
   12.5239   -0.2168   22.6545 C   0  0  0  0  0  0  0  0  0  0  0  0
   13.1034   -0.2983   21.2596 C   0  0  1  0  0  0  0  0  0  0  0  0
   13.7600    1.0496   20.9531 C   0  0  0  0  0  0  0  0  0  0  0  0
   14.4936    1.1415   19.6046 C   0  0  0  0  0  0  0  0  0  0  0  0
   15.7618    0.4149   19.7173 N   0  0  0  0  0  0  0  0  0  0  0  0
   14.1332   -1.2502   21.1989 O   0  0  0  0  0  0  0  0  0  0  0  0
    9.5039   -4.5467   21.6353 C   0  0  0  0  0  0  0  0  0  0  0  0
    9.2657   -3.2557   20.8672 C   0  0  0  0  0  0  0  0  0  0  0  0
    9.5329   -4.6805   30.0890 C   0  0  1  0  0  0  0  0  0  0  0  0
    8.3655   -3.4171   19.7044 N   0  0  0  0  0  0  0  0  0  0  0  0
    8.7154   -5.4598   30.9404 O   0  0  0  0  0  0  0  0  0  0  0  0
   11.5863   -2.4491   26.2168 C   0  0  2  0  0  0  0  0  0  0  0  0
   12.3816   -2.0501   27.3738 N   0  0  0  0  0  0  0  0  0  0  0  0
    9.6255   -5.1241   18.3892 C   0  0  0  0  0  0  0  0  0  0  0  0
    8.8509   -6.1965   19.2209 N   0  0  0  0  0  0  0  0  0  0  0  0
    8.9300   -3.7310   18.3612 C   0  0  0  0  0  0  0  0  0  0  0  0
   12.4046    0.4923   23.4432 O   0  0  0  0  0  0  0  0  0  0  0  0
   10.0642   -3.4474   30.8271 C   0  0  2  0  0  0  0  0  0  0  0  0
    8.9985   -2.6569   31.3283 O   0  0  0  0  0  0  0  0  0  0  0  0
   11.4570   -3.9518   26.2023 C   0  0  2  0  0  0  0  0  0  0  0  0
   10.9609   -2.6047   29.8747 C   0  0  2  0  0  0  0  0  0  0  0  0
   12.0532   -3.3923   29.3570 O   0  0  0  0  0  0  0  0  0  0  0  0
   10.6079   -4.4163   24.9421 C   0  0  2  0  0  0  0  0  0  0  0  0
   10.4988   -5.8712   24.9643 O   0  0  0  0  0  0  0  0  0  0  0  0
   11.5236   -1.4132   30.5534 C   0  0  0  0  0  0  0  0  0  0  0  0
   11.8319   -0.4741   29.6320 N   0  0  0  0  0  0  0  0  0  0  0  0
   11.3377   -3.9429   23.6373 C   0  0  1  0  0  0  0  0  0  0  0  0
   10.6318   -4.3597   22.5122 O   0  0  0  0  0  0  0  0  0  0  0  0
  1  2  1  6  0  0  0
  1  5  1  0  0  0  0
  1 29  1  0  0  0  0
  3  4  1  6  0  0  0
  3  7  1  0  0  0  0
  3 34  1  0  0  0  0
  5  6  1  6  0  0  0
  5 16  1  0  0  0  0
  7 19  1  0  0  0  0
  8  4  1  0  0  0  0
  8 24  2  0  0  0  0
  9  8  1  1  0  0  0
  9 10  1  0  0  0  0
  9 13  1  0  0  0  0
 10 11  1  0  0  0  0
 11 12  1  0  0  0  0
 14 15  1  0  0  0  0
 14 35  1  0  0  0  0
 15 17  1  0  0  0  0
 16 18  1  1  0  0  0
 16 25  1  0  0  0  0
 19 20  1  1  0  0  0
 19 27  1  0  0  0  0
 21 22  1  0  0  0  0
 21 23  1  0  0  0  0
 23 17  1  0  0  0  0
 25 26  1  6  0  0  0
 25 28  1  0  0  0  0
 27  2  1  1  0  0  0
 27 30  1  0  0  0  0
 28 29  1  0  0  0  0
 28 32  1  1  0  0  0
 30 31  1  6  0  0  0
 30 34  1  0  0  0  0
 32 33  2  0  0  0  0
 34 35  1  6  0  0  0
M  END
>  <CHROM.1>
-159.34038992,-46.16841285,-176.53362788,176.17645399,-75.27692322,165.55343743
79.69891461,-91.22291535,39.90750906,63.79279362,-88.36916001,-156.28395446
-67.81033878,11.19573933,-2.97445545,24.88971962,1.78076490,0.90462194,1.59131653

>  <Name>
2f4t_lig

>  <RI>
0

>  <Rbt.Current_Directory>
/home/itssahil/PROJECTS/Mol_Feturizer/New_Systems/rnas/2f4t

>  <Rbt.Executable>
rbdock ($Id: //depot/dev/client3/rdock/2013.1/src/exe/rbdock.cxx#4 $)

>  <Rbt.Library>
libRbt.so (2013.1, Build901 2013/11/27)

>  <Rbt.Parameter_File>
/export/apps/rDock/src/rDock_2013.1_src/data/scripts/dock_solv.prm

>  <Rbt.Receptor>
prm/blind_docking_60.prm

>  <SCORE>
11.0135

>  <SCORE.INTER>
3.12641

>  <SCORE.INTER.CONST>
1

>  <SCORE.INTER.POLAR>
-1.43386

>  <SCORE.INTER.ROT>
13

>  <SCORE.INTER.SOLV>
18.7098

>  <SCORE.INTER.VDW>
-11.6395

>  <SCORE.INTER.norm>
0.0893259

>  <SCORE.INTRA>
2.32666

>  <SCORE.INTRA.DIHEDRAL>
-10.4235

>  <SCORE.INTRA.DIHEDRAL.0>
23.8882

>  <SCORE.INTRA.POLAR>
0

>  <SCORE.INTRA.POLAR.0>
0

>  <SCORE.INTRA.REPUL>
0

>  <SCORE.INTRA.REPUL.0>
0

>  <SCORE.INTRA.SOLV>
8.4997

>  <SCORE.INTRA.SOLV.lig_0>
-97.6888

>  <SCORE.INTRA.VDW>
3.28859

>  <SCORE.INTRA.VDW.0>
-3.9206

>  <SCORE.INTRA.norm>
0.0664761

>  <SCORE.RESTR>
5.56043

>  <SCORE.RESTR.CAVITY>
5.56043

>  <SCORE.RESTR.norm>
0.15887

>  <SCORE.SYSTEM>
0

>  <SCORE.SYSTEM.CONST>
0

>  <SCORE.SYSTEM.DIHEDRAL>
0

>  <SCORE.SYSTEM.SOLV>
0

>  <SCORE.SYSTEM.norm>
0

>  <SCORE.heavy>
35

>  <SCORE.norm>
0.314671

>  <RMSD>
13.797

$$$$
2f4t_lig
 OpenBabel11021811433D
libRbt.so/2013.1/901 2013/11/27
 35 36  0  0  0  0  0  0  0  0999 V2000
   10.5954   -3.1059   29.1294 C   0  0  2  0  0  0  0  0  0  0  0  0
   11.9858   -3.0312   28.6727 O   0  0  0  0  0  0  0  0  0  0  0  0
   11.5829   -1.0352   24.8634 C   0  0  2  0  0  0  0  0  0  0  0  0
   11.9474   -0.4431   23.5675 N   0  0  0  0  0  0  0  0  0  0  0  0
   10.5811   -2.4749   30.5546 C   0  0  2  0  0  0  0  0  0  0  0  0
   11.1092   -1.1312   30.5224 N   0  0  0  0  0  0  0  0  0  0  0  0
   12.5179   -0.4481   25.9835 C   0  0  0  0  0  0  0  0  0  0  0  0
   13.5346   -1.0378   23.0717 C   0  0  0  0  0  0  0  0  0  0  0  0
   13.3495   -0.1847   21.8363 C   0  0  1  0  0  0  0  0  0  0  0  0
   14.4675   -0.5444   20.8552 C   0  0  0  0  0  0  0  0  0  0  0  0
   15.6971    0.3790   20.8794 C   0  0  0  0  0  0  0  0  0  0  0  0
   15.2481    1.7538   20.6396 N   0  0  0  0  0  0  0  0  0  0  0  0
   12.1481   -0.5015   21.1832 O   0  0  0  0  0  0  0  0  0  0  0  0
    9.7329   -3.3829   23.1049 C   0  0  0  0  0  0  0  0  0  0  0  0
    9.7333   -4.8560   22.7262 C   0  0  0  0  0  0  0  0  0  0  0  0
   11.4019   -3.3669   31.5460 C   0  0  1  0  0  0  0  0  0  0  0  0
    9.1735   -5.1212   21.3827 N   0  0  0  0  0  0  0  0  0  0  0  0
   11.3975   -2.8138   32.8477 O   0  0  0  0  0  0  0  0  0  0  0  0
   12.1953   -1.0358   27.3644 C   0  0  2  0  0  0  0  0  0  0  0  0
   13.1015   -0.5070   28.3790 N   0  0  0  0  0  0  0  0  0  0  0  0
    9.3815   -5.3050   18.9019 C   0  0  0  0  0  0  0  0  0  0  0  0
    9.5245   -4.4834   17.5804 N   0  0  0  0  0  0  0  0  0  0  0  0
    9.8104   -4.5200   20.1767 C   0  0  0  0  0  0  0  0  0  0  0  0
   14.2528   -1.7018   23.4987 O   0  0  0  0  0  0  0  0  0  0  0  0
   10.7813   -4.7677   31.5500 C   0  0  2  0  0  0  0  0  0  0  0  0
   11.4729   -5.6272   32.4415 O   0  0  0  0  0  0  0  0  0  0  0  0
   12.3102   -2.5395   27.3366 C   0  0  2  0  0  0  0  0  0  0  0  0
   10.7948   -5.3579   30.1104 C   0  0  2  0  0  0  0  0  0  0  0  0
   10.0925   -4.4976   29.1894 O   0  0  0  0  0  0  0  0  0  0  0  0
   11.3446   -3.1423   26.2279 C   0  0  2  0  0  0  0  0  0  0  0  0
   11.4777   -4.5953   26.2341 O   0  0  0  0  0  0  0  0  0  0  0  0
   10.1766   -6.7040   30.0574 C   0  0  0  0  0  0  0  0  0  0  0  0
   10.9886   -7.5964   30.6655 N   0  0  0  0  0  0  0  0  0  0  0  0
   11.7542   -2.5619   24.8299 C   0  0  1  0  0  0  0  0  0  0  0  0
   10.9433   -3.0936   23.8312 O   0  0  0  0  0  0  0  0  0  0  0  0
  1  2  1  1  0  0  0
  1  5  1  0  0  0  0
  1 29  1  0  0  0  0
  3  4  1  6  0  0  0
  3  7  1  0  0  0  0
  3 34  1  0  0  0  0
  5  6  1  6  0  0  0
  5 16  1  0  0  0  0
  7 19  1  0  0  0  0
  8  4  1  0  0  0  0
  8 24  2  0  0  0  0
  9  8  1  1  0  0  0
  9 10  1  0  0  0  0
  9 13  1  0  0  0  0
 10 11  1  0  0  0  0
 11 12  1  0  0  0  0
 14 15  1  0  0  0  0
 14 35  1  0  0  0  0
 15 17  1  0  0  0  0
 16 18  1  1  0  0  0
 16 25  1  0  0  0  0
 19 20  1  1  0  0  0
 19 27  1  0  0  0  0
 21 22  1  0  0  0  0
 21 23  1  0  0  0  0
 23 17  1  0  0  0  0
 25 26  1  1  0  0  0
 25 28  1  0  0  0  0
 27  2  1  1  0  0  0
 27 30  1  0  0  0  0
 28 29  1  0  0  0  0
 28 32  1  1  0  0  0
 30 31  1  6  0  0  0
 30 34  1  0  0  0  0
 32 33  2  0  0  0  0
 34 35  1  6  0  0  0
M  END
>  <CHROM.1>
-132.91658142,68.98535488,-170.15870300,-96.50591309,-56.19119211,-141.93432733
-135.37640282,60.63132933,158.04495846,160.51200024,77.13369520,-70.96435918
-57.48048252,11.61801629,-2.85507350,25.76887855,1.74226276,0.94381390,1.65051619

>  <Name>
2f4t_lig

>  <RI>
0

>  <Rbt.Current_Directory>
/home/itssahil/PROJECTS/Mol_Feturizer/New_Systems/rnas/2f4t

>  <Rbt.Executable>
rbdock ($Id: //depot/dev/client3/rdock/2013.1/src/exe/rbdock.cxx#4 $)

>  <Rbt.Library>
libRbt.so (2013.1, Build901 2013/11/27)

>  <Rbt.Parameter_File>
/export/apps/rDock/src/rDock_2013.1_src/data/scripts/dock_solv.prm

>  <Rbt.Receptor>
prm/blind_docking_60.prm

>  <SCORE>
9.40349

>  <SCORE.INTER>
0.78498

>  <SCORE.INTER.CONST>
1

>  <SCORE.INTER.POLAR>
-0.862642

>  <SCORE.INTER.ROT>
13

>  <SCORE.INTER.SOLV>
15.8213

>  <SCORE.INTER.VDW>
-14.1416

>  <SCORE.INTER.norm>
0.022428

>  <SCORE.INTRA>
4.62698

>  <SCORE.INTRA.DIHEDRAL>
2.01913

>  <SCORE.INTRA.DIHEDRAL.0>
23.8882

>  <SCORE.INTRA.POLAR>
0

>  <SCORE.INTRA.POLAR.0>
0

>  <SCORE.INTRA.REPUL>
0

>  <SCORE.INTRA.REPUL.0>
0

>  <SCORE.INTRA.SOLV>
4.03209

>  <SCORE.INTRA.SOLV.lig_0>
-97.6888

>  <SCORE.INTRA.VDW>
1.60138

>  <SCORE.INTRA.VDW.0>
-3.9206

>  <SCORE.INTRA.norm>
0.132199

>  <SCORE.RESTR>
3.99152

>  <SCORE.RESTR.CAVITY>
3.99152

>  <SCORE.RESTR.norm>
0.114044

>  <SCORE.SYSTEM>
0

>  <SCORE.SYSTEM.CONST>
0

>  <SCORE.SYSTEM.DIHEDRAL>
0

>  <SCORE.SYSTEM.SOLV>
0

>  <SCORE.SYSTEM.norm>
0

>  <SCORE.heavy>
35

>  <SCORE.norm>
0.268671

>  <RMSD>
13.835

$$$$
2f4t_lig
 OpenBabel11021811433D
libRbt.so/2013.1/901 2013/11/27
 35 36  0  0  0  0  0  0  0  0999 V2000
   11.9875   -3.1014   28.6181 C   0  0  2  0  0  0  0  0  0  0  0  0
   11.0604   -2.5694   27.6158 O   0  0  0  0  0  0  0  0  0  0  0  0
   11.1882   -0.1404   24.0464 C   0  0  2  0  0  0  0  0  0  0  0  0
   11.7249    0.5674   22.8743 N   0  0  0  0  0  0  0  0  0  0  0  0
   12.6330   -4.3649   27.9727 C   0  0  2  0  0  0  0  0  0  0  0  0
   13.2654   -4.0297   26.7184 N   0  0  0  0  0  0  0  0  0  0  0  0
   12.0222    0.2569   25.3193 C   0  0  0  0  0  0  0  0  0  0  0  0
   13.4407    0.1911   22.6914 C   0  0  0  0  0  0  0  0  0  0  0  0
   13.3984    1.0905   21.4759 C   0  0  1  0  0  0  0  0  0  0  0  0
   14.8436    1.4146   21.0910 C   0  0  0  0  0  0  0  0  0  0  0  0
   15.6426    0.2571   20.4690 C   0  0  0  0  0  0  0  0  0  0  0  0
   15.2424    0.1204   19.0654 N   0  0  0  0  0  0  0  0  0  0  0  0
   12.8485    0.4183   20.3732 O   0  0  0  0  0  0  0  0  0  0  0  0
    9.4317   -2.1318   21.8296 C   0  0  0  0  0  0  0  0  0  0  0  0
    9.7602   -3.1463   20.7450 C   0  0  0  0  0  0  0  0  0  0  0  0
   11.5492   -5.4760   27.7649 C   0  0  1  0  0  0  0  0  0  0  0  0
    9.1872   -4.4869   20.9964 N   0  0  0  0  0  0  0  0  0  0  0  0
   12.1160   -6.6343   27.1839 O   0  0  0  0  0  0  0  0  0  0  0  0
   11.5178   -0.4586   26.5802 C   0  0  2  0  0  0  0  0  0  0  0  0
   12.3319   -0.1055   27.7390 N   0  0  0  0  0  0  0  0  0  0  0  0
    8.4540   -5.2593   23.2541 C   0  0  0  0  0  0  0  0  0  0  0  0
    8.8882   -5.7940   24.6568 N   0  0  0  0  0  0  0  0  0  0  0  0
    9.6009   -5.2616   22.2006 C   0  0  0  0  0  0  0  0  0  0  0  0
   14.1375   -0.4102   23.2317 O   0  0  0  0  0  0  0  0  0  0  0  0
   10.9331   -5.8000   29.1298 C   0  0  2  0  0  0  0  0  0  0  0  0
    9.9474   -6.8133   29.0147 O   0  0  0  0  0  0  0  0  0  0  0  0
   11.5565   -1.9541   26.3881 C   0  0  2  0  0  0  0  0  0  0  0  0
   10.3165   -4.5140   29.7521 C   0  0  2  0  0  0  0  0  0  0  0  0
   11.3064   -3.4723   29.8799 O   0  0  0  0  0  0  0  0  0  0  0  0
   10.6901   -2.3662   25.1214 C   0  0  2  0  0  0  0  0  0  0  0  0
   10.7458   -3.8165   24.9706 O   0  0  0  0  0  0  0  0  0  0  0  0
    9.7322   -4.7709   31.0898 C   0  0  0  0  0  0  0  0  0  0  0  0
   10.7252   -4.9814   31.9817 N   0  0  0  0  0  0  0  0  0  0  0  0
   11.2824   -1.6617   23.8518 C   0  0  1  0  0  0  0  0  0  0  0  0
   10.5609   -2.0256   22.7183 O   0  0  0  0  0  0  0  0  0  0  0  0
  1  2  1  6  0  0  0
  1  5  1  0  0  0  0
  1 29  1  0  0  0  0
  3  4  1  6  0  0  0
  3  7  1  0  0  0  0
  3 34  1  0  0  0  0
  5  6  1  6  0  0  0
  5 16  1  0  0  0  0
  7 19  1  0  0  0  0
  8  4  1  0  0  0  0
  8 24  2  0  0  0  0
  9  8  1  1  0  0  0
  9 10  1  0  0  0  0
  9 13  1  0  0  0  0
 10 11  1  0  0  0  0
 11 12  1  0  0  0  0
 14 15  1  0  0  0  0
 14 35  1  0  0  0  0
 15 17  1  0  0  0  0
 16 18  1  1  0  0  0
 16 25  1  0  0  0  0
 19 20  1  1  0  0  0
 19 27  1  0  0  0  0
 21 22  1  0  0  0  0
 21 23  1  0  0  0  0
 23 17  1  0  0  0  0
 25 26  1  6  0  0  0
 25 28  1  0  0  0  0
 27  2  1  1  0  0  0
 27 30  1  0  0  0  0
 28 29  1  0  0  0  0
 28 32  1  1  0  0  0
 30 31  1  6  0  0  0
 30 34  1  0  0  0  0
 32 33  2  0  0  0  0
 34 35  1  6  0  0  0
M  END
>  <CHROM.1>
-69.62719822,56.74024625,165.25414519,71.85882715,78.30192398,99.12362470
-168.30204379,-62.23496313,-168.37452252,106.26835705,-99.43613041,71.29186676
-54.79348958,11.54208375,-2.63133244,25.08203264,-1.97033195,-0.90765015
-1.34548016

>  <Name>
2f4t_lig

>  <RI>
0

>  <Rbt.Current_Directory>
/home/itssahil/PROJECTS/Mol_Feturizer/New_Systems/rnas/2f4t

>  <Rbt.Executable>
rbdock ($Id: //depot/dev/client3/rdock/2013.1/src/exe/rbdock.cxx#4 $)

>  <Rbt.Library>
libRbt.so (2013.1, Build901 2013/11/27)

>  <Rbt.Parameter_File>
/export/apps/rDock/src/rDock_2013.1_src/data/scripts/dock_solv.prm

>  <Rbt.Receptor>
prm/blind_docking_60.prm

>  <SCORE>
-1.44526

>  <SCORE.INTER>
-4.50305

>  <SCORE.INTER.CONST>
1

>  <SCORE.INTER.POLAR>
-0.854285

>  <SCORE.INTER.ROT>
13

>  <SCORE.INTER.SOLV>
18.0812

>  <SCORE.INTER.VDW>
-18.4481

>  <SCORE.INTER.norm>
-0.128659

>  <SCORE.INTRA>
1.10386

>  <SCORE.INTRA.DIHEDRAL>
-7.26277

>  <SCORE.INTRA.DIHEDRAL.0>
23.8882

>  <SCORE.INTRA.POLAR>
0

>  <SCORE.INTRA.POLAR.0>
0

>  <SCORE.INTRA.REPUL>
0

>  <SCORE.INTRA.REPUL.0>
0

>  <SCORE.INTRA.SOLV>
8.29652

>  <SCORE.INTRA.SOLV.lig_0>
-97.6888

>  <SCORE.INTRA.VDW>
0.586987

>  <SCORE.INTRA.VDW.0>
-3.9206

>  <SCORE.INTRA.norm>
0.0315389

>  <SCORE.RESTR>
1.95393

>  <SCORE.RESTR.CAVITY>
1.95393

>  <SCORE.RESTR.norm>
0.0558267

>  <SCORE.SYSTEM>
0

>  <SCORE.SYSTEM.CONST>
0

>  <SCORE.SYSTEM.DIHEDRAL>
0

>  <SCORE.SYSTEM.SOLV>
0

>  <SCORE.SYSTEM.norm>
0

>  <SCORE.heavy>
35

>  <SCORE.norm>
-0.041293

>  <RMSD>
13.836

$$$$
2f4t_lig
 OpenBabel11021811433D
libRbt.so/2013.1/901 2013/11/27
 35 36  0  0  0  0  0  0  0  0999 V2000
   10.7217   -3.5855   28.6218 C   0  0  2  0  0  0  0  0  0  0  0  0
   12.1275   -3.9198   28.3784 O   0  0  0  0  0  0  0  0  0  0  0  0
   13.1725   -1.8033   24.7610 C   0  0  2  0  0  0  0  0  0  0  0  0
   13.8918   -1.4394   23.5310 N   0  0  0  0  0  0  0  0  0  0  0  0
   10.7202   -2.1281   29.1746 C   0  0  2  0  0  0  0  0  0  0  0  0
   11.3774   -1.2325   28.2519 N   0  0  0  0  0  0  0  0  0  0  0  0
   14.1996   -1.9258   25.9458 C   0  0  0  0  0  0  0  0  0  0  0  0
   13.8783    0.3158   23.3361 C   0  0  0  0  0  0  0  0  0  0  0  0
   14.6751    0.0742   22.0731 C   0  0  1  0  0  0  0  0  0  0  0  0
   14.9658    1.4380   21.4428 C   0  0  0  0  0  0  0  0  0  0  0  0
   15.9590    1.4307   20.2686 C   0  0  0  0  0  0  0  0  0  0  0  0
   15.4953    0.4562   19.2764 N   0  0  0  0  0  0  0  0  0  0  0  0
   15.9271   -0.4871   22.3694 O   0  0  0  0  0  0  0  0  0  0  0  0
   11.0270   -3.2505   22.2062 C   0  0  0  0  0  0  0  0  0  0  0  0
    9.6792   -2.5517   22.1128 C   0  0  0  0  0  0  0  0  0  0  0  0
   11.4159   -2.0840   30.5769 C   0  0  1  0  0  0  0  0  0  0  0  0
    8.8441   -2.7139   23.3231 N   0  0  0  0  0  0  0  0  0  0  0  0
   11.4209   -0.7695   31.0989 O   0  0  0  0  0  0  0  0  0  0  0  0
   13.5116   -2.3155   27.2616 C   0  0  2  0  0  0  0  0  0  0  0  0
   14.4891   -2.4625   28.3354 N   0  0  0  0  0  0  0  0  0  0  0  0
    8.7394   -5.2078   23.2905 C   0  0  0  0  0  0  0  0  0  0  0  0
    7.2872   -5.3200   22.7245 N   0  0  0  0  0  0  0  0  0  0  0  0
    8.9754   -3.9389   24.1619 C   0  0  0  0  0  0  0  0  0  0  0  0
   13.4717    1.1286   23.8956 O   0  0  0  0  0  0  0  0  0  0  0  0
   10.6620   -3.0357   31.5115 C   0  0  2  0  0  0  0  0  0  0  0  0
   11.2358   -3.0342   32.8086 O   0  0  0  0  0  0  0  0  0  0  0  0
   12.7598   -3.6128   27.0986 C   0  0  2  0  0  0  0  0  0  0  0  0
   10.6671   -4.4747   30.9197 C   0  0  2  0  0  0  0  0  0  0  0  0
   10.0838   -4.4962   29.6003 O   0  0  0  0  0  0  0  0  0  0  0  0
   11.6979   -3.4866   25.9232 C   0  0  2  0  0  0  0  0  0  0  0  0
   10.9874   -4.7549   25.7989 O   0  0  0  0  0  0  0  0  0  0  0  0
    9.9229   -5.4287   31.7759 C   0  0  0  0  0  0  0  0  0  0  0  0
   10.2521   -6.6932   31.4321 N   0  0  0  0  0  0  0  0  0  0  0  0
   12.4545   -3.1512   24.5911 C   0  0  1  0  0  0  0  0  0  0  0  0
   11.5528   -3.0617   23.5344 O   0  0  0  0  0  0  0  0  0  0  0  0
  1  2  1  1  0  0  0
  1  5  1  0  0  0  0
  1 29  1  0  0  0  0
  3  4  1  6  0  0  0
  3  7  1  0  0  0  0
  3 34  1  0  0  0  0
  5  6  1  6  0  0  0
  5 16  1  0  0  0  0
  7 19  1  0  0  0  0
  8  4  1  0  0  0  0
  8 24  2  0  0  0  0
  9  8  1  1  0  0  0
  9 10  1  0  0  0  0
  9 13  1  0  0  0  0
 10 11  1  0  0  0  0
 11 12  1  0  0  0  0
 14 15  1  0  0  0  0
 14 35  1  0  0  0  0
 15 17  1  0  0  0  0
 16 18  1  1  0  0  0
 16 25  1  0  0  0  0
 19 20  1  1  0  0  0
 19 27  1  0  0  0  0
 21 22  1  0  0  0  0
 21 23  1  0  0  0  0
 23 17  1  0  0  0  0
 25 26  1  1  0  0  0
 25 28  1  0  0  0  0
 27  2  1  1  0  0  0
 27 30  1  0  0  0  0
 28 29  1  0  0  0  0
 28 32  1  1  0  0  0
 30 31  1  6  0  0  0
 30 34  1  0  0  0  0
 32 33  2  0  0  0  0
 34 35  1  6  0  0  0
M  END
>  <CHROM.1>
-88.23546569,-93.55073558,-179.80202957,170.54559715,53.36978948,-40.39244358
-177.88764162,-29.53176382,-64.98297939,-56.09367477,97.66648323,-163.52230968
103.29209524,11.94907530,-2.49934787,26.04371944,2.00530815,0.69225216,1.66367794

>  <Name>
2f4t_lig

>  <RI>
0

>  <Rbt.Current_Directory>
/home/itssahil/PROJECTS/Mol_Feturizer/New_Systems/rnas/2f4t

>  <Rbt.Executable>
rbdock ($Id: //depot/dev/client3/rdock/2013.1/src/exe/rbdock.cxx#4 $)

>  <Rbt.Library>
libRbt.so (2013.1, Build901 2013/11/27)

>  <Rbt.Parameter_File>
/export/apps/rDock/src/rDock_2013.1_src/data/scripts/dock_solv.prm

>  <Rbt.Receptor>
prm/blind_docking_60.prm

>  <SCORE>
12.8223

>  <SCORE.INTER>
1.43111

>  <SCORE.INTER.CONST>
1

>  <SCORE.INTER.POLAR>
-0.979796

>  <SCORE.INTER.ROT>
13

>  <SCORE.INTER.SOLV>
20.3131

>  <SCORE.INTER.VDW>
-14.8176

>  <SCORE.INTER.norm>
0.0408888

>  <SCORE.INTRA>
8.15786

>  <SCORE.INTRA.DIHEDRAL>
-3.91836

>  <SCORE.INTRA.DIHEDRAL.0>
23.8882

>  <SCORE.INTRA.POLAR>
0

>  <SCORE.INTRA.POLAR.0>
0

>  <SCORE.INTRA.REPUL>
0

>  <SCORE.INTRA.REPUL.0>
0

>  <SCORE.INTRA.SOLV>
9.0863

>  <SCORE.INTRA.SOLV.lig_0>
-97.6888

>  <SCORE.INTRA.VDW>
5.57389

>  <SCORE.INTRA.VDW.0>
-3.9206

>  <SCORE.INTRA.norm>
0.233082

>  <SCORE.RESTR>
3.2333

>  <SCORE.RESTR.CAVITY>
3.2333

>  <SCORE.RESTR.norm>
0.0923801

>  <SCORE.SYSTEM>
0

>  <SCORE.SYSTEM.CONST>
0

>  <SCORE.SYSTEM.DIHEDRAL>
0

>  <SCORE.SYSTEM.SOLV>
0

>  <SCORE.SYSTEM.norm>
0

>  <SCORE.heavy>
35

>  <SCORE.norm>
0.366351

>  <RMSD>
13.840

$$$$
2f4t_lig
 OpenBabel11021811433D
libRbt.so/2013.1/901 2013/11/27
 35 36  0  0  0  0  0  0  0  0999 V2000
   11.1255   -2.0910   28.8076 C   0  0  2  0  0  0  0  0  0  0  0  0
   12.5880   -2.0300   28.7410 O   0  0  0  0  0  0  0  0  0  0  0  0
   13.3344   -0.6724   24.7090 C   0  0  2  0  0  0  0  0  0  0  0  0
   14.0605   -0.3434   23.4732 N   0  0  0  0  0  0  0  0  0  0  0  0
   10.7681   -2.0913   30.3247 C   0  0  2  0  0  0  0  0  0  0  0  0
   11.3303   -0.9343   30.9810 N   0  0  0  0  0  0  0  0  0  0  0  0
   14.0577    0.0030   25.9314 C   0  0  0  0  0  0  0  0  0  0  0  0
   13.8021    1.3567   23.0710 C   0  0  0  0  0  0  0  0  0  0  0  0
   14.6949    1.0991   21.8774 C   0  0  1  0  0  0  0  0  0  0  0  0
   13.7908    0.7736   20.6864 C   0  0  0  0  0  0  0  0  0  0  0  0
   12.7471   -0.3305   20.9250 C   0  0  0  0  0  0  0  0  0  0  0  0
   11.4961    0.3006   21.3560 N   0  0  0  0  0  0  0  0  0  0  0  0
   15.4004    2.2584   21.5190 O   0  0  0  0  0  0  0  0  0  0  0  0
   11.9032   -3.7835   23.1339 C   0  0  0  0  0  0  0  0  0  0  0  0
   10.4285   -3.5187   23.3958 C   0  0  0  0  0  0  0  0  0  0  0  0
   11.2789   -3.4100   30.9974 C   0  0  1  0  0  0  0  0  0  0  0  0
    9.7280   -4.6550   24.0335 N   0  0  0  0  0  0  0  0  0  0  0  0
   10.9600   -3.4324   32.3752 O   0  0  0  0  0  0  0  0  0  0  0  0
   13.3531   -0.3114   27.2584 C   0  0  2  0  0  0  0  0  0  0  0  0
   14.0651    0.2919   28.3806 N   0  0  0  0  0  0  0  0  0  0  0  0
    9.6816   -6.1449   22.0311 C   0  0  0  0  0  0  0  0  0  0  0  0
   10.9119   -6.9967   22.4812 N   0  0  0  0  0  0  0  0  0  0  0  0
    8.8631   -5.5524   23.2161 C   0  0  0  0  0  0  0  0  0  0  0  0
   13.2506    2.1560   23.5140 O   0  0  0  0  0  0  0  0  0  0  0  0
   10.6325   -4.5947   30.2719 C   0  0  2  0  0  0  0  0  0  0  0  0
   11.0450   -5.8261   30.8424 O   0  0  0  0  0  0  0  0  0  0  0  0
   13.2714   -1.8024   27.4709 C   0  0  2  0  0  0  0  0  0  0  0  0
   10.9941   -4.5515   28.7592 C   0  0  2  0  0  0  0  0  0  0  0  0
   10.5788   -3.3061   28.1609 O   0  0  0  0  0  0  0  0  0  0  0  0
   12.5139   -2.4884   26.2541 C   0  0  2  0  0  0  0  0  0  0  0  0
   12.4488   -3.9258   26.4965 O   0  0  0  0  0  0  0  0  0  0  0  0
   10.3665   -5.6640   28.0074 C   0  0  0  0  0  0  0  0  0  0  0  0
   11.3296   -6.4292   27.4483 N   0  0  0  0  0  0  0  0  0  0  0  0
   13.3054   -2.1923   24.9331 C   0  0  1  0  0  0  0  0  0  0  0  0
   12.6813   -2.8048   23.8500 O   0  0  0  0  0  0  0  0  0  0  0  0
  1  2  1  1  0  0  0
  1  5  1  0  0  0  0
  1 29  1  0  0  0  0
  3  4  1  6  0  0  0
  3  7  1  0  0  0  0
  3 34  1  0  0  0  0
  5  6  1  1  0  0  0
  5 16  1  0  0  0  0
  7 19  1  0  0  0  0
  8  4  1  0  0  0  0
  8 24  2  0  0  0  0
  9  8  1  1  0  0  0
  9 10  1  0  0  0  0
  9 13  1  0  0  0  0
 10 11  1  0  0  0  0
 11 12  1  0  0  0  0
 14 15  1  0  0  0  0
 14 35  1  0  0  0  0
 15 17  1  0  0  0  0
 16 18  1  1  0  0  0
 16 25  1  0  0  0  0
 19 20  1  1  0  0  0
 19 27  1  0  0  0  0
 21 22  1  0  0  0  0
 21 23  1  0  0  0  0
 23 17  1  0  0  0  0
 25 26  1  1  0  0  0
 25 28  1  0  0  0  0
 27  2  1  1  0  0  0
 27 30  1  0  0  0  0
 28 29  1  0  0  0  0
 28 32  1  6  0  0  0
 30 31  1  1  0  0  0
 30 34  1  0  0  0  0
 32 33  2  0  0  0  0
 34 35  1  6  0  0  0
M  END
>  <CHROM.1>
-170.30979117,-71.68636758,94.83848428,-51.82146043,93.16239221,-120.08656420
78.17414346,-101.87500976,60.49073429,55.94670248,86.25880189,-119.27942833
-149.36697231,12.08052065,-2.33907292,25.88397060,-2.15813956,-1.07102093
-1.59889258

>  <Name>
2f4t_lig

>  <RI>
0

>  <Rbt.Current_Directory>
/home/itssahil/PROJECTS/Mol_Feturizer/New_Systems/rnas/2f4t

>  <Rbt.Executable>
rbdock ($Id: //depot/dev/client3/rdock/2013.1/src/exe/rbdock.cxx#4 $)

>  <Rbt.Library>
libRbt.so (2013.1, Build901 2013/11/27)

>  <Rbt.Parameter_File>
/export/apps/rDock/src/rDock_2013.1_src/data/scripts/dock_solv.prm

>  <Rbt.Receptor>
prm/blind_docking_60.prm

>  <SCORE>
6.53814

>  <SCORE.INTER>
-0.0546617

>  <SCORE.INTER.CONST>
1

>  <SCORE.INTER.POLAR>
0

>  <SCORE.INTER.ROT>
13

>  <SCORE.INTER.SOLV>
21.5236

>  <SCORE.INTER.VDW>
-19.4777

>  <SCORE.INTER.norm>
-0.00156176

>  <SCORE.INTRA>
3.40309

>  <SCORE.INTRA.DIHEDRAL>
-2.64115

>  <SCORE.INTRA.DIHEDRAL.0>
23.8882

>  <SCORE.INTRA.POLAR>
0

>  <SCORE.INTRA.POLAR.0>
0

>  <SCORE.INTRA.REPUL>
0.0278923

>  <SCORE.INTRA.REPUL.0>
0

>  <SCORE.INTRA.SOLV>
7.60719

>  <SCORE.INTRA.SOLV.lig_0>
-97.6888

>  <SCORE.INTRA.VDW>
0.78061

>  <SCORE.INTRA.VDW.0>
-3.9206

>  <SCORE.INTRA.norm>
0.0972311

>  <SCORE.RESTR>
3.18971

>  <SCORE.RESTR.CAVITY>
3.18971

>  <SCORE.RESTR.norm>
0.0911347

>  <SCORE.SYSTEM>
0

>  <SCORE.SYSTEM.CONST>
0

>  <SCORE.SYSTEM.DIHEDRAL>
0

>  <SCORE.SYSTEM.SOLV>
0

>  <SCORE.SYSTEM.norm>
0

>  <SCORE.heavy>
35

>  <SCORE.norm>
0.186804

>  <RMSD>
13.898

$$$$
2f4t_lig
 OpenBabel11021811433D
libRbt.so/2013.1/901 2013/11/27
 35 36  0  0  0  0  0  0  0  0999 V2000
   11.8603   -3.1288   28.9917 C   0  0  2  0  0  0  0  0  0  0  0  0
   10.8807   -2.5372   28.0765 O   0  0  0  0  0  0  0  0  0  0  0  0
   10.6403   -0.7525   24.1505 C   0  0  2  0  0  0  0  0  0  0  0  0
   11.0629   -0.1388   22.8826 N   0  0  0  0  0  0  0  0  0  0  0  0
   12.4816   -4.3368   28.2273 C   0  0  2  0  0  0  0  0  0  0  0  0
   13.0483   -3.9076   26.9703 N   0  0  0  0  0  0  0  0  0  0  0  0
   11.2979    0.0261   25.3484 C   0  0  0  0  0  0  0  0  0  0  0  0
   12.7242   -0.6160   22.5201 C   0  0  0  0  0  0  0  0  0  0  0  0
   12.5765    0.2175   21.2664 C   0  0  1  0  0  0  0  0  0  0  0  0
   13.7917    1.1437   21.1821 C   0  0  0  0  0  0  0  0  0  0  0  0
   15.1353    0.4544   20.8908 C   0  0  0  0  0  0  0  0  0  0  0  0
   15.3469    0.4477   19.4402 N   0  0  0  0  0  0  0  0  0  0  0  0
   12.6275   -0.5891   20.1188 O   0  0  0  0  0  0  0  0  0  0  0  0
   10.2294   -4.0391   22.2918 C   0  0  0  0  0  0  0  0  0  0  0  0
    9.1637   -3.6188   21.2913 C   0  0  0  0  0  0  0  0  0  0  0  0
   11.3965   -5.4418   27.9949 C   0  0  1  0  0  0  0  0  0  0  0  0
    9.6911   -3.3852   19.9290 N   0  0  0  0  0  0  0  0  0  0  0  0
   11.9416   -6.5503   27.3060 O   0  0  0  0  0  0  0  0  0  0  0  0
   10.9039   -0.5733   26.7056 C   0  0  2  0  0  0  0  0  0  0  0  0
   11.5579    0.1398   27.7982 N   0  0  0  0  0  0  0  0  0  0  0  0
    8.7038   -5.0136   18.3150 C   0  0  0  0  0  0  0  0  0  0  0  0
    7.7795   -3.8419   17.8518 N   0  0  0  0  0  0  0  0  0  0  0  0
    9.9988   -4.5408   19.0394 C   0  0  0  0  0  0  0  0  0  0  0  0
   13.4527   -1.2239   23.0088 O   0  0  0  0  0  0  0  0  0  0  0  0
   10.8515   -5.8676   29.3621 C   0  0  2  0  0  0  0  0  0  0  0  0
    9.8683   -6.8806   29.2240 O   0  0  0  0  0  0  0  0  0  0  0  0
   11.2875   -2.0306   26.7689 C   0  0  2  0  0  0  0  0  0  0  0  0
   10.2578   -4.6353   30.1036 C   0  0  2  0  0  0  0  0  0  0  0  0
   11.2456   -3.5948   30.2560 O   0  0  0  0  0  0  0  0  0  0  0  0
   10.6014   -2.8299   25.5792 C   0  0  2  0  0  0  0  0  0  0  0  0
   10.9892   -4.2332   25.6759 O   0  0  0  0  0  0  0  0  0  0  0  0
    9.7427   -4.9919   31.4469 C   0  0  0  0  0  0  0  0  0  0  0  0
   10.7617   -5.4324   32.2172 N   0  0  0  0  0  0  0  0  0  0  0  0
   11.0838   -2.2222   24.2164 C   0  0  1  0  0  0  0  0  0  0  0  0
   10.5211   -2.9203   23.1516 O   0  0  0  0  0  0  0  0  0  0  0  0
  1  2  1  6  0  0  0
  1  5  1  0  0  0  0
  1 29  1  0  0  0  0
  3  4  1  6  0  0  0
  3  7  1  0  0  0  0
  3 34  1  0  0  0  0
  5  6  1  6  0  0  0
  5 16  1  0  0  0  0
  7 19  1  0  0  0  0
  8  4  1  0  0  0  0
  8 24  2  0  0  0  0
  9  8  1  1  0  0  0
  9 10  1  0  0  0  0
  9 13  1  0  0  0  0
 10 11  1  0  0  0  0
 11 12  1  0  0  0  0
 14 15  1  0  0  0  0
 14 35  1  0  0  0  0
 15 17  1  0  0  0  0
 16 18  1  1  0  0  0
 16 25  1  0  0  0  0
 19 20  1  1  0  0  0
 19 27  1  0  0  0  0
 21 22  1  0  0  0  0
 21 23  1  0  0  0  0
 23 17  1  0  0  0  0
 25 26  1  6  0  0  0
 25 28  1  0  0  0  0
 27  2  1  1  0  0  0
 27 30  1  0  0  0  0
 28 29  1  0  0  0  0
 28 32  1  1  0  0  0
 30 31  1  6  0  0  0
 30 34  1  0  0  0  0
 32 33  2  0  0  0  0
 34 35  1  6  0  0  0
M  END
>  <CHROM.1>
-59.30731236,76.11045122,130.37001849,69.15699815,91.99073311,105.14861044
173.03711883,77.89220194,39.53092509,83.85966152,-121.81875003,62.86462590
178.90796866,11.30270292,-2.81170441,24.83316939,-1.68935503,-0.95065131
-1.35282541

>  <Name>
2f4t_lig

>  <RI>
0

>  <Rbt.Current_Directory>
/home/itssahil/PROJECTS/Mol_Feturizer/New_Systems/rnas/2f4t

>  <Rbt.Executable>
rbdock ($Id: //depot/dev/client3/rdock/2013.1/src/exe/rbdock.cxx#4 $)

>  <Rbt.Library>
libRbt.so (2013.1, Build901 2013/11/27)

>  <Rbt.Parameter_File>
/export/apps/rDock/src/rDock_2013.1_src/data/scripts/dock_solv.prm

>  <Rbt.Receptor>
prm/blind_docking_60.prm

>  <SCORE>
11.0323

>  <SCORE.INTER>
0.296815

>  <SCORE.INTER.CONST>
1

>  <SCORE.INTER.POLAR>
-0.982159

>  <SCORE.INTER.ROT>
13

>  <SCORE.INTER.SOLV>
18.2059

>  <SCORE.INTER.VDW>
-14.8636

>  <SCORE.INTER.norm>
0.00848042

>  <SCORE.INTRA>
6.39822

>  <SCORE.INTRA.DIHEDRAL>
-1.9009

>  <SCORE.INTRA.DIHEDRAL.0>
23.8882

>  <SCORE.INTRA.POLAR>
0

>  <SCORE.INTRA.POLAR.0>
0

>  <SCORE.INTRA.REPUL>
0

>  <SCORE.INTRA.REPUL.0>
0

>  <SCORE.INTRA.SOLV>
7.72793

>  <SCORE.INTRA.SOLV.lig_0>
-97.6888

>  <SCORE.INTRA.VDW>
3.4847

>  <SCORE.INTRA.VDW.0>
-3.9206

>  <SCORE.INTRA.norm>
0.182806

>  <SCORE.RESTR>
4.33723

>  <SCORE.RESTR.CAVITY>
4.33723

>  <SCORE.RESTR.norm>
0.123921

>  <SCORE.SYSTEM>
0

>  <SCORE.SYSTEM.CONST>
0

>  <SCORE.SYSTEM.DIHEDRAL>
0

>  <SCORE.SYSTEM.SOLV>
0

>  <SCORE.SYSTEM.norm>
0

>  <SCORE.heavy>
35

>  <SCORE.norm>
0.315208

>  <RMSD>
13.906

$$$$
2f4t_lig
 OpenBabel11021811433D
libRbt.so/2013.1/901 2013/11/27
 35 36  0  0  0  0  0  0  0  0999 V2000
   12.0188   -3.0956   28.7720 C   0  0  2  0  0  0  0  0  0  0  0  0
   11.0507   -2.5052   27.8439 O   0  0  0  0  0  0  0  0  0  0  0  0
   11.3510    0.3154   24.5863 C   0  0  2  0  0  0  0  0  0  0  0  0
   11.8707    0.9971   23.3914 N   0  0  0  0  0  0  0  0  0  0  0  0
   12.5854   -4.3562   28.0512 C   0  0  2  0  0  0  0  0  0  0  0  0
   13.1522   -3.9999   26.7717 N   0  0  0  0  0  0  0  0  0  0  0  0
   12.4971    0.1991   25.6571 C   0  0  0  0  0  0  0  0  0  0  0  0
   13.1046   -0.0089   22.6270 C   0  0  0  0  0  0  0  0  0  0  0  0
   13.2142    1.0947   21.5983 C   0  0  1  0  0  0  0  0  0  0  0  0
   14.2872    0.6799   20.5890 C   0  0  0  0  0  0  0  0  0  0  0  0
   15.5437    1.5658   20.5514 C   0  0  0  0  0  0  0  0  0  0  0  0
   16.5297    0.9331   19.6701 N   0  0  0  0  0  0  0  0  0  0  0  0
   12.0236    1.2173   20.8652 O   0  0  0  0  0  0  0  0  0  0  0  0
    8.8283   -1.4609   22.3716 C   0  0  0  0  0  0  0  0  0  0  0  0
    9.4433   -2.4426   21.3859 C   0  0  0  0  0  0  0  0  0  0  0  0
   11.4573   -5.4281   27.8760 C   0  0  1  0  0  0  0  0  0  0  0  0
    9.7479   -3.7633   21.9790 N   0  0  0  0  0  0  0  0  0  0  0  0
   11.9523   -6.5834   27.2274 O   0  0  0  0  0  0  0  0  0  0  0  0
   12.0211   -0.5153   26.9297 C   0  0  2  0  0  0  0  0  0  0  0  0
   13.1117   -0.6470   27.8907 N   0  0  0  0  0  0  0  0  0  0  0  0
    9.2580   -5.8149   23.3141 C   0  0  0  0  0  0  0  0  0  0  0  0
   10.1992   -6.6855   22.4207 N   0  0  0  0  0  0  0  0  0  0  0  0
    8.6555   -4.5838   22.5747 C   0  0  0  0  0  0  0  0  0  0  0  0
   13.5352   -0.9610   22.8443 O   0  0  0  0  0  0  0  0  0  0  0  0
   10.9136   -5.7772   29.2653 C   0  0  2  0  0  0  0  0  0  0  0  0
    9.8918   -6.7572   29.1794 O   0  0  0  0  0  0  0  0  0  0  0  0
   11.4899   -1.8870   26.5961 C   0  0  2  0  0  0  0  0  0  0  0  0
   10.3751   -4.4943   29.9619 C   0  0  2  0  0  0  0  0  0  0  0  0
   11.4027   -3.4864   30.0609 O   0  0  0  0  0  0  0  0  0  0  0  0
   10.3100   -1.7750   25.5377 C   0  0  2  0  0  0  0  0  0  0  0  0
    9.8183   -3.1171   25.2442 O   0  0  0  0  0  0  0  0  0  0  0  0
    9.8637   -4.7764   31.3241 C   0  0  0  0  0  0  0  0  0  0  0  0
   10.8277   -5.3845   32.0498 N   0  0  0  0  0  0  0  0  0  0  0  0
   10.8610   -1.0980   24.2349 C   0  0  1  0  0  0  0  0  0  0  0  0
    9.8562   -1.0107   23.2754 O   0  0  0  0  0  0  0  0  0  0  0  0
  1  2  1  6  0  0  0
  1  5  1  0  0  0  0
  1 29  1  0  0  0  0
  3  4  1  6  0  0  0
  3  7  1  0  0  0  0
  3 34  1  0  0  0  0
  5  6  1  6  0  0  0
  5 16  1  0  0  0  0
  7 19  1  0  0  0  0
  8  4  1  0  0  0  0
  8 24  2  0  0  0  0
  9  8  1  1  0  0  0
  9 10  1  0  0  0  0
  9 13  1  0  0  0  0
 10 11  1  0  0  0  0
 11 12  1  0  0  0  0
 14 15  1  0  0  0  0
 14 35  1  0  0  0  0
 15 17  1  0  0  0  0
 16 18  1  1  0  0  0
 16 25  1  0  0  0  0
 19 20  1  1  0  0  0
 19 27  1  0  0  0  0
 21 22  1  0  0  0  0
 21 23  1  0  0  0  0
 23 17  1  0  0  0  0
 25 26  1  6  0  0  0
 25 28  1  0  0  0  0
 27  2  1  1  0  0  0
 27 30  1  0  0  0  0
 28 29  1  0  0  0  0
 28 32  1  1  0  0  0
 30 31  1  6  0  0  0
 30 34  1  0  0  0  0
 32 33  2  0  0  0  0
 34 35  1  6  0  0  0
M  END
>  <CHROM.1>
-68.52945525,65.63559563,179.44382221,-115.16933403,172.66274649,73.46741603
-58.98292702,59.71304068,-54.44507319,-171.53382302,-78.63413424,54.96632601
-177.34249957,11.50211199,-2.45987441,25.25643059,-1.94013033,-0.90344340
-1.27341362

>  <Name>
2f4t_lig

>  <RI>
0

>  <Rbt.Current_Directory>
/home/itssahil/PROJECTS/Mol_Feturizer/New_Systems/rnas/2f4t

>  <Rbt.Executable>
rbdock ($Id: //depot/dev/client3/rdock/2013.1/src/exe/rbdock.cxx#4 $)

>  <Rbt.Library>
libRbt.so (2013.1, Build901 2013/11/27)

>  <Rbt.Parameter_File>
/export/apps/rDock/src/rDock_2013.1_src/data/scripts/dock_solv.prm

>  <Rbt.Receptor>
prm/blind_docking_60.prm

>  <SCORE>
-0.447983

>  <SCORE.INTER>
0.453967

>  <SCORE.INTER.CONST>
1

>  <SCORE.INTER.POLAR>
0

>  <SCORE.INTER.ROT>
13

>  <SCORE.INTER.SOLV>
25.2283

>  <SCORE.INTER.VDW>
-20.3735

>  <SCORE.INTER.norm>
0.0129705

>  <SCORE.INTRA>
-2.41849

>  <SCORE.INTRA.DIHEDRAL>
-13.1677

>  <SCORE.INTRA.DIHEDRAL.0>
23.8882

>  <SCORE.INTRA.POLAR>
0

>  <SCORE.INTRA.POLAR.0>
0

>  <SCORE.INTRA.REPUL>
0

>  <SCORE.INTRA.REPUL.0>
0

>  <SCORE.INTRA.SOLV>
6.48434

>  <SCORE.INTRA.SOLV.lig_0>
-97.6888

>  <SCORE.INTRA.VDW>
0.923187

>  <SCORE.INTRA.VDW.0>
-3.9206

>  <SCORE.INTRA.norm>
-0.0690997

>  <SCORE.RESTR>
1.51654

>  <SCORE.RESTR.CAVITY>
1.51654

>  <SCORE.RESTR.norm>
0.0433297

>  <SCORE.SYSTEM>
0

>  <SCORE.SYSTEM.CONST>
0

>  <SCORE.SYSTEM.DIHEDRAL>
0

>  <SCORE.SYSTEM.SOLV>
0

>  <SCORE.SYSTEM.norm>
0

>  <SCORE.heavy>
35

>  <SCORE.norm>
-0.0127995

>  <RMSD>
13.910

$$$$
2f4t_lig
 OpenBabel11021811433D
libRbt.so/2013.1/901 2013/11/27
 35 36  0  0  0  0  0  0  0  0999 V2000
   11.0985   -2.2315   28.8303 C   0  0  2  0  0  0  0  0  0  0  0  0
   12.5609   -2.1609   28.8898 O   0  0  0  0  0  0  0  0  0  0  0  0
   13.6445   -0.6857   24.9774 C   0  0  2  0  0  0  0  0  0  0  0  0
   14.4718   -0.3245   23.8165 N   0  0  0  0  0  0  0  0  0  0  0  0
   10.6094   -2.1819   30.3094 C   0  0  2  0  0  0  0  0  0  0  0  0
   11.1060   -0.9981   30.9710 N   0  0  0  0  0  0  0  0  0  0  0  0
   14.2680   -0.0539   26.2757 C   0  0  0  0  0  0  0  0  0  0  0  0
   13.6044    0.8412   22.8126 C   0  0  0  0  0  0  0  0  0  0  0  0
   14.8248    0.8182   21.9192 C   0  0  1  0  0  0  0  0  0  0  0  0
   14.7029   -0.4012   21.0026 C   0  0  0  0  0  0  0  0  0  0  0  0
   15.0331   -1.7565   21.6500 C   0  0  0  0  0  0  0  0  0  0  0  0
   14.9322   -2.7971   20.6224 N   0  0  0  0  0  0  0  0  0  0  0  0
   14.8468    1.9362   21.0709 O   0  0  0  0  0  0  0  0  0  0  0  0
   12.6990   -3.8220   23.0652 C   0  0  0  0  0  0  0  0  0  0  0  0
   11.7095   -3.2524   22.0602 C   0  0  0  0  0  0  0  0  0  0  0  0
   11.0660   -3.4721   31.0705 C   0  0  1  0  0  0  0  0  0  0  0  0
   10.5225   -2.6303   22.6868 N   0  0  0  0  0  0  0  0  0  0  0  0
   10.6277   -3.4491   32.4151 O   0  0  0  0  0  0  0  0  0  0  0  0
   13.4547   -0.4035   27.5298 C   0  0  2  0  0  0  0  0  0  0  0  0
   14.0748    0.1594   28.7251 N   0  0  0  0  0  0  0  0  0  0  0  0
    8.9270   -0.7140   22.5704 C   0  0  0  0  0  0  0  0  0  0  0  0
    8.2292   -1.3928   21.3480 N   0  0  0  0  0  0  0  0  0  0  0  0
   10.4107   -1.1460   22.7637 C   0  0  0  0  0  0  0  0  0  0  0  0
   12.6480    1.3119   22.8675 O   0  0  0  0  0  0  0  0  0  0  0  0
   10.4919   -4.6866   30.3337 C   0  0  2  0  0  0  0  0  0  0  0  0
   10.8591   -5.8939   30.9813 O   0  0  0  0  0  0  0  0  0  0  0  0
   13.3480   -1.8997   27.6880 C   0  0  2  0  0  0  0  0  0  0  0  0
   10.9845   -4.6932   28.8578 C   0  0  2  0  0  0  0  0  0  0  0  0
   10.6170   -3.4728   28.1817 O   0  0  0  0  0  0  0  0  0  0  0  0
   12.6898   -2.5419   26.3921 C   0  0  2  0  0  0  0  0  0  0  0  0
   12.5974   -3.9856   26.5832 O   0  0  0  0  0  0  0  0  0  0  0  0
   10.4309   -5.8364   28.0939 C   0  0  0  0  0  0  0  0  0  0  0  0
   11.4403   -6.5168   27.5075 N   0  0  0  0  0  0  0  0  0  0  0  0
   13.5892   -2.2115   25.1506 C   0  0  1  0  0  0  0  0  0  0  0  0
   13.0533   -2.7855   24.0012 O   0  0  0  0  0  0  0  0  0  0  0  0
  1  2  1  1  0  0  0
  1  5  1  0  0  0  0
  1 29  1  0  0  0  0
  3  4  1  6  0  0  0
  3  7  1  0  0  0  0
  3 34  1  0  0  0  0
  5  6  1  1  0  0  0
  5 16  1  0  0  0  0
  7 19  1  0  0  0  0
  8  4  1  0  0  0  0
  8 24  2  0  0  0  0
  9  8  1  1  0  0  0
  9 10  1  0  0  0  0
  9 13  1  0  0  0  0
 10 11  1  0  0  0  0
 11 12  1  0  0  0  0
 14 15  1  0  0  0  0
 14 35  1  0  0  0  0
 15 17  1  0  0  0  0
 16 18  1  1  0  0  0
 16 25  1  0  0  0  0
 19 20  1  1  0  0  0
 19 27  1  0  0  0  0
 21 22  1  0  0  0  0
 21 23  1  0  0  0  0
 23 17  1  0  0  0  0
 25 26  1  1  0  0  0
 25 28  1  0  0  0  0
 27  2  1  1  0  0  0
 27 30  1  0  0  0  0
 28 29  1  0  0  0  0
 28 32  1  6  0  0  0
 30 31  1  1  0  0  0
 30 34  1  0  0  0  0
 32 33  2  0  0  0  0
 34 35  1  6  0  0  0
M  END
>  <CHROM.1>
-166.95582072,-108.91509836,82.44706874,-77.05172282,-177.16746244,-54.19448442
167.16497711,103.67479347,-47.93011720,143.92206933,87.14304304,-126.95834452
167.17322458,12.28586597,-2.10415713,25.83181571,-1.97643249,-0.88680842
-1.51559818

>  <Name>
2f4t_lig

>  <RI>
0

>  <Rbt.Current_Directory>
/home/itssahil/PROJECTS/Mol_Feturizer/New_Systems/rnas/2f4t

>  <Rbt.Executable>
rbdock ($Id: //depot/dev/client3/rdock/2013.1/src/exe/rbdock.cxx#4 $)

>  <Rbt.Library>
libRbt.so (2013.1, Build901 2013/11/27)

>  <Rbt.Parameter_File>
/export/apps/rDock/src/rDock_2013.1_src/data/scripts/dock_solv.prm

>  <Rbt.Receptor>
prm/blind_docking_60.prm

>  <SCORE>
4.88449

>  <SCORE.INTER>
3.72135

>  <SCORE.INTER.CONST>
1

>  <SCORE.INTER.POLAR>
-0.64093

>  <SCORE.INTER.ROT>
13

>  <SCORE.INTER.SOLV>
14.0259

>  <SCORE.INTER.VDW>
-12.3246

>  <SCORE.INTER.norm>
0.106324

>  <SCORE.INTRA>
-3.40444

>  <SCORE.INTRA.DIHEDRAL>
-11.7548

>  <SCORE.INTRA.DIHEDRAL.0>
23.8882

>  <SCORE.INTRA.POLAR>
0

>  <SCORE.INTRA.POLAR.0>
0

>  <SCORE.INTRA.REPUL>
0

>  <SCORE.INTRA.REPUL.0>
0

>  <SCORE.INTRA.SOLV>
5.45721

>  <SCORE.INTRA.SOLV.lig_0>
-97.6888

>  <SCORE.INTRA.VDW>
-0.255644

>  <SCORE.INTRA.VDW.0>
-3.9206

>  <SCORE.INTRA.norm>
-0.0972697

>  <SCORE.RESTR>
4.56758

>  <SCORE.RESTR.CAVITY>
4.56758

>  <SCORE.RESTR.norm>
0.130502

>  <SCORE.SYSTEM>
0

>  <SCORE.SYSTEM.CONST>
0

>  <SCORE.SYSTEM.DIHEDRAL>
0

>  <SCORE.SYSTEM.SOLV>
0

>  <SCORE.SYSTEM.norm>
0

>  <SCORE.heavy>
35

>  <SCORE.norm>
0.139557

>  <RMSD>
13.923

$$$$
2f4t_lig
 OpenBabel11021811433D
libRbt.so/2013.1/901 2013/11/27
 35 36  0  0  0  0  0  0  0  0999 V2000
   10.7364   -2.7216   28.7164 C   0  0  2  0  0  0  0  0  0  0  0  0
   12.0221   -3.0521   28.0959 O   0  0  0  0  0  0  0  0  0  0  0  0
   12.1131   -0.4217   24.6710 C   0  0  2  0  0  0  0  0  0  0  0  0
   12.5626    0.1980   23.4154 N   0  0  0  0  0  0  0  0  0  0  0  0
   11.0674   -1.7520   29.8911 C   0  0  2  0  0  0  0  0  0  0  0  0
   11.7927   -0.5991   29.4114 N   0  0  0  0  0  0  0  0  0  0  0  0
   13.3100   -0.4553   25.6908 C   0  0  0  0  0  0  0  0  0  0  0  0
   13.4799   -0.9790   22.4709 C   0  0  0  0  0  0  0  0  0  0  0  0
   13.6269    0.1208   21.4428 C   0  0  1  0  0  0  0  0  0  0  0  0
   15.0089    0.7497   21.6341 C   0  0  0  0  0  0  0  0  0  0  0  0
   15.5503    1.5448   20.4341 C   0  0  0  0  0  0  0  0  0  0  0  0
   15.9270    0.5957   19.3822 N   0  0  0  0  0  0  0  0  0  0  0  0
   13.6205   -0.4048   20.1414 O   0  0  0  0  0  0  0  0  0  0  0  0
    9.7968   -1.4095   22.3883 C   0  0  0  0  0  0  0  0  0  0  0  0
   10.2394   -2.1788   21.1531 C   0  0  0  0  0  0  0  0  0  0  0  0
   11.8898   -2.5024   30.9925 C   0  0  1  0  0  0  0  0  0  0  0  0
   10.1120   -3.6460   21.2934 N   0  0  0  0  0  0  0  0  0  0  0  0
   12.1968   -1.6405   32.0710 O   0  0  0  0  0  0  0  0  0  0  0  0
   12.9084   -1.1024   27.0236 C   0  0  2  0  0  0  0  0  0  0  0  0
   14.0451   -1.1588   27.9374 N   0  0  0  0  0  0  0  0  0  0  0  0
   10.4836   -5.5106   22.9110 C   0  0  0  0  0  0  0  0  0  0  0  0
    9.9243   -6.7224   22.0983 N   0  0  0  0  0  0  0  0  0  0  0  0
   11.1548   -4.4192   22.0257 C   0  0  0  0  0  0  0  0  0  0  0  0
   13.7670   -1.9966   22.6169 O   0  0  0  0  0  0  0  0  0  0  0  0
   11.0604   -3.6979   31.4729 C   0  0  2  0  0  0  0  0  0  0  0  0
   11.7454   -4.4174   32.4852 O   0  0  0  0  0  0  0  0  0  0  0  0
   12.3900   -2.5003   26.7951 C   0  0  2  0  0  0  0  0  0  0  0  0
   10.7327   -4.6325   30.2728 C   0  0  2  0  0  0  0  0  0  0  0  0
   10.0324   -3.9177   29.2334 O   0  0  0  0  0  0  0  0  0  0  0  0
   11.1600   -2.4709   25.7896 C   0  0  2  0  0  0  0  0  0  0  0  0
   10.6823   -3.8362   25.5976 O   0  0  0  0  0  0  0  0  0  0  0  0
    9.9049   -5.7915   30.6830 C   0  0  0  0  0  0  0  0  0  0  0  0
    9.2835   -5.5104   31.8495 N   0  0  0  0  0  0  0  0  0  0  0  0
   11.6358   -1.8615   24.4252 C   0  0  1  0  0  0  0  0  0  0  0  0
   10.5858   -1.8479   23.5114 O   0  0  0  0  0  0  0  0  0  0  0  0
  1  2  1  1  0  0  0
  1  5  1  0  0  0  0
  1 29  1  0  0  0  0
  3  4  1  6  0  0  0
  3  7  1  0  0  0  0
  3 34  1  0  0  0  0
  5  6  1  6  0  0  0
  5 16  1  0  0  0  0
  7 19  1  0  0  0  0
  8  4  1  0  0  0  0
  8 24  2  0  0  0  0
  9  8  1  1  0  0  0
  9 10  1  0  0  0  0
  9 13  1  0  0  0  0
 10 11  1  0  0  0  0
 11 12  1  0  0  0  0
 14 15  1  0  0  0  0
 14 35  1  0  0  0  0
 15 17  1  0  0  0  0
 16 18  1  1  0  0  0
 16 25  1  0  0  0  0
 19 20  1  1  0  0  0
 19 27  1  0  0  0  0
 21 22  1  0  0  0  0
 21 23  1  0  0  0  0
 23 17  1  0  0  0  0
 25 26  1  1  0  0  0
 25 28  1  0  0  0  0
 27  2  1  1  0  0  0
 27 30  1  0  0  0  0
 28 29  1  0  0  0  0
 28 32  1  1  0  0  0
 30 31  1  6  0  0  0
 30 34  1  0  0  0  0
 32 33  2  0  0  0  0
 34 35  1  6  0  0  0
M  END
>  <CHROM.1>
-107.09089056,78.77683536,99.05339372,160.43127928,-72.28186766,58.30788346
91.94896003,-80.34096660,73.74721980,139.11420934,81.10156031,20.62768682
32.68386296,11.90004658,-2.29698204,25.71234587,-1.91590450,-0.89138202,-1.56321347

>  <Name>
2f4t_lig

>  <RI>
0

>  <Rbt.Current_Directory>
/home/itssahil/PROJECTS/Mol_Feturizer/New_Systems/rnas/2f4t

>  <Rbt.Executable>
rbdock ($Id: //depot/dev/client3/rdock/2013.1/src/exe/rbdock.cxx#4 $)

>  <Rbt.Library>
libRbt.so (2013.1, Build901 2013/11/27)

>  <Rbt.Parameter_File>
/export/apps/rDock/src/rDock_2013.1_src/data/scripts/dock_solv.prm

>  <Rbt.Receptor>
prm/blind_docking_60.prm

>  <SCORE>
13.3634

>  <SCORE.INTER>
3.71024

>  <SCORE.INTER.CONST>
1

>  <SCORE.INTER.POLAR>
0

>  <SCORE.INTER.ROT>
13

>  <SCORE.INTER.SOLV>
16.1616

>  <SCORE.INTER.VDW>
-15.1804

>  <SCORE.INTER.norm>
0.106007

>  <SCORE.INTRA>
5.69043

>  <SCORE.INTRA.DIHEDRAL>
-1.41565

>  <SCORE.INTRA.DIHEDRAL.0>
23.8882

>  <SCORE.INTRA.POLAR>
0

>  <SCORE.INTRA.POLAR.0>
0

>  <SCORE.INTRA.REPUL>
0

>  <SCORE.INTRA.REPUL.0>
0

>  <SCORE.INTRA.SOLV>
8.85957

>  <SCORE.INTRA.SOLV.lig_0>
-97.6888

>  <SCORE.INTRA.VDW>
1.96847

>  <SCORE.INTRA.VDW.0>
-3.9206

>  <SCORE.INTRA.norm>
0.162584

>  <SCORE.RESTR>
3.9627

>  <SCORE.RESTR.CAVITY>
3.9627

>  <SCORE.RESTR.norm>
0.11322

>  <SCORE.SYSTEM>
0

>  <SCORE.SYSTEM.CONST>
0

>  <SCORE.SYSTEM.DIHEDRAL>
0

>  <SCORE.SYSTEM.SOLV>
0

>  <SCORE.SYSTEM.norm>
0

>  <SCORE.heavy>
35

>  <SCORE.norm>
0.381811

>  <RMSD>
14.032

$$$$
2f4t_lig
 OpenBabel11021811433D
libRbt.so/2013.1/901 2013/11/27
 35 36  0  0  0  0  0  0  0  0999 V2000
   12.1911   -4.5465   27.7369 C   0  0  2  0  0  0  0  0  0  0  0  0
   11.2199   -4.1437   26.7163 O   0  0  0  0  0  0  0  0  0  0  0  0
   11.3306   -1.2763   23.4878 C   0  0  2  0  0  0  0  0  0  0  0  0
   11.8273   -0.5134   22.3329 N   0  0  0  0  0  0  0  0  0  0  0  0
   11.6407   -5.8699   28.3495 C   0  0  2  0  0  0  0  0  0  0  0  0
   11.4368   -6.8619   27.3201 N   0  0  0  0  0  0  0  0  0  0  0  0
   12.4028   -1.2338   24.6377 C   0  0  0  0  0  0  0  0  0  0  0  0
   12.5112    1.0179   22.8862 C   0  0  0  0  0  0  0  0  0  0  0  0
   12.8124    1.2870   21.4285 C   0  0  1  0  0  0  0  0  0  0  0  0
   13.8392    0.2490   20.9700 C   0  0  0  0  0  0  0  0  0  0  0  0
   15.0959    0.1231   21.8475 C   0  0  0  0  0  0  0  0  0  0  0  0
   15.8179   -1.0894   21.4504 N   0  0  0  0  0  0  0  0  0  0  0  0
   11.6741    1.0786   20.6341 O   0  0  0  0  0  0  0  0  0  0  0  0
    9.5407   -3.2168   20.8355 C   0  0  0  0  0  0  0  0  0  0  0  0
    9.8433   -4.6926   20.6259 C   0  0  0  0  0  0  0  0  0  0  0  0
   10.3060   -5.5917   29.1200 C   0  0  1  0  0  0  0  0  0  0  0  0
    8.9500   -5.3456   19.6439 N   0  0  0  0  0  0  0  0  0  0  0  0
    9.7917   -6.7804   29.6883 O   0  0  0  0  0  0  0  0  0  0  0  0
   11.9485   -2.0235   25.8732 C   0  0  2  0  0  0  0  0  0  0  0  0
   12.9759   -2.0033   26.9097 N   0  0  0  0  0  0  0  0  0  0  0  0
    9.0062   -5.9496   17.2225 C   0  0  0  0  0  0  0  0  0  0  0  0
   10.4585   -6.5218   17.1506 N   0  0  0  0  0  0  0  0  0  0  0  0
    8.8363   -4.8016   18.2610 C   0  0  0  0  0  0  0  0  0  0  0  0
   12.6289    1.4853   23.8385 O   0  0  0  0  0  0  0  0  0  0  0  0
   10.5931   -4.5509   30.2072 C   0  0  2  0  0  0  0  0  0  0  0  0
    9.4229   -4.2611   30.9546 O   0  0  0  0  0  0  0  0  0  0  0  0
   11.6503   -3.4549   25.5029 C   0  0  2  0  0  0  0  0  0  0  0  0
   11.1582   -3.2525   29.5624 C   0  0  2  0  0  0  0  0  0  0  0  0
   12.3517   -3.5277   28.7999 O   0  0  0  0  0  0  0  0  0  0  0  0
   10.5446   -3.5067   24.3629 C   0  0  2  0  0  0  0  0  0  0  0  0
   10.2780   -4.9034   24.0354 O   0  0  0  0  0  0  0  0  0  0  0  0
   11.4798   -2.2233   30.5794 C   0  0  0  0  0  0  0  0  0  0  0  0
   10.9188   -1.0471   30.2224 N   0  0  0  0  0  0  0  0  0  0  0  0
   11.0804   -2.7426   23.1026 C   0  0  1  0  0  0  0  0  0  0  0  0
   10.1440   -2.7942   22.0738 O   0  0  0  0  0  0  0  0  0  0  0  0
  1  2  1  6  0  0  0
  1  5  1  0  0  0  0
  1 29  1  0  0  0  0
  3  4  1  6  0  0  0
  3  7  1  0  0  0  0
  3 34  1  0  0  0  0
  5  6  1  6  0  0  0
  5 16  1  0  0  0  0
  7 19  1  0  0  0  0
  8  4  1  0  0  0  0
  8 24  2  0  0  0  0
  9  8  1  1  0  0  0
  9 10  1  0  0  0  0
  9 13  1  0  0  0  0
 10 11  1  0  0  0  0
 11 12  1  0  0  0  0
 14 15  1  0  0  0  0
 14 35  1  0  0  0  0
 15 17  1  0  0  0  0
 16 18  1  1  0  0  0
 16 25  1  0  0  0  0
 19 20  1  1  0  0  0
 19 27  1  0  0  0  0
 21 22  1  0  0  0  0
 21 23  1  0  0  0  0
 23 17  1  0  0  0  0
 25 26  1  6  0  0  0
 25 28  1  0  0  0  0
 27  2  1  1  0  0  0
 27 30  1  0  0  0  0
 28 29  1  0  0  0  0
 28 32  1  1  0  0  0
 30 31  1  6  0  0  0
 30 34  1  0  0  0  0
 32 33  2  0  0  0  0
 34 35  1  6  0  0  0
M  END
>  <CHROM.1>
-146.82433292,-45.19439749,-65.06826830,-51.73326071,167.77639764,161.77339218
34.18425799,56.18440439,-69.65998287,130.75735007,-76.12871046,-129.86979299
136.88469113,11.34388176,-2.96900185,24.52288242,1.61059866,1.06593193,1.70248378

>  <Name>
2f4t_lig

>  <RI>
0

>  <Rbt.Current_Directory>
/home/itssahil/PROJECTS/Mol_Feturizer/New_Systems/rnas/2f4t

>  <Rbt.Executable>
rbdock ($Id: //depot/dev/client3/rdock/2013.1/src/exe/rbdock.cxx#4 $)

>  <Rbt.Library>
libRbt.so (2013.1, Build901 2013/11/27)

>  <Rbt.Parameter_File>
/export/apps/rDock/src/rDock_2013.1_src/data/scripts/dock_solv.prm

>  <Rbt.Receptor>
prm/blind_docking_60.prm

>  <SCORE>
8.77836

>  <SCORE.INTER>
-0.217026

>  <SCORE.INTER.CONST>
1

>  <SCORE.INTER.POLAR>
-0.916515

>  <SCORE.INTER.ROT>
13

>  <SCORE.INTER.SOLV>
21.2235

>  <SCORE.INTER.VDW>
-16.4308

>  <SCORE.INTER.norm>
-0.00620076

>  <SCORE.INTRA>
6.21863

>  <SCORE.INTRA.DIHEDRAL>
-4.4754

>  <SCORE.INTRA.DIHEDRAL.0>
23.8882

>  <SCORE.INTRA.POLAR>
0

>  <SCORE.INTRA.POLAR.0>
0

>  <SCORE.INTRA.REPUL>
0

>  <SCORE.INTRA.REPUL.0>
0

>  <SCORE.INTRA.SOLV>
3.97448

>  <SCORE.INTRA.SOLV.lig_0>
-97.6888

>  <SCORE.INTRA.VDW>
6.46909

>  <SCORE.INTRA.VDW.0>
-3.9206

>  <SCORE.INTRA.norm>
0.177675

>  <SCORE.RESTR>
2.77675

>  <SCORE.RESTR.CAVITY>
2.77675

>  <SCORE.RESTR.norm>
0.0793358

>  <SCORE.SYSTEM>
0

>  <SCORE.SYSTEM.CONST>
0

>  <SCORE.SYSTEM.DIHEDRAL>
0

>  <SCORE.SYSTEM.SOLV>
0

>  <SCORE.SYSTEM.norm>
0

>  <SCORE.heavy>
35

>  <SCORE.norm>
0.25081

>  <RMSD>
14.041

$$$$
2f4t_lig
 OpenBabel11021811433D
libRbt.so/2013.1/901 2013/11/27
 35 36  0  0  0  0  0  0  0  0999 V2000
   10.6747   10.1306    8.7644 C   0  0  2  0  0  0  0  0  0  0  0  0
    9.7188   11.0562    8.1505 O   0  0  0  0  0  0  0  0  0  0  0  0
    5.9661    9.4699    9.5851 C   0  0  2  0  0  0  0  0  0  0  0  0
    4.5267    9.3665    9.8678 N   0  0  0  0  0  0  0  0  0  0  0  0
   12.0881   10.6459    8.3566 C   0  0  2  0  0  0  0  0  0  0  0  0
   12.2673   12.0193    8.7653 N   0  0  0  0  0  0  0  0  0  0  0  0
    6.4953   10.8625   10.0892 C   0  0  0  0  0  0  0  0  0  0  0  0
    3.6425   10.5155    8.8594 C   0  0  0  0  0  0  0  0  0  0  0  0
    2.3960    9.9778    9.5266 C   0  0  1  0  0  0  0  0  0  0  0  0
    2.4502   10.3835   11.0012 C   0  0  0  0  0  0  0  0  0  0  0  0
    2.0489    9.2917   12.0072 C   0  0  0  0  0  0  0  0  0  0  0  0
    2.8933    8.1160   11.7753 N   0  0  0  0  0  0  0  0  0  0  0  0
    1.2444   10.5857    9.0027 O   0  0  0  0  0  0  0  0  0  0  0  0
    4.8494    7.0254    7.4635 C   0  0  0  0  0  0  0  0  0  0  0  0
    4.8937    6.1884    8.7328 C   0  0  0  0  0  0  0  0  0  0  0  0
   12.2886   10.4995    6.8104 C   0  0  1  0  0  0  0  0  0  0  0  0
    4.3240    4.8332    8.5674 N   0  0  0  0  0  0  0  0  0  0  0  0
   13.5684   10.9577    6.4197 O   0  0  0  0  0  0  0  0  0  0  0  0
    7.9951   11.0388    9.8135 C   0  0  2  0  0  0  0  0  0  0  0  0
    8.4533   12.3531   10.2528 N   0  0  0  0  0  0  0  0  0  0  0  0
    3.7731    2.4940    9.2428 C   0  0  0  0  0  0  0  0  0  0  0  0
    2.2422    2.6484    8.9697 N   0  0  0  0  0  0  0  0  0  0  0  0
    4.4731    3.8232    9.6533 C   0  0  0  0  0  0  0  0  0  0  0  0
    3.9224   11.2388    8.1261 O   0  0  0  0  0  0  0  0  0  0  0  0
   12.1067    9.0225    6.4454 C   0  0  2  0  0  0  0  0  0  0  0  0
   12.2884    8.8170    5.0538 O   0  0  0  0  0  0  0  0  0  0  0  0
    8.2814   10.8840    8.3407 C   0  0  2  0  0  0  0  0  0  0  0  0
   10.6946    8.5379    6.8837 C   0  0  2  0  0  0  0  0  0  0  0  0
   10.4928    8.7365    8.2984 O   0  0  0  0  0  0  0  0  0  0  0  0
    7.7774    9.4660    7.8308 C   0  0  2  0  0  0  0  0  0  0  0  0
    8.0757    9.3496    6.4072 O   0  0  0  0  0  0  0  0  0  0  0  0
   10.4812    7.1035    6.5775 C   0  0  0  0  0  0  0  0  0  0  0  0
    9.4519    6.9765    5.7114 N   0  0  0  0  0  0  0  0  0  0  0  0
    6.2321    9.3596    8.0757 C   0  0  1  0  0  0  0  0  0  0  0  0
    5.7540    8.1370    7.6129 O   0  0  0  0  0  0  0  0  0  0  0  0
  1  2  1  6  0  0  0
  1  5  1  0  0  0  0
  1 29  1  0  0  0  0
  3  4  1  6  0  0  0
  3  7  1  0  0  0  0
  3 34  1  0  0  0  0
  5  6  1  6  0  0  0
  5 16  1  0  0  0  0
  7 19  1  0  0  0  0
  8  4  1  0  0  0  0
  8 24  2  0  0  0  0
  9  8  1  6  0  0  0
  9 10  1  0  0  0  0
  9 13  1  0  0  0  0
 10 11  1  0  0  0  0
 11 12  1  0  0  0  0
 14 15  1  0  0  0  0
 14 35  1  0  0  0  0
 15 17  1  0  0  0  0
 16 18  1  1  0  0  0
 16 25  1  0  0  0  0
 19 20  1  6  0  0  0
 19 27  1  0  0  0  0
 21 22  1  0  0  0  0
 21 23  1  0  0  0  0
 23 17  1  0  0  0  0
 25 26  1  6  0  0  0
 25 28  1  0  0  0  0
 27  2  1  1  0  0  0
 27 30  1  0  0  0  0
 28 29  1  0  0  0  0
 28 32  1  1  0  0  0
 30 31  1  6  0  0  0
 30 34  1  0  0  0  0
 32 33  2  0  0  0  0
 34 35  1  1  0  0  0
M  END
>  <CHROM.1>
-179.20821155,67.87421439,66.83527140,-136.68434430,55.75626031,-163.38151201
-73.45064082,170.98736363,-60.06253141,179.21249134,62.69932198,-118.36978198
42.98455087,7.11235412,8.91701063,8.45971903,0.21499588,0.35125716,0.25892794

>  <Name>
2f4t_lig

>  <RI>
0

>  <Rbt.Current_Directory>
/home/itssahil/PROJECTS/Mol_Feturizer/New_Systems/rnas/2f4t

>  <Rbt.Executable>
rbdock ($Id: //depot/dev/client3/rdock/2013.1/src/exe/rbdock.cxx#4 $)

>  <Rbt.Library>
libRbt.so (2013.1, Build901 2013/11/27)

>  <Rbt.Parameter_File>
/export/apps/rDock/src/rDock_2013.1_src/data/scripts/dock_solv.prm

>  <Rbt.Receptor>
prm/blind_docking_20.prm

>  <SCORE>
4.51476

>  <SCORE.INTER>
2.0184

>  <SCORE.INTER.CONST>
1

>  <SCORE.INTER.POLAR>
-0.853501

>  <SCORE.INTER.ROT>
13

>  <SCORE.INTER.SOLV>
13.1992

>  <SCORE.INTER.VDW>
-12.4758

>  <SCORE.INTER.norm>
0.0576687

>  <SCORE.INTRA>
-3.46385

>  <SCORE.INTRA.DIHEDRAL>
-14.6389

>  <SCORE.INTRA.DIHEDRAL.0>
23.8882

>  <SCORE.INTRA.POLAR>
0

>  <SCORE.INTRA.POLAR.0>
0

>  <SCORE.INTRA.REPUL>
0

>  <SCORE.INTRA.REPUL.0>
0

>  <SCORE.INTRA.SOLV>
5.31777

>  <SCORE.INTRA.SOLV.lig_0>
-97.6888

>  <SCORE.INTRA.VDW>
1.19672

>  <SCORE.INTRA.VDW.0>
-3.9206

>  <SCORE.INTRA.norm>
-0.0989673

>  <SCORE.RESTR>
5.96021

>  <SCORE.RESTR.CAVITY>
5.96021

>  <SCORE.RESTR.norm>
0.170292

>  <SCORE.SYSTEM>
0

>  <SCORE.SYSTEM.CONST>
0

>  <SCORE.SYSTEM.DIHEDRAL>
0

>  <SCORE.SYSTEM.SOLV>
0

>  <SCORE.SYSTEM.norm>
0

>  <SCORE.heavy>
35

>  <SCORE.norm>
0.128993

>  <RMSD>
27.765

$$$$
2f4t_lig
 OpenBabel11021811433D
libRbt.so/2013.1/901 2013/11/27
 35 36  0  0  0  0  0  0  0  0999 V2000
   10.8026    9.6765    8.6946 C   0  0  2  0  0  0  0  0  0  0  0  0
    9.9989   10.7989    8.2032 O   0  0  0  0  0  0  0  0  0  0  0  0
    6.2542   10.2248   10.2779 C   0  0  2  0  0  0  0  0  0  0  0  0
    4.8565   10.4255   10.6889 N   0  0  0  0  0  0  0  0  0  0  0  0
   12.2887   10.0774    8.4487 C   0  0  2  0  0  0  0  0  0  0  0  0
   12.5913   11.3333    9.0943 N   0  0  0  0  0  0  0  0  0  0  0  0
    7.0249   11.5923   10.3741 C   0  0  0  0  0  0  0  0  0  0  0  0
    3.8276   10.5225    9.2568 C   0  0  0  0  0  0  0  0  0  0  0  0
    2.6788   10.6955   10.2256 C   0  0  1  0  0  0  0  0  0  0  0  0
    1.4041   10.2314    9.5175 C   0  0  0  0  0  0  0  0  0  0  0  0
    1.3395    8.7331    9.1770 C   0  0  0  0  0  0  0  0  0  0  0  0
    1.3759    7.9719   10.4294 N   0  0  0  0  0  0  0  0  0  0  0  0
    2.8293    9.8528   11.3380 O   0  0  0  0  0  0  0  0  0  0  0  0
    5.0138    7.3818    8.0906 C   0  0  0  0  0  0  0  0  0  0  0  0
    4.5336    6.4236    9.1698 C   0  0  0  0  0  0  0  0  0  0  0  0
   12.5754   10.1638    6.9116 C   0  0  1  0  0  0  0  0  0  0  0  0
    4.2537    5.0604    8.6680 N   0  0  0  0  0  0  0  0  0  0  0  0
   13.9214   10.5220    6.6665 O   0  0  0  0  0  0  0  0  0  0  0  0
    8.4927   11.4534    9.9467 C   0  0  2  0  0  0  0  0  0  0  0  0
    9.1754   12.7421   10.0055 N   0  0  0  0  0  0  0  0  0  0  0  0
    3.9745    2.5853    8.8347 C   0  0  0  0  0  0  0  0  0  0  0  0
    2.4627    2.5739    8.4397 N   0  0  0  0  0  0  0  0  0  0  0  0
    4.4201    3.8846    9.5687 C   0  0  0  0  0  0  0  0  0  0  0  0
    4.0012   10.4735    8.2049 O   0  0  0  0  0  0  0  0  0  0  0  0
   12.2557    8.7997    6.2913 C   0  0  2  0  0  0  0  0  0  0  0  0
   12.5067    8.8051    4.8953 O   0  0  0  0  0  0  0  0  0  0  0  0
    8.5831   10.9116    8.5420 C   0  0  2  0  0  0  0  0  0  0  0  0
   10.7722    8.4237    6.5725 C   0  0  2  0  0  0  0  0  0  0  0  0
   10.4990    8.4102    7.9891 O   0  0  0  0  0  0  0  0  0  0  0  0
    7.8329    9.5141    8.4446 C   0  0  2  0  0  0  0  0  0  0  0  0
    7.9461    9.0188    7.0768 O   0  0  0  0  0  0  0  0  0  0  0  0
   10.4221    7.0954    6.0157 C   0  0  0  0  0  0  0  0  0  0  0  0
   11.4658    6.2520    6.1734 N   0  0  0  0  0  0  0  0  0  0  0  0
    6.3264    9.7203    8.8283 C   0  0  1  0  0  0  0  0  0  0  0  0
    5.6341    8.5170    8.7253 O   0  0  0  0  0  0  0  0  0  0  0  0
  1  2  1  6  0  0  0
  1  5  1  0  0  0  0
  1 29  1  0  0  0  0
  3  4  1  6  0  0  0
  3  7  1  0  0  0  0
  3 34  1  0  0  0  0
  5  6  1  1  0  0  0
  5 16  1  0  0  0  0
  7 19  1  0  0  0  0
  8  4  1  0  0  0  0
  8 24  2  0  0  0  0
  9  8  1  6  0  0  0
  9 10  1  0  0  0  0
  9 13  1  0  0  0  0
 10 11  1  0  0  0  0
 11 12  1  0  0  0  0
 14 15  1  0  0  0  0
 14 35  1  0  0  0  0
 15 17  1  0  0  0  0
 16 18  1  1  0  0  0
 16 25  1  0  0  0  0
 19 20  1  6  0  0  0
 19 27  1  0  0  0  0
 21 22  1  0  0  0  0
 21 23  1  0  0  0  0
 23 17  1  0  0  0  0
 25 26  1  6  0  0  0
 25 28  1  0  0  0  0
 27  2  1  1  0  0  0
 27 30  1  0  0  0  0
 28 29  1  0  0  0  0
 28 32  1  1  0  0  0
 30 31  1  6  0  0  0
 30 34  1  0  0  0  0
 32 33  2  0  0  0  0
 34 35  1  1  0  0  0
M  END
>  <CHROM.1>
-165.98014393,101.46967886,-155.45957163,65.82872850,62.48739315,-162.65449267
175.11540835,150.46986072,-62.88352315,176.24786943,78.77863301,38.00544158
170.52407588,7.27282561,8.87605076,8.54798459,0.14937291,0.31041367,0.30948189

>  <Name>
2f4t_lig

>  <RI>
0

>  <Rbt.Current_Directory>
/home/itssahil/PROJECTS/Mol_Feturizer/New_Systems/rnas/2f4t

>  <Rbt.Executable>
rbdock ($Id: //depot/dev/client3/rdock/2013.1/src/exe/rbdock.cxx#4 $)

>  <Rbt.Library>
libRbt.so (2013.1, Build901 2013/11/27)

>  <Rbt.Parameter_File>
/export/apps/rDock/src/rDock_2013.1_src/data/scripts/dock_solv.prm

>  <Rbt.Receptor>
prm/blind_docking_20.prm

>  <SCORE>
3.63425

>  <SCORE.INTER>
-5.93977

>  <SCORE.INTER.CONST>
1

>  <SCORE.INTER.POLAR>
-1.89557

>  <SCORE.INTER.ROT>
13

>  <SCORE.INTER.SOLV>
10.1843

>  <SCORE.INTER.VDW>
-13.3027

>  <SCORE.INTER.norm>
-0.169708

>  <SCORE.INTRA>
4.14624

>  <SCORE.INTRA.DIHEDRAL>
-15.1415

>  <SCORE.INTRA.DIHEDRAL.0>
23.8882

>  <SCORE.INTRA.POLAR>
0

>  <SCORE.INTRA.POLAR.0>
0

>  <SCORE.INTRA.REPUL>
0

>  <SCORE.INTRA.REPUL.0>
0

>  <SCORE.INTRA.SOLV>
6.64092

>  <SCORE.INTRA.SOLV.lig_0>
-97.6888

>  <SCORE.INTRA.VDW>
8.39652

>  <SCORE.INTRA.VDW.0>
-3.9206

>  <SCORE.INTRA.norm>
0.118464

>  <SCORE.RESTR>
5.42779

>  <SCORE.RESTR.CAVITY>
5.42779

>  <SCORE.RESTR.norm>
0.15508

>  <SCORE.SYSTEM>
0

>  <SCORE.SYSTEM.CONST>
0

>  <SCORE.SYSTEM.DIHEDRAL>
0

>  <SCORE.SYSTEM.SOLV>
0

>  <SCORE.SYSTEM.norm>
0

>  <SCORE.heavy>
35

>  <SCORE.norm>
0.103836

>  <RMSD>
27.768

$$$$
2f4t_lig
 OpenBabel11021811433D
libRbt.so/2013.1/901 2013/11/27
 35 36  0  0  0  0  0  0  0  0999 V2000
    3.3895    9.5913    8.3550 C   0  0  2  0  0  0  0  0  0  0  0  0
    4.1282   10.7820    8.7838 O   0  0  0  0  0  0  0  0  0  0  0  0
    8.2217    9.8617    7.7576 C   0  0  2  0  0  0  0  0  0  0  0  0
    9.5997   10.0398    7.2758 N   0  0  0  0  0  0  0  0  0  0  0  0
    1.9942    9.6852    9.0435 C   0  0  2  0  0  0  0  0  0  0  0  0
    1.3403   10.9268    8.7026 N   0  0  0  0  0  0  0  0  0  0  0  0
    7.2185   10.3880    6.6667 C   0  0  0  0  0  0  0  0  0  0  0  0
   10.0257    8.7071    6.1982 C   0  0  0  0  0  0  0  0  0  0  0  0
   11.3675    9.3912    6.0576 C   0  0  1  0  0  0  0  0  0  0  0  0
   12.3394    8.7032    7.0188 C   0  0  0  0  0  0  0  0  0  0  0  0
   13.7791    9.2440    7.0101 C   0  0  0  0  0  0  0  0  0  0  0  0
   13.9598   10.0977    8.1881 N   0  0  0  0  0  0  0  0  0  0  0  0
   11.8969    9.1981    4.7720 O   0  0  0  0  0  0  0  0  0  0  0  0
   10.1570    9.8870   10.6299 C   0  0  0  0  0  0  0  0  0  0  0  0
   11.0883   11.0776   10.4609 C   0  0  0  0  0  0  0  0  0  0  0  0
    2.1503    9.5517   10.5959 C   0  0  1  0  0  0  0  0  0  0  0  0
   10.9416   11.7627    9.1580 N   0  0  0  0  0  0  0  0  0  0  0  0
    0.8935    9.6296   11.2401 O   0  0  0  0  0  0  0  0  0  0  0  0
    5.7574   10.2400    7.1139 C   0  0  2  0  0  0  0  0  0  0  0  0
    4.8483   10.7718    6.1035 N   0  0  0  0  0  0  0  0  0  0  0  0
   10.8004   13.8188    7.7494 C   0  0  0  0  0  0  0  0  0  0  0  0
   10.9968   13.0408    6.4085 N   0  0  0  0  0  0  0  0  0  0  0  0
   11.4826   13.1392    8.9733 C   0  0  0  0  0  0  0  0  0  0  0  0
    9.5175    7.8377    5.8447 O   0  0  0  0  0  0  0  0  0  0  0  0
    2.8289    8.2101   10.8916 C   0  0  2  0  0  0  0  0  0  0  0  0
    2.9900    8.0191   12.2878 O   0  0  0  0  0  0  0  0  0  0  0  0
    5.5286   10.9681    8.4148 C   0  0  2  0  0  0  0  0  0  0  0  0
    4.2080    8.1439   10.1741 C   0  0  2  0  0  0  0  0  0  0  0  0
    4.0632    8.3332    8.7511 O   0  0  0  0  0  0  0  0  0  0  0  0
    6.5180   10.4197    9.5308 C   0  0  2  0  0  0  0  0  0  0  0  0
    6.2644   11.1410   10.7736 O   0  0  0  0  0  0  0  0  0  0  0  0
    4.8921    6.8497   10.4067 C   0  0  0  0  0  0  0  0  0  0  0  0
    4.3952    5.9197    9.5618 N   0  0  0  0  0  0  0  0  0  0  0  0
    7.9947   10.6509    9.0563 C   0  0  1  0  0  0  0  0  0  0  0  0
    8.8878   10.2057   10.0269 O   0  0  0  0  0  0  0  0  0  0  0  0
  1  2  1  1  0  0  0
  1  5  1  0  0  0  0
  1 29  1  0  0  0  0
  3  4  1  6  0  0  0
  3  7  1  0  0  0  0
  3 34  1  0  0  0  0
  5  6  1  1  0  0  0
  5 16  1  0  0  0  0
  7 19  1  0  0  0  0
  8  4  1  0  0  0  0
  8 24  2  0  0  0  0
  9  8  1  6  0  0  0
  9 10  1  0  0  0  0
  9 13  1  0  0  0  0
 10 11  1  0  0  0  0
 11 12  1  0  0  0  0
 14 15  1  0  0  0  0
 14 35  1  0  0  0  0
 15 17  1  0  0  0  0
 16 18  1  1  0  0  0
 16 25  1  0  0  0  0
 19 20  1  6  0  0  0
 19 27  1  0  0  0  0
 21 22  1  0  0  0  0
 21 23  1  0  0  0  0
 23 17  1  0  0  0  0
 25 26  1  1  0  0  0
 25 28  1  0  0  0  0
 27  2  1  1  0  0  0
 27 30  1  0  0  0  0
 28 29  1  0  0  0  0
 28 32  1  6  0  0  0
 30 31  1  1  0  0  0
 30 34  1  0  0  0  0
 32 33  2  0  0  0  0
 34 35  1  1  0  0  0
M  END
>  <CHROM.1>
174.85601459,-81.78017262,97.89006994,179.06645311,102.46050867,-37.81537047
49.11230261,163.00662418,-58.85441858,-160.46868617,27.90819541,81.26338194
56.14709422,7.32359614,9.89165531,8.58722633,3.09007192,0.31696839,0.63920077

>  <Name>
2f4t_lig

>  <RI>
0

>  <Rbt.Current_Directory>
/home/itssahil/PROJECTS/Mol_Feturizer/New_Systems/rnas/2f4t

>  <Rbt.Executable>
rbdock ($Id: //depot/dev/client3/rdock/2013.1/src/exe/rbdock.cxx#4 $)

>  <Rbt.Library>
libRbt.so (2013.1, Build901 2013/11/27)

>  <Rbt.Parameter_File>
/export/apps/rDock/src/rDock_2013.1_src/data/scripts/dock_solv.prm

>  <Rbt.Receptor>
prm/blind_docking_20.prm

>  <SCORE>
5.76418

>  <SCORE.INTER>
-3.37015

>  <SCORE.INTER.CONST>
1

>  <SCORE.INTER.POLAR>
-0.889312

>  <SCORE.INTER.ROT>
13

>  <SCORE.INTER.SOLV>
16.3856

>  <SCORE.INTER.VDW>
-17.0109

>  <SCORE.INTER.norm>
-0.09629

>  <SCORE.INTRA>
3.56616

>  <SCORE.INTRA.DIHEDRAL>
-8.57345

>  <SCORE.INTRA.DIHEDRAL.0>
23.8882

>  <SCORE.INTRA.POLAR>
0

>  <SCORE.INTRA.POLAR.0>
0

>  <SCORE.INTRA.REPUL>
1

>  <SCORE.INTRA.REPUL.0>
0

>  <SCORE.INTRA.SOLV>
7.65784

>  <SCORE.INTRA.SOLV.lig_0>
-97.6888

>  <SCORE.INTRA.VDW>
-0.976035

>  <SCORE.INTRA.VDW.0>
-3.9206

>  <SCORE.INTRA.norm>
0.10189

>  <SCORE.RESTR>
5.56817

>  <SCORE.RESTR.CAVITY>
5.56817

>  <SCORE.RESTR.norm>
0.159091

>  <SCORE.SYSTEM>
0

>  <SCORE.SYSTEM.CONST>
0

>  <SCORE.SYSTEM.DIHEDRAL>
0

>  <SCORE.SYSTEM.SOLV>
0

>  <SCORE.SYSTEM.norm>
0

>  <SCORE.heavy>
35

>  <SCORE.norm>
0.164691

>  <RMSD>
27.991

$$$$
2f4t_lig
 OpenBabel11021811433D
libRbt.so/2013.1/901 2013/11/27
 35 36  0  0  0  0  0  0  0  0999 V2000
    3.4124   10.3482   10.1675 C   0  0  2  0  0  0  0  0  0  0  0  0
    4.7603    9.8038   10.3521 O   0  0  0  0  0  0  0  0  0  0  0  0
    8.5871    9.6319    8.3562 C   0  0  2  0  0  0  0  0  0  0  0  0
    9.6036    9.7652    7.3019 N   0  0  0  0  0  0  0  0  0  0  0  0
    2.4341    9.1701   10.4580 C   0  0  2  0  0  0  0  0  0  0  0  0
    2.6650    8.6293   11.7770 N   0  0  0  0  0  0  0  0  0  0  0  0
    7.3473    8.8500    7.7860 C   0  0  0  0  0  0  0  0  0  0  0  0
   10.9273    8.6379    7.6116 C   0  0  0  0  0  0  0  0  0  0  0  0
   11.5477    9.1858    6.3454 C   0  0  1  0  0  0  0  0  0  0  0  0
   13.0628    9.0016    6.4566 C   0  0  0  0  0  0  0  0  0  0  0  0
   13.6974    9.4842    7.7717 C   0  0  0  0  0  0  0  0  0  0  0  0
   13.2710   10.8661    8.0115 N   0  0  0  0  0  0  0  0  0  0  0  0
   11.1503    8.4365    5.2271 O   0  0  0  0  0  0  0  0  0  0  0  0
   10.3588   12.0078   10.1512 C   0  0  0  0  0  0  0  0  0  0  0  0
   11.1643   13.1182    9.4943 C   0  0  0  0  0  0  0  0  0  0  0  0
    2.5948    8.0563    9.3689 C   0  0  1  0  0  0  0  0  0  0  0  0
   10.5046   13.7039    8.3067 N   0  0  0  0  0  0  0  0  0  0  0  0
    1.7114    6.9788    9.6118 O   0  0  0  0  0  0  0  0  0  0  0  0
    6.2412    8.6857    8.8376 C   0  0  2  0  0  0  0  0  0  0  0  0
    5.0865    7.9938    8.2736 N   0  0  0  0  0  0  0  0  0  0  0  0
    8.3436   14.6138    7.4501 C   0  0  0  0  0  0  0  0  0  0  0  0
    7.2674   13.5750    7.9025 N   0  0  0  0  0  0  0  0  0  0  0  0
    9.5050   14.7972    8.4712 C   0  0  0  0  0  0  0  0  0  0  0  0
   11.1360    7.9180    8.3714 O   0  0  0  0  0  0  0  0  0  0  0  0
    2.3178    8.6867    8.0002 C   0  0  2  0  0  0  0  0  0  0  0  0
    2.4348    7.7244    6.9647 O   0  0  0  0  0  0  0  0  0  0  0  0
    5.8036   10.0326    9.3565 C   0  0  2  0  0  0  0  0  0  0  0  0
    3.2983    9.8692    7.7526 C   0  0  2  0  0  0  0  0  0  0  0  0
    3.1910   10.8604    8.7955 O   0  0  0  0  0  0  0  0  0  0  0  0
    7.0459   10.8160    9.9628 C   0  0  2  0  0  0  0  0  0  0  0  0
    6.5848   12.1084   10.4591 O   0  0  0  0  0  0  0  0  0  0  0  0
    3.0500   10.5317    6.4502 C   0  0  0  0  0  0  0  0  0  0  0  0
    4.1712   10.4799    5.6979 N   0  0  0  0  0  0  0  0  0  0  0  0
    8.1185   11.0144    8.8361 C   0  0  1  0  0  0  0  0  0  0  0  0
    9.2098   11.7240    9.3294 O   0  0  0  0  0  0  0  0  0  0  0  0
  1  2  1  6  0  0  0
  1  5  1  0  0  0  0
  1 29  1  0  0  0  0
  3  4  1  6  0  0  0
  3  7  1  0  0  0  0
  3 34  1  0  0  0  0
  5  6  1  1  0  0  0
  5 16  1  0  0  0  0
  7 19  1  0  0  0  0
  8  4  1  0  0  0  0
  8 24  2  0  0  0  0
  9  8  1  1  0  0  0
  9 10  1  0  0  0  0
  9 13  1  0  0  0  0
 10 11  1  0  0  0  0
 11 12  1  0  0  0  0
 14 15  1  0  0  0  0
 14 35  1  0  0  0  0
 15 17  1  0  0  0  0
 16 18  1  1  0  0  0
 16 25  1  0  0  0  0
 19 20  1  6  0  0  0
 19 27  1  0  0  0  0
 21 22  1  0  0  0  0
 21 23  1  0  0  0  0
 23 17  1  0  0  0  0
 25 26  1  6  0  0  0
 25 28  1  0  0  0  0
 27  2  1  1  0  0  0
 27 30  1  0  0  0  0
 28 29  1  0  0  0  0
 28 32  1  6  0  0  0
 30 31  1  6  0  0  0
 30 34  1  0  0  0  0
 32 33  2  0  0  0  0
 34 35  1  1  0  0  0
M  END
>  <CHROM.1>
132.12807913,-104.76694804,153.75262234,-49.03400310,-52.03549729,6.34470402
162.62077229,85.12240695,81.24329519,-142.02914130,-119.29430369,-121.56915001
-56.58248365,7.18861415,10.19811257,8.44639068,2.99032161,-0.19582216,-2.82317107

>  <Name>
2f4t_lig

>  <RI>
0

>  <Rbt.Current_Directory>
/home/itssahil/PROJECTS/Mol_Feturizer/New_Systems/rnas/2f4t

>  <Rbt.Executable>
rbdock ($Id: //depot/dev/client3/rdock/2013.1/src/exe/rbdock.cxx#4 $)

>  <Rbt.Library>
libRbt.so (2013.1, Build901 2013/11/27)

>  <Rbt.Parameter_File>
/export/apps/rDock/src/rDock_2013.1_src/data/scripts/dock_solv.prm

>  <Rbt.Receptor>
prm/blind_docking_20.prm

>  <SCORE>
12.2997

>  <SCORE.INTER>
-1.53386

>  <SCORE.INTER.CONST>
1

>  <SCORE.INTER.POLAR>
-0.740008

>  <SCORE.INTER.ROT>
13

>  <SCORE.INTER.SOLV>
14.2202

>  <SCORE.INTER.VDW>
-15.5626

>  <SCORE.INTER.norm>
-0.0438245

>  <SCORE.INTRA>
9.82509

>  <SCORE.INTRA.DIHEDRAL>
3.38164

>  <SCORE.INTRA.DIHEDRAL.0>
23.8882

>  <SCORE.INTRA.POLAR>
0

>  <SCORE.INTRA.POLAR.0>
0

>  <SCORE.INTRA.REPUL>
0

>  <SCORE.INTRA.REPUL.0>
0

>  <SCORE.INTRA.SOLV>
16.2108

>  <SCORE.INTRA.SOLV.lig_0>
-97.6888

>  <SCORE.INTRA.VDW>
0.0288715

>  <SCORE.INTRA.VDW.0>
-3.9206

>  <SCORE.INTRA.norm>
0.280717

>  <SCORE.RESTR>
4.00843

>  <SCORE.RESTR.CAVITY>
4.00843

>  <SCORE.RESTR.norm>
0.114527

>  <SCORE.SYSTEM>
0

>  <SCORE.SYSTEM.CONST>
0

>  <SCORE.SYSTEM.DIHEDRAL>
0

>  <SCORE.SYSTEM.SOLV>
0

>  <SCORE.SYSTEM.norm>
0

>  <SCORE.heavy>
35

>  <SCORE.norm>
0.351419

>  <RMSD>
28.188

$$$$
2f4t_lig
 OpenBabel11021811433D
libRbt.so/2013.1/901 2013/11/27
 35 36  0  0  0  0  0  0  0  0999 V2000
    3.4801   11.0286    8.6530 C   0  0  2  0  0  0  0  0  0  0  0  0
    4.7546   11.4990    9.2022 O   0  0  0  0  0  0  0  0  0  0  0  0
    8.6903   11.0294    7.4856 C   0  0  2  0  0  0  0  0  0  0  0  0
    9.8125   11.1601    6.5442 N   0  0  0  0  0  0  0  0  0  0  0  0
    2.4744   11.0370    9.8439 C   0  0  2  0  0  0  0  0  0  0  0  0
    2.3995   12.3510   10.4384 N   0  0  0  0  0  0  0  0  0  0  0  0
    7.4108   10.5528    6.7050 C   0  0  0  0  0  0  0  0  0  0  0  0
   10.4892    9.5642    6.2065 C   0  0  0  0  0  0  0  0  0  0  0  0
   11.4583   10.2860    5.2965 C   0  0  1  0  0  0  0  0  0  0  0  0
   12.8386   10.2303    5.9549 C   0  0  0  0  0  0  0  0  0  0  0  0
   13.2594    8.8567    6.5039 C   0  0  0  0  0  0  0  0  0  0  0  0
   12.9797    7.8442    5.4813 N   0  0  0  0  0  0  0  0  0  0  0  0
   11.5899    9.6152    4.0705 O   0  0  0  0  0  0  0  0  0  0  0  0
   10.9127   13.0383    9.1065 C   0  0  0  0  0  0  0  0  0  0  0  0
   11.5256   11.7318    9.5870 C   0  0  0  0  0  0  0  0  0  0  0  0
    2.8957    9.9715   10.9114 C   0  0  1  0  0  0  0  0  0  0  0  0
   10.5506   10.6238    9.6891 N   0  0  0  0  0  0  0  0  0  0  0  0
    1.9923    9.9597   11.9995 O   0  0  0  0  0  0  0  0  0  0  0  0
    6.1962   10.4065    7.6321 C   0  0  2  0  0  0  0  0  0  0  0  0
    5.0129   10.0031    6.8788 N   0  0  0  0  0  0  0  0  0  0  0  0
    8.8564    9.9418   11.3908 C   0  0  0  0  0  0  0  0  0  0  0  0
    7.9171    9.2259   10.3674 N   0  0  0  0  0  0  0  0  0  0  0  0
   10.3599    9.9144   10.9859 C   0  0  0  0  0  0  0  0  0  0  0  0
   10.2674    8.5722    6.5319 O   0  0  0  0  0  0  0  0  0  0  0  0
    2.9362    8.6020   10.2254 C   0  0  2  0  0  0  0  0  0  0  0  0
    3.3008    7.5844   11.1438 O   0  0  0  0  0  0  0  0  0  0  0  0
    5.9113   11.7095    8.3365 C   0  0  2  0  0  0  0  0  0  0  0  0
    3.9340    8.6360    9.0319 C   0  0  2  0  0  0  0  0  0  0  0  0
    3.5768    9.6642    8.0849 O   0  0  0  0  0  0  0  0  0  0  0  0
    7.1901   12.1816    9.1531 C   0  0  2  0  0  0  0  0  0  0  0  0
    6.8763   13.4386    9.8244 O   0  0  0  0  0  0  0  0  0  0  0  0
    3.9867    7.3389    8.3166 C   0  0  0  0  0  0  0  0  0  0  0  0
    5.0548    7.3244    7.4892 N   0  0  0  0  0  0  0  0  0  0  0  0
    8.3839   12.3781    8.1554 C   0  0  1  0  0  0  0  0  0  0  0  0
    9.5141   12.8197    8.8376 O   0  0  0  0  0  0  0  0  0  0  0  0
  1  2  1  1  0  0  0
  1  5  1  0  0  0  0
  1 29  1  0  0  0  0
  3  4  1  6  0  0  0
  3  7  1  0  0  0  0
  3 34  1  0  0  0  0
  5  6  1  1  0  0  0
  5 16  1  0  0  0  0
  7 19  1  0  0  0  0
  8  4  1  0  0  0  0
  8 24  2  0  0  0  0
  9  8  1  1  0  0  0
  9 10  1  0  0  0  0
  9 13  1  0  0  0  0
 10 11  1  0  0  0  0
 11 12  1  0  0  0  0
 14 15  1  0  0  0  0
 14 35  1  0  0  0  0
 15 17  1  0  0  0  0
 16 18  1  1  0  0  0
 16 25  1  0  0  0  0
 19 20  1  6  0  0  0
 19 27  1  0  0  0  0
 21 22  1  0  0  0  0
 21 23  1  0  0  0  0
 23 17  1  0  0  0  0
 25 26  1  1  0  0  0
 25 28  1  0  0  0  0
 27  2  1  1  0  0  0
 27 30  1  0  0  0  0
 28 29  1  0  0  0  0
 28 32  1  6  0  0  0
 30 31  1  6  0  0  0
 30 34  1  0  0  0  0
 32 33  2  0  0  0  0
 34 35  1  1  0  0  0
M  END
>  <CHROM.1>
-175.58316645,-79.15189652,109.50375231,46.08181088,46.96346883,-1.69503098
-75.72704730,-122.98815016,61.38739482,125.29654177,-57.21898423,-166.92227687
35.95133481,7.39543244,10.29332263,8.47328481,2.91747073,0.29587902,0.72325444

>  <Name>
2f4t_lig

>  <RI>
0

>  <Rbt.Current_Directory>
/home/itssahil/PROJECTS/Mol_Feturizer/New_Systems/rnas/2f4t

>  <Rbt.Executable>
rbdock ($Id: //depot/dev/client3/rdock/2013.1/src/exe/rbdock.cxx#4 $)

>  <Rbt.Library>
libRbt.so (2013.1, Build901 2013/11/27)

>  <Rbt.Parameter_File>
/export/apps/rDock/src/rDock_2013.1_src/data/scripts/dock_solv.prm

>  <Rbt.Receptor>
prm/blind_docking_20.prm

>  <SCORE>
17.1736

>  <SCORE.INTER>
-6.19598

>  <SCORE.INTER.CONST>
1

>  <SCORE.INTER.POLAR>
-1.46209

>  <SCORE.INTER.ROT>
13

>  <SCORE.INTER.SOLV>
14.8586

>  <SCORE.INTER.VDW>
-16.4765

>  <SCORE.INTER.norm>
-0.177028

>  <SCORE.INTRA>
18.9939

>  <SCORE.INTRA.DIHEDRAL>
-6.54262

>  <SCORE.INTRA.DIHEDRAL.0>
23.8882

>  <SCORE.INTRA.POLAR>
0

>  <SCORE.INTRA.POLAR.0>
0

>  <SCORE.INTRA.REPUL>
0

>  <SCORE.INTRA.REPUL.0>
0

>  <SCORE.INTRA.SOLV>
16.6182

>  <SCORE.INTRA.SOLV.lig_0>
-97.6888

>  <SCORE.INTRA.VDW>
13.9561

>  <SCORE.INTRA.VDW.0>
-3.9206

>  <SCORE.INTRA.norm>
0.542684

>  <SCORE.RESTR>
4.37561

>  <SCORE.RESTR.CAVITY>
4.37561

>  <SCORE.RESTR.norm>
0.125018

>  <SCORE.SYSTEM>
0

>  <SCORE.SYSTEM.CONST>
0

>  <SCORE.SYSTEM.DIHEDRAL>
0

>  <SCORE.SYSTEM.SOLV>
0

>  <SCORE.SYSTEM.norm>
0

>  <SCORE.heavy>
35

>  <SCORE.norm>
0.490673

>  <RMSD>
28.311

$$$$
2f4t_lig
 OpenBabel11021811433D
libRbt.so/2013.1/901 2013/11/27
 35 36  0  0  0  0  0  0  0  0999 V2000
    2.9989   10.7123    9.9864 C   0  0  2  0  0  0  0  0  0  0  0  0
    4.3737   10.5531   10.4679 O   0  0  0  0  0  0  0  0  0  0  0  0
    8.3975   10.7269    8.9071 C   0  0  2  0  0  0  0  0  0  0  0  0
    9.5379   10.5312    7.9993 N   0  0  0  0  0  0  0  0  0  0  0  0
    2.2625    9.3893   10.3566 C   0  0  2  0  0  0  0  0  0  0  0  0
    2.3539    9.1349   11.7751 N   0  0  0  0  0  0  0  0  0  0  0  0
    7.6927    9.3439    9.1605 C   0  0  0  0  0  0  0  0  0  0  0  0
    8.9473   10.0794    6.3975 C   0  0  0  0  0  0  0  0  0  0  0  0
   10.4033   10.0407    5.9893 C   0  0  1  0  0  0  0  0  0  0  0  0
   10.7360    8.5980    5.6023 C   0  0  0  0  0  0  0  0  0  0  0  0
   11.0021    7.6387    6.7745 C   0  0  0  0  0  0  0  0  0  0  0  0
   11.5502    6.3904    6.2356 N   0  0  0  0  0  0  0  0  0  0  0  0
   10.6213   10.8085    4.8347 O   0  0  0  0  0  0  0  0  0  0  0  0
    8.0986   14.3236    7.7436 C   0  0  0  0  0  0  0  0  0  0  0  0
    9.5425   14.6316    7.3777 C   0  0  0  0  0  0  0  0  0  0  0  0
    2.8619    8.1939    9.5417 C   0  0  1  0  0  0  0  0  0  0  0  0
   10.5113   13.6543    7.9208 N   0  0  0  0  0  0  0  0  0  0  0  0
    2.2035    6.9832    9.8597 O   0  0  0  0  0  0  0  0  0  0  0  0
    6.4829    9.4809   10.0954 C   0  0  2  0  0  0  0  0  0  0  0  0
    5.8222    8.1930   10.2826 N   0  0  0  0  0  0  0  0  0  0  0  0
   11.4579   12.1093    9.6379 C   0  0  0  0  0  0  0  0  0  0  0  0
   11.1130   11.2716   10.9112 N   0  0  0  0  0  0  0  0  0  0  0  0
   10.4538   13.2665    9.3588 C   0  0  0  0  0  0  0  0  0  0  0  0
    7.9812    9.9211    5.9724 O   0  0  0  0  0  0  0  0  0  0  0  0
    2.7162    8.5149    8.0506 C   0  0  2  0  0  0  0  0  0  0  0  0
    3.2307    7.4619    7.2516 O   0  0  0  0  0  0  0  0  0  0  0  0
    5.4903   10.4665    9.5310 C   0  0  2  0  0  0  0  0  0  0  0  0
    3.4457    9.8493    7.7216 C   0  0  2  0  0  0  0  0  0  0  0  0
    2.9328   10.9335    8.5235 O   0  0  0  0  0  0  0  0  0  0  0  0
    6.1878   11.8757    9.3014 C   0  0  2  0  0  0  0  0  0  0  0  0
    5.1986   12.8028    8.7620 O   0  0  0  0  0  0  0  0  0  0  0  0
    3.3081   10.2184    6.2927 C   0  0  0  0  0  0  0  0  0  0  0  0
    4.3253   11.0343    5.9387 N   0  0  0  0  0  0  0  0  0  0  0  0
    7.3746   11.6949    8.2925 C   0  0  1  0  0  0  0  0  0  0  0  0
    7.9899   12.9195    8.0482 O   0  0  0  0  0  0  0  0  0  0  0  0
  1  2  1  6  0  0  0
  1  5  1  0  0  0  0
  1 29  1  0  0  0  0
  3  4  1  6  0  0  0
  3  7  1  0  0  0  0
  3 34  1  0  0  0  0
  5  6  1  1  0  0  0
  5 16  1  0  0  0  0
  7 19  1  0  0  0  0
  8  4  1  0  0  0  0
  8 24  2  0  0  0  0
  9  8  1  6  0  0  0
  9 10  1  0  0  0  0
  9 13  1  0  0  0  0
 10 11  1  0  0  0  0
 11 12  1  0  0  0  0
 14 15  1  0  0  0  0
 14 35  1  0  0  0  0
 15 17  1  0  0  0  0
 16 18  1  6  0  0  0
 16 25  1  0  0  0  0
 19 20  1  6  0  0  0
 19 27  1  0  0  0  0
 21 22  1  0  0  0  0
 21 23  1  0  0  0  0
 23 17  1  0  0  0  0
 25 26  1  6  0  0  0
 25 28  1  0  0  0  0
 27  2  1  1  0  0  0
 27 30  1  0  0  0  0
 28 29  1  0  0  0  0
 28 32  1  6  0  0  0
 30 31  1  6  0  0  0
 30 34  1  0  0  0  0
 32 33  2  0  0  0  0
 34 35  1  1  0  0  0
M  END
>  <CHROM.1>
113.04101627,67.59632948,116.15160418,-79.69675793,-169.25886387,-22.96453743
-166.00096162,-48.90992465,-157.81014218,173.25494482,-143.33703624,-156.44644898
-166.00317580,6.83737247,10.39840835,8.29924348,3.00249539,-0.31991329,-2.76905555

>  <Name>
2f4t_lig

>  <RI>
0

>  <Rbt.Current_Directory>
/home/itssahil/PROJECTS/Mol_Feturizer/New_Systems/rnas/2f4t

>  <Rbt.Executable>
rbdock ($Id: //depot/dev/client3/rdock/2013.1/src/exe/rbdock.cxx#4 $)

>  <Rbt.Library>
libRbt.so (2013.1, Build901 2013/11/27)

>  <Rbt.Parameter_File>
/export/apps/rDock/src/rDock_2013.1_src/data/scripts/dock_solv.prm

>  <Rbt.Receptor>
prm/blind_docking_20.prm

>  <SCORE>
6.472

>  <SCORE.INTER>
0.138522

>  <SCORE.INTER.CONST>
1

>  <SCORE.INTER.POLAR>
-1.06422

>  <SCORE.INTER.ROT>
13

>  <SCORE.INTER.SOLV>
21.0898

>  <SCORE.INTER.VDW>
-15.6568

>  <SCORE.INTER.norm>
0.00395776

>  <SCORE.INTRA>
3.92934

>  <SCORE.INTRA.DIHEDRAL>
1.0352

>  <SCORE.INTRA.DIHEDRAL.0>
23.8882

>  <SCORE.INTRA.POLAR>
0

>  <SCORE.INTRA.POLAR.0>
0

>  <SCORE.INTRA.REPUL>
0.0594857

>  <SCORE.INTRA.REPUL.0>
0

>  <SCORE.INTRA.SOLV>
7.71987

>  <SCORE.INTRA.SOLV.lig_0>
-97.6888

>  <SCORE.INTRA.VDW>
-0.745619

>  <SCORE.INTRA.VDW.0>
-3.9206

>  <SCORE.INTRA.norm>
0.112267

>  <SCORE.RESTR>
2.40413

>  <SCORE.RESTR.CAVITY>
2.40413

>  <SCORE.RESTR.norm>
0.0686896

>  <SCORE.SYSTEM>
0

>  <SCORE.SYSTEM.CONST>
0

>  <SCORE.SYSTEM.DIHEDRAL>
0

>  <SCORE.SYSTEM.SOLV>
0

>  <SCORE.SYSTEM.norm>
0

>  <SCORE.heavy>
35

>  <SCORE.norm>
0.184914

>  <RMSD>
28.357

$$$$
2f4t_lig
 OpenBabel11021811433D
libRbt.so/2013.1/901 2013/11/27
 35 36  0  0  0  0  0  0  0  0999 V2000
    3.9739    9.8263    9.5965 C   0  0  2  0  0  0  0  0  0  0  0  0
    5.2238    9.1111    9.3256 O   0  0  0  0  0  0  0  0  0  0  0  0
    9.2389    9.8407    7.9101 C   0  0  2  0  0  0  0  0  0  0  0  0
   10.3966   10.5444    7.3379 N   0  0  0  0  0  0  0  0  0  0  0  0
    2.9523    8.7406   10.0516 C   0  0  2  0  0  0  0  0  0  0  0  0
    3.4592    8.0084   11.1885 N   0  0  0  0  0  0  0  0  0  0  0  0
    8.0056   10.0024    6.9477 C   0  0  0  0  0  0  0  0  0  0  0  0
   10.9375    9.7047    5.8814 C   0  0  0  0  0  0  0  0  0  0  0  0
   11.9947   10.7821    5.7825 C   0  0  1  0  0  0  0  0  0  0  0  0
   13.1641   10.2088    4.9790 C   0  0  0  0  0  0  0  0  0  0  0  0
   13.6482    8.8143    5.4106 C   0  0  0  0  0  0  0  0  0  0  0  0
   13.4690    8.6904    6.8602 N   0  0  0  0  0  0  0  0  0  0  0  0
   11.5243   11.8806    5.0462 O   0  0  0  0  0  0  0  0  0  0  0  0
   10.7164   10.3992   11.3641 C   0  0  0  0  0  0  0  0  0  0  0  0
   11.6048   11.6318   11.2927 C   0  0  0  0  0  0  0  0  0  0  0  0
    2.6364    7.7683    8.8653 C   0  0  1  0  0  0  0  0  0  0  0  0
   12.5656   11.6036   10.1681 N   0  0  0  0  0  0  0  0  0  0  0  0
    1.7065    6.7770    9.2564 O   0  0  0  0  0  0  0  0  0  0  0  0
    6.7566    9.2971    7.4945 C   0  0  2  0  0  0  0  0  0  0  0  0
    5.6165    9.4954    6.6052 N   0  0  0  0  0  0  0  0  0  0  0  0
   12.0851   13.7575    9.0013 C   0  0  0  0  0  0  0  0  0  0  0  0
   11.2401   14.5935   10.0157 N   0  0  0  0  0  0  0  0  0  0  0  0
   13.1745   12.8714    9.6746 C   0  0  0  0  0  0  0  0  0  0  0  0
   10.6178    8.8314    5.3577 O   0  0  0  0  0  0  0  0  0  0  0  0
    2.0851    8.6005    7.7029 C   0  0  2  0  0  0  0  0  0  0  0  0
    1.7651    7.7755    6.5944 O   0  0  0  0  0  0  0  0  0  0  0  0
    6.4108    9.8254    8.8643 C   0  0  2  0  0  0  0  0  0  0  0  0
    3.1214    9.6847    7.2885 C   0  0  2  0  0  0  0  0  0  0  0  0
    3.4570   10.5361    8.4039 O   0  0  0  0  0  0  0  0  0  0  0  0
    7.6420    9.6369    9.8510 C   0  0  2  0  0  0  0  0  0  0  0  0
    7.2699   10.1523   11.1643 O   0  0  0  0  0  0  0  0  0  0  0  0
    2.6206   10.5365    6.1837 C   0  0  0  0  0  0  0  0  0  0  0  0
    2.9064    9.9517    4.9996 N   0  0  0  0  0  0  0  0  0  0  0  0
    8.8720   10.4264    9.2826 C   0  0  1  0  0  0  0  0  0  0  0  0
    9.9613   10.3040   10.1406 O   0  0  0  0  0  0  0  0  0  0  0  0
  1  2  1  6  0  0  0
  1  5  1  0  0  0  0
  1 29  1  0  0  0  0
  3  4  1  6  0  0  0
  3  7  1  0  0  0  0
  3 34  1  0  0  0  0
  5  6  1  1  0  0  0
  5 16  1  0  0  0  0
  7 19  1  0  0  0  0
  8  4  1  0  0  0  0
  8 24  2  0  0  0  0
  9  8  1  6  0  0  0
  9 10  1  0  0  0  0
  9 13  1  0  0  0  0
 10 11  1  0  0  0  0
 11 12  1  0  0  0  0
 14 15  1  0  0  0  0
 14 35  1  0  0  0  0
 15 17  1  0  0  0  0
 16 18  1  1  0  0  0
 16 25  1  0  0  0  0
 19 20  1  6  0  0  0
 19 27  1  0  0  0  0
 21 22  1  0  0  0  0
 21 23  1  0  0  0  0
 23 17  1  0  0  0  0
 25 26  1  6  0  0  0
 25 28  1  0  0  0  0
 27  2  1  1  0  0  0
 27 30  1  0  0  0  0
 28 29  1  0  0  0  0
 28 32  1  6  0  0  0
 30 31  1  1  0  0  0
 30 34  1  0  0  0  0
 32 33  2  0  0  0  0
 34 35  1  1  0  0  0
M  END
>  <CHROM.1>
179.60401815,-68.50157206,155.65528070,-48.03239113,-32.97091820,-60.01256109
-99.80304591,159.52025123,82.11853694,-67.79568744,-117.63216359,-86.60130059
-177.51964285,7.79003020,10.01024656,8.17563817,3.12083398,-0.25185308,-1.83240761

>  <Name>
2f4t_lig

>  <RI>
0

>  <Rbt.Current_Directory>
/home/itssahil/PROJECTS/Mol_Feturizer/New_Systems/rnas/2f4t

>  <Rbt.Executable>
rbdock ($Id: //depot/dev/client3/rdock/2013.1/src/exe/rbdock.cxx#4 $)

>  <Rbt.Library>
libRbt.so (2013.1, Build901 2013/11/27)

>  <Rbt.Parameter_File>
/export/apps/rDock/src/rDock_2013.1_src/data/scripts/dock_solv.prm

>  <Rbt.Receptor>
prm/blind_docking_40.prm

>  <SCORE>
6.32452

>  <SCORE.INTER>
-0.66586

>  <SCORE.INTER.CONST>
1

>  <SCORE.INTER.POLAR>
-0.377362

>  <SCORE.INTER.ROT>
13

>  <SCORE.INTER.SOLV>
17.0389

>  <SCORE.INTER.VDW>
-17.1323

>  <SCORE.INTER.norm>
-0.0190246

>  <SCORE.INTRA>
3.97581

>  <SCORE.INTRA.DIHEDRAL>
-3.67652

>  <SCORE.INTRA.DIHEDRAL.0>
23.8882

>  <SCORE.INTRA.POLAR>
0

>  <SCORE.INTRA.POLAR.0>
0

>  <SCORE.INTRA.REPUL>
0.000325314

>  <SCORE.INTRA.REPUL.0>
0

>  <SCORE.INTRA.SOLV>
9.53991

>  <SCORE.INTRA.SOLV.lig_0>
-97.6888

>  <SCORE.INTRA.VDW>
1.04248

>  <SCORE.INTRA.VDW.0>
-3.9206

>  <SCORE.INTRA.norm>
0.113594

>  <SCORE.RESTR>
3.01458

>  <SCORE.RESTR.CAVITY>
3.01458

>  <SCORE.RESTR.norm>
0.0861308

>  <SCORE.SYSTEM>
0

>  <SCORE.SYSTEM.CONST>
0

>  <SCORE.SYSTEM.DIHEDRAL>
0

>  <SCORE.SYSTEM.SOLV>
0

>  <SCORE.SYSTEM.norm>
0

>  <SCORE.heavy>
35

>  <SCORE.norm>
0.180701

>  <RMSD>
28.374

$$$$
2f4t_lig
 OpenBabel11021811433D
libRbt.so/2013.1/901 2013/11/27
 35 36  0  0  0  0  0  0  0  0999 V2000
    4.0005   11.0351   10.0294 C   0  0  2  0  0  0  0  0  0  0  0  0
    5.1898   10.2570   10.3861 O   0  0  0  0  0  0  0  0  0  0  0  0
    9.3087    9.7870    9.1731 C   0  0  2  0  0  0  0  0  0  0  0  0
   10.5000    9.7447    8.3120 N   0  0  0  0  0  0  0  0  0  0  0  0
    2.7847   10.0910   10.2749 C   0  0  2  0  0  0  0  0  0  0  0  0
    2.7775    9.6132   11.6377 N   0  0  0  0  0  0  0  0  0  0  0  0
    8.1773    8.8982    8.5379 C   0  0  0  0  0  0  0  0  0  0  0  0
   10.0076    9.8242    6.6179 C   0  0  0  0  0  0  0  0  0  0  0  0
   11.4844    9.7595    6.2969 C   0  0  1  0  0  0  0  0  0  0  0  0
   11.8181    8.3069    5.9497 C   0  0  0  0  0  0  0  0  0  0  0  0
   11.1114    7.2395    6.8021 C   0  0  0  0  0  0  0  0  0  0  0  0
   11.4710    5.9177    6.2800 N   0  0  0  0  0  0  0  0  0  0  0  0
   11.7811   10.5075    5.1468 O   0  0  0  0  0  0  0  0  0  0  0  0
   10.8492   12.4166   10.7439 C   0  0  0  0  0  0  0  0  0  0  0  0
   11.2789   13.8340   10.3979 C   0  0  0  0  0  0  0  0  0  0  0  0
    2.8240    8.8909    9.2695 C   0  0  1  0  0  0  0  0  0  0  0  0
   11.7540   13.9844    9.0050 N   0  0  0  0  0  0  0  0  0  0  0  0
    1.7254    8.0236    9.4725 O   0  0  0  0  0  0  0  0  0  0  0  0
    6.8978    8.9081    9.3859 C   0  0  2  0  0  0  0  0  0  0  0  0
    5.8506    8.1102    8.7560 N   0  0  0  0  0  0  0  0  0  0  0  0
   11.1894   12.7589    6.9047 C   0  0  0  0  0  0  0  0  0  0  0  0
   10.4176   12.7824    5.5462 N   0  0  0  0  0  0  0  0  0  0  0  0
   10.7861   13.9091    7.8740 C   0  0  0  0  0  0  0  0  0  0  0  0
    9.0697    9.8882    6.1125 O   0  0  0  0  0  0  0  0  0  0  0  0
    2.8088    9.4616    7.8476 C   0  0  2  0  0  0  0  0  0  0  0  0
    2.8304    8.4222    6.8828 O   0  0  0  0  0  0  0  0  0  0  0  0
    6.3987   10.3195    9.5695 C   0  0  2  0  0  0  0  0  0  0  0  0
    4.0234   10.4128    7.6449 C   0  0  2  0  0  0  0  0  0  0  0  0
    4.0164   11.4792    8.6166 O   0  0  0  0  0  0  0  0  0  0  0  0
    7.5261   11.2164   10.2399 C   0  0  2  0  0  0  0  0  0  0  0  0
    7.0070   12.5697   10.4071 O   0  0  0  0  0  0  0  0  0  0  0  0
    4.0363   11.0142    6.2902 C   0  0  0  0  0  0  0  0  0  0  0  0
    4.3959   10.0774    5.3854 N   0  0  0  0  0  0  0  0  0  0  0  0
    8.7868   11.2260    9.3071 C   0  0  1  0  0  0  0  0  0  0  0  0
    9.7846   12.0278    9.8541 O   0  0  0  0  0  0  0  0  0  0  0  0
  1  2  1  6  0  0  0
  1  5  1  0  0  0  0
  1 29  1  0  0  0  0
  3  4  1  6  0  0  0
  3  7  1  0  0  0  0
  3 34  1  0  0  0  0
  5  6  1  1  0  0  0
  5 16  1  0  0  0  0
  7 19  1  0  0  0  0
  8  4  1  0  0  0  0
  8 24  2  0  0  0  0
  9  8  1  6  0  0  0
  9 10  1  0  0  0  0
  9 13  1  0  0  0  0
 10 11  1  0  0  0  0
 11 12  1  0  0  0  0
 14 15  1  0  0  0  0
 14 35  1  0  0  0  0
 15 17  1  0  0  0  0
 16 18  1  6  0  0  0
 16 25  1  0  0  0  0
 19 20  1  6  0  0  0
 19 27  1  0  0  0  0
 21 22  1  0  0  0  0
 21 23  1  0  0  0  0
 23 17  1  0  0  0  0
 25 26  1  6  0  0  0
 25 28  1  0  0  0  0
 27  2  1  1  0  0  0
 27 30  1  0  0  0  0
 28 29  1  0  0  0  0
 28 32  1  6  0  0  0
 30 31  1  6  0  0  0
 30 34  1  0  0  0  0
 32 33  2  0  0  0  0
 34 35  1  1  0  0  0
M  END
>  <CHROM.1>
138.62525282,40.84153196,98.18238756,-39.08944101,176.20947572,-59.21481038
-176.98023539,71.02112457,-168.19231157,-121.34222772,-135.23278911,-73.16115975
-44.65643636,7.55602474,10.37122303,8.31024715,3.13034959,-0.26128247,-2.45447184

>  <Name>
2f4t_lig

>  <RI>
0

>  <Rbt.Current_Directory>
/home/itssahil/PROJECTS/Mol_Feturizer/New_Systems/rnas/2f4t

>  <Rbt.Executable>
rbdock ($Id: //depot/dev/client3/rdock/2013.1/src/exe/rbdock.cxx#4 $)

>  <Rbt.Library>
libRbt.so (2013.1, Build901 2013/11/27)

>  <Rbt.Parameter_File>
/export/apps/rDock/src/rDock_2013.1_src/data/scripts/dock_solv.prm

>  <Rbt.Receptor>
prm/blind_docking_20.prm

>  <SCORE>
11.396

>  <SCORE.INTER>
2.66434

>  <SCORE.INTER.CONST>
1

>  <SCORE.INTER.POLAR>
-1.25096

>  <SCORE.INTER.ROT>
13

>  <SCORE.INTER.SOLV>
18.8486

>  <SCORE.INTER.VDW>
-12.6034

>  <SCORE.INTER.norm>
0.0761239

>  <SCORE.INTRA>
3.85737

>  <SCORE.INTRA.DIHEDRAL>
-3.8101

>  <SCORE.INTRA.DIHEDRAL.0>
23.8882

>  <SCORE.INTRA.POLAR>
0

>  <SCORE.INTRA.POLAR.0>
0

>  <SCORE.INTRA.REPUL>
0

>  <SCORE.INTRA.REPUL.0>
0

>  <SCORE.INTRA.SOLV>
9.28059

>  <SCORE.INTRA.SOLV.lig_0>
-97.6888

>  <SCORE.INTRA.VDW>
1.12213

>  <SCORE.INTRA.VDW.0>
-3.9206

>  <SCORE.INTRA.norm>
0.110211

>  <SCORE.RESTR>
4.8743

>  <SCORE.RESTR.CAVITY>
4.8743

>  <SCORE.RESTR.norm>
0.139266

>  <SCORE.SYSTEM>
0

>  <SCORE.SYSTEM.CONST>
0

>  <SCORE.SYSTEM.DIHEDRAL>
0

>  <SCORE.SYSTEM.SOLV>
0

>  <SCORE.SYSTEM.norm>
0

>  <SCORE.heavy>
35

>  <SCORE.norm>
0.3256

>  <RMSD>
28.390

$$$$
2f4t_lig
 OpenBabel11021811433D
libRbt.so/2013.1/901 2013/11/27
 35 36  0  0  0  0  0  0  0  0999 V2000
   12.0971   10.5933    6.5825 C   0  0  2  0  0  0  0  0  0  0  0  0
   10.8059   10.9491    5.9880 O   0  0  0  0  0  0  0  0  0  0  0  0
    6.6623   11.2733    7.1641 C   0  0  2  0  0  0  0  0  0  0  0  0
    5.3798   10.9566    7.8103 N   0  0  0  0  0  0  0  0  0  0  0  0
   12.5566    9.2934    5.8553 C   0  0  2  0  0  0  0  0  0  0  0  0
   12.6136    9.5012    4.4274 N   0  0  0  0  0  0  0  0  0  0  0  0
    7.1821   10.0050    6.3930 C   0  0  0  0  0  0  0  0  0  0  0  0
    5.5107    9.4130    8.6582 C   0  0  0  0  0  0  0  0  0  0  0  0
    4.0698    9.6347    9.0618 C   0  0  1  0  0  0  0  0  0  0  0  0
    3.4927    8.2792    9.4759 C   0  0  0  0  0  0  0  0  0  0  0  0
    2.1392    8.3265   10.2045 C   0  0  0  0  0  0  0  0  0  0  0  0
    2.3589    8.8521   11.5552 N   0  0  0  0  0  0  0  0  0  0  0  0
    3.9877   10.4515   10.2003 O   0  0  0  0  0  0  0  0  0  0  0  0
    6.3658   13.5983    9.7047 C   0  0  0  0  0  0  0  0  0  0  0  0
    5.7955   12.7393   10.8229 C   0  0  0  0  0  0  0  0  0  0  0  0
   11.5893    8.1119    6.2030 C   0  0  1  0  0  0  0  0  0  0  0  0
    6.7947   11.8481   11.4521 N   0  0  0  0  0  0  0  0  0  0  0  0
   11.9919    6.9203    5.5562 O   0  0  0  0  0  0  0  0  0  0  0  0
    8.5278   10.2666    5.7023 C   0  0  2  0  0  0  0  0  0  0  0  0
    9.0086    9.0646    5.0285 N   0  0  0  0  0  0  0  0  0  0  0  0
    8.1053    9.7436   11.7440 C   0  0  0  0  0  0  0  0  0  0  0  0
    9.4878   10.4388   11.5269 N   0  0  0  0  0  0  0  0  0  0  0  0
    6.9309   10.4369   10.9921 C   0  0  0  0  0  0  0  0  0  0  0  0
    6.2882    8.6935    8.7888 O   0  0  0  0  0  0  0  0  0  0  0  0
   11.5894    7.9297    7.7243 C   0  0  2  0  0  0  0  0  0  0  0  0
   10.7386    6.8617    8.1081 O   0  0  0  0  0  0  0  0  0  0  0  0
    9.5585   10.7127    6.7092 C   0  0  2  0  0  0  0  0  0  0  0  0
   11.1451    9.2505    8.4167 C   0  0  2  0  0  0  0  0  0  0  0  0
   12.0018   10.3485    8.0400 O   0  0  0  0  0  0  0  0  0  0  0  0
    9.0535   12.0127    7.4707 C   0  0  2  0  0  0  0  0  0  0  0  0
   10.0759   12.4177    8.4297 O   0  0  0  0  0  0  0  0  0  0  0  0
   11.1572    9.1329    9.8942 C   0  0  0  0  0  0  0  0  0  0  0  0
   10.2062    8.2557   10.2837 N   0  0  0  0  0  0  0  0  0  0  0  0
    7.7123   11.6772    8.2108 C   0  0  1  0  0  0  0  0  0  0  0  0
    7.2576   12.7904    8.9122 O   0  0  0  0  0  0  0  0  0  0  0  0
  1  2  1  6  0  0  0
  1  5  1  0  0  0  0
  1 29  1  0  0  0  0
  3  4  1  1  0  0  0
  3  7  1  0  0  0  0
  3 34  1  0  0  0  0
  5  6  1  6  0  0  0
  5 16  1  0  0  0  0
  7 19  1  0  0  0  0
  8  4  1  0  0  0  0
  8 24  2  0  0  0  0
  9  8  1  1  0  0  0
  9 10  1  0  0  0  0
  9 13  1  0  0  0  0
 10 11  1  0  0  0  0
 11 12  1  0  0  0  0
 14 15  1  0  0  0  0
 14 35  1  0  0  0  0
 15 17  1  0  0  0  0
 16 18  1  6  0  0  0
 16 25  1  0  0  0  0
 19 20  1  1  0  0  0
 19 27  1  0  0  0  0
 21 22  1  0  0  0  0
 21 23  1  0  0  0  0
 23 17  1  0  0  0  0
 25 26  1  6  0  0  0
 25 28  1  0  0  0  0
 27  2  1  6  0  0  0
 27 30  1  0  0  0  0
 28 29  1  0  0  0  0
 28 32  1  1  0  0  0
 30 31  1  1  0  0  0
 30 34  1  0  0  0  0
 32 33  2  0  0  0  0
 34 35  1  6  0  0  0
M  END
>  <CHROM.1>
104.52544053,47.20051863,160.67557040,167.37732254,-72.20324711,41.58823396
43.78370236,-95.31312984,-59.66141289,176.36668722,-142.15599209,-66.66927058
54.00813440,8.29810038,10.02262741,8.38453807,-0.31710741,0.37833802,0.45227529

>  <Name>
2f4t_lig

>  <RI>
0

>  <Rbt.Current_Directory>
/home/itssahil/PROJECTS/Mol_Feturizer/New_Systems/rnas/2f4t

>  <Rbt.Executable>
rbdock ($Id: //depot/dev/client3/rdock/2013.1/src/exe/rbdock.cxx#4 $)

>  <Rbt.Library>
libRbt.so (2013.1, Build901 2013/11/27)

>  <Rbt.Parameter_File>
/export/apps/rDock/src/rDock_2013.1_src/data/scripts/dock_solv.prm

>  <Rbt.Receptor>
prm/blind_docking_20.prm

>  <SCORE>
8.0104

>  <SCORE.INTER>
-2.59331

>  <SCORE.INTER.CONST>
1

>  <SCORE.INTER.POLAR>
-1.69556

>  <SCORE.INTER.ROT>
13

>  <SCORE.INTER.SOLV>
22.7033

>  <SCORE.INTER.VDW>
-15.9114

>  <SCORE.INTER.norm>
-0.0740946

>  <SCORE.INTRA>
6.01664

>  <SCORE.INTRA.DIHEDRAL>
-5.18445

>  <SCORE.INTRA.DIHEDRAL.0>
23.8882

>  <SCORE.INTRA.POLAR>
0

>  <SCORE.INTRA.POLAR.0>
0

>  <SCORE.INTRA.REPUL>
0

>  <SCORE.INTRA.REPUL.0>
0

>  <SCORE.INTRA.SOLV>
14.6519

>  <SCORE.INTRA.SOLV.lig_0>
-97.6888

>  <SCORE.INTRA.VDW>
1.28293

>  <SCORE.INTRA.VDW.0>
-3.9206

>  <SCORE.INTRA.norm>
0.171904

>  <SCORE.RESTR>
4.58707

>  <SCORE.RESTR.CAVITY>
4.58707

>  <SCORE.RESTR.norm>
0.131059

>  <SCORE.SYSTEM>
0

>  <SCORE.SYSTEM.CONST>
0

>  <SCORE.SYSTEM.DIHEDRAL>
0

>  <SCORE.SYSTEM.SOLV>
0

>  <SCORE.SYSTEM.norm>
0

>  <SCORE.heavy>
35

>  <SCORE.norm>
0.228869

>  <RMSD>
28.448

$$$$
2f4t_lig
 OpenBabel11021811433D
libRbt.so/2013.1/901 2013/11/27
 35 36  0  0  0  0  0  0  0  0999 V2000
   11.0907   10.9730    5.9822 C   0  0  2  0  0  0  0  0  0  0  0  0
   10.0885    9.9070    5.9029 O   0  0  0  0  0  0  0  0  0  0  0  0
    6.2888    9.3116    7.8689 C   0  0  2  0  0  0  0  0  0  0  0  0
    5.3110    9.0139    8.9262 N   0  0  0  0  0  0  0  0  0  0  0  0
   12.3736   10.4024    5.3051 C   0  0  2  0  0  0  0  0  0  0  0  0
   12.0897    9.9732    3.9558 N   0  0  0  0  0  0  0  0  0  0  0  0
    7.3493    8.1521    7.8013 C   0  0  0  0  0  0  0  0  0  0  0  0
    4.1078    7.8749    8.3145 C   0  0  0  0  0  0  0  0  0  0  0  0
    3.4867    7.9573    9.6914 C   0  0  1  0  0  0  0  0  0  0  0  0
    1.9770    7.7673    9.5288 C   0  0  0  0  0  0  0  0  0  0  0  0
    1.1133    8.2665   10.6993 C   0  0  0  0  0  0  0  0  0  0  0  0
    1.4657    9.6632   10.9715 N   0  0  0  0  0  0  0  0  0  0  0  0
    3.9224    6.8978   10.5025 O   0  0  0  0  0  0  0  0  0  0  0  0
    4.8993   12.3618    8.6516 C   0  0  0  0  0  0  0  0  0  0  0  0
    4.3668   11.7098    9.9184 C   0  0  0  0  0  0  0  0  0  0  0  0
   12.9470    9.2168    6.1524 C   0  0  1  0  0  0  0  0  0  0  0  0
    5.4072   11.4717   10.9429 N   0  0  0  0  0  0  0  0  0  0  0  0
   14.1155    8.6872    5.5570 O   0  0  0  0  0  0  0  0  0  0  0  0
    8.4089    8.4078    6.7205 C   0  0  2  0  0  0  0  0  0  0  0  0
    9.4035    7.3398    6.7047 N   0  0  0  0  0  0  0  0  0  0  0  0
    7.2676   13.0758   10.4992 C   0  0  0  0  0  0  0  0  0  0  0  0
    8.3736   12.0024   10.2414 N   0  0  0  0  0  0  0  0  0  0  0  0
    6.1737   12.6178   11.5087 C   0  0  0  0  0  0  0  0  0  0  0  0
    3.9470    7.3849    7.3801 O   0  0  0  0  0  0  0  0  0  0  0  0
   13.2457    9.7404    7.5611 C   0  0  2  0  0  0  0  0  0  0  0  0
   13.7823    8.7149    8.3810 O   0  0  0  0  0  0  0  0  0  0  0  0
    9.1034    9.7242    6.9650 C   0  0  2  0  0  0  0  0  0  0  0  0
   11.9492   10.3189    8.1978 C   0  0  2  0  0  0  0  0  0  0  0  0
   11.3903   11.3665    7.3782 O   0  0  0  0  0  0  0  0  0  0  0  0
    8.0409   10.9052    7.0034 C   0  0  2  0  0  0  0  0  0  0  0  0
    8.7476   12.1605    7.2351 O   0  0  0  0  0  0  0  0  0  0  0  0
   12.1939   10.8657    9.5536 C   0  0  0  0  0  0  0  0  0  0  0  0
   11.5139   10.1340   10.4635 N   0  0  0  0  0  0  0  0  0  0  0  0
    7.0203   10.6307    8.1620 C   0  0  1  0  0  0  0  0  0  0  0  0
    6.0909   11.6641    8.2401 O   0  0  0  0  0  0  0  0  0  0  0  0
  1  2  1  1  0  0  0
  1  5  1  0  0  0  0
  1 29  1  0  0  0  0
  3  4  1  1  0  0  0
  3  7  1  0  0  0  0
  3 34  1  0  0  0  0
  5  6  1  6  0  0  0
  5 16  1  0  0  0  0
  7 19  1  0  0  0  0
  8  4  1  0  0  0  0
  8 24  2  0  0  0  0
  9  8  1  6  0  0  0
  9 10  1  0  0  0  0
  9 13  1  0  0  0  0
 10 11  1  0  0  0  0
 11 12  1  0  0  0  0
 14 15  1  0  0  0  0
 14 35  1  0  0  0  0
 15 17  1  0  0  0  0
 16 18  1  6  0  0  0
 16 25  1  0  0  0  0
 19 20  1  1  0  0  0
 19 27  1  0  0  0  0
 21 22  1  0  0  0  0
 21 23  1  0  0  0  0
 23 17  1  0  0  0  0
 25 26  1  1  0  0  0
 25 28  1  0  0  0  0
 27  2  1  6  0  0  0
 27 30  1  0  0  0  0
 28 29  1  0  0  0  0
 28 32  1  1  0  0  0
 30 31  1  1  0  0  0
 30 34  1  0  0  0  0
 32 33  2  0  0  0  0
 34 35  1  6  0  0  0
M  END
>  <CHROM.1>
146.09580944,-80.85694632,148.42671311,-160.54950367,53.25119169,47.25214397
19.06410694,60.25527796,-64.97299107,-77.70630246,-169.17622458,-114.96333013
49.30191217,7.98021376,9.90389097,8.25131902,-0.13139263,0.31477185,0.59825266

>  <Name>
2f4t_lig

>  <RI>
0

>  <Rbt.Current_Directory>
/home/itssahil/PROJECTS/Mol_Feturizer/New_Systems/rnas/2f4t

>  <Rbt.Executable>
rbdock ($Id: //depot/dev/client3/rdock/2013.1/src/exe/rbdock.cxx#4 $)

>  <Rbt.Library>
libRbt.so (2013.1, Build901 2013/11/27)

>  <Rbt.Parameter_File>
/export/apps/rDock/src/rDock_2013.1_src/data/scripts/dock_solv.prm

>  <Rbt.Receptor>
prm/blind_docking_20.prm

>  <SCORE>
8.3208

>  <SCORE.INTER>
2.10182

>  <SCORE.INTER.CONST>
1

>  <SCORE.INTER.POLAR>
-0.899462

>  <SCORE.INTER.ROT>
13

>  <SCORE.INTER.SOLV>
17.1161

>  <SCORE.INTER.VDW>
-13.5726

>  <SCORE.INTER.norm>
0.060052

>  <SCORE.INTRA>
1.0704

>  <SCORE.INTRA.DIHEDRAL>
-7.76419

>  <SCORE.INTRA.DIHEDRAL.0>
23.8882

>  <SCORE.INTRA.POLAR>
0

>  <SCORE.INTRA.POLAR.0>
0

>  <SCORE.INTRA.REPUL>
0.0448977

>  <SCORE.INTRA.REPUL.0>
0

>  <SCORE.INTRA.SOLV>
10.8273

>  <SCORE.INTRA.SOLV.lig_0>
-97.6888

>  <SCORE.INTRA.VDW>
-0.685655

>  <SCORE.INTRA.VDW.0>
-3.9206

>  <SCORE.INTRA.norm>
0.0305828

>  <SCORE.RESTR>
5.14858

>  <SCORE.RESTR.CAVITY>
5.14858

>  <SCORE.RESTR.norm>
0.147102

>  <SCORE.SYSTEM>
0

>  <SCORE.SYSTEM.CONST>
0

>  <SCORE.SYSTEM.DIHEDRAL>
0

>  <SCORE.SYSTEM.SOLV>
0

>  <SCORE.SYSTEM.norm>
0

>  <SCORE.heavy>
35

>  <SCORE.norm>
0.237737

>  <RMSD>
28.455

$$$$
2f4t_lig
 OpenBabel11021811433D
libRbt.so/2013.1/901 2013/11/27
 35 36  0  0  0  0  0  0  0  0999 V2000
    3.4359   11.3911    9.6583 C   0  0  2  0  0  0  0  0  0  0  0  0
    4.7776   11.0587   10.1446 O   0  0  0  0  0  0  0  0  0  0  0  0
    8.6952   10.2222    8.5291 C   0  0  2  0  0  0  0  0  0  0  0  0
    9.7413    9.6692    7.6558 N   0  0  0  0  0  0  0  0  0  0  0  0
    2.5169   10.2149   10.1074 C   0  0  2  0  0  0  0  0  0  0  0  0
    2.5859   10.0319   11.5382 N   0  0  0  0  0  0  0  0  0  0  0  0
    7.7659    9.0558    9.0284 C   0  0  0  0  0  0  0  0  0  0  0  0
   11.2774    9.6293    8.5262 C   0  0  0  0  0  0  0  0  0  0  0  0
   11.8553    9.0323    7.2621 C   0  0  1  0  0  0  0  0  0  0  0  0
   13.3799    9.0683    7.3897 C   0  0  0  0  0  0  0  0  0  0  0  0
   14.1629    8.8120    6.0911 C   0  0  0  0  0  0  0  0  0  0  0  0
   13.3632    7.9308    5.2349 N   0  0  0  0  0  0  0  0  0  0  0  0
   11.5112    7.6765    7.1448 O   0  0  0  0  0  0  0  0  0  0  0  0
    9.4077   13.4996    7.3462 C   0  0  0  0  0  0  0  0  0  0  0  0
    8.4385   14.6718    7.3375 C   0  0  0  0  0  0  0  0  0  0  0  0
    2.9245    8.8991    9.3624 C   0  0  1  0  0  0  0  0  0  0  0  0
    8.3062   15.3393    8.6511 N   0  0  0  0  0  0  0  0  0  0  0  0
    2.0987    7.8192    9.7527 O   0  0  0  0  0  0  0  0  0  0  0  0
    6.6422    9.5694    9.9395 C   0  0  2  0  0  0  0  0  0  0  0  0
    5.7703    8.4757   10.3565 N   0  0  0  0  0  0  0  0  0  0  0  0
    7.8457   13.9306   10.6598 C   0  0  0  0  0  0  0  0  0  0  0  0
    9.0044   13.0408   10.1052 N   0  0  0  0  0  0  0  0  0  0  0  0
    7.2458   14.9065    9.6048 C   0  0  0  0  0  0  0  0  0  0  0  0
   11.5912    9.9143    9.5057 O   0  0  0  0  0  0  0  0  0  0  0  0
    2.8108    9.1516    7.8555 C   0  0  2  0  0  0  0  0  0  0  0  0
    3.1557    7.9900    7.1183 O   0  0  0  0  0  0  0  0  0  0  0  0
    5.8185   10.6107    9.2239 C   0  0  2  0  0  0  0  0  0  0  0  0
    3.7251   10.3426    7.4468 C   0  0  2  0  0  0  0  0  0  0  0  0
    3.3864   11.5349    8.1851 O   0  0  0  0  0  0  0  0  0  0  0  0
    6.7464   11.8079    8.7436 C   0  0  2  0  0  0  0  0  0  0  0  0
    5.9167   12.7963    8.0626 O   0  0  0  0  0  0  0  0  0  0  0  0
    3.6272   10.6450    5.9991 C   0  0  0  0  0  0  0  0  0  0  0  0
    4.6883   10.1111    5.3551 N   0  0  0  0  0  0  0  0  0  0  0  0
    7.8364   11.2437    7.7675 C   0  0  1  0  0  0  0  0  0  0  0  0
    8.6498   12.2748    7.3059 O   0  0  0  0  0  0  0  0  0  0  0  0
  1  2  1  6  0  0  0
  1  5  1  0  0  0  0
  1 29  1  0  0  0  0
  3  4  1  6  0  0  0
  3  7  1  0  0  0  0
  3 34  1  0  0  0  0
  5  6  1  1  0  0  0
  5 16  1  0  0  0  0
  7 19  1  0  0  0  0
  8  4  1  0  0  0  0
  8 24  2  0  0  0  0
  9  8  1  1  0  0  0
  9 10  1  0  0  0  0
  9 13  1  0  0  0  0
 10 11  1  0  0  0  0
 11 12  1  0  0  0  0
 14 15  1  0  0  0  0
 14 35  1  0  0  0  0
 15 17  1  0  0  0  0
 16 18  1  1  0  0  0
 16 25  1  0  0  0  0
 19 20  1  6  0  0  0
 19 27  1  0  0  0  0
 21 22  1  0  0  0  0
 21 23  1  0  0  0  0
 23 17  1  0  0  0  0
 25 26  1  6  0  0  0
 25 28  1  0  0  0  0
 27  2  1  1  0  0  0
 27 30  1  0  0  0  0
 28 29  1  0  0  0  0
 28 32  1  6  0  0  0
 30 31  1  6  0  0  0
 30 34  1  0  0  0  0
 32 33  2  0  0  0  0
 34 35  1  1  0  0  0
M  END
>  <CHROM.1>
106.19657363,-105.01131880,167.47711589,-166.38554378,-29.70937240,105.59917390
-74.21663466,-91.86264357,-32.41158245,98.00985586,-143.66267194,-100.51739530
-81.99757823,7.16066971,10.63628114,8.39718882,-3.07157409,-0.18186065,-2.92660166

>  <Name>
2f4t_lig

>  <RI>
0

>  <Rbt.Current_Directory>
/home/itssahil/PROJECTS/Mol_Feturizer/New_Systems/rnas/2f4t

>  <Rbt.Executable>
rbdock ($Id: //depot/dev/client3/rdock/2013.1/src/exe/rbdock.cxx#4 $)

>  <Rbt.Library>
libRbt.so (2013.1, Build901 2013/11/27)

>  <Rbt.Parameter_File>
/export/apps/rDock/src/rDock_2013.1_src/data/scripts/dock_solv.prm

>  <Rbt.Receptor>
prm/blind_docking_20.prm

>  <SCORE>
22.1565

>  <SCORE.INTER>
6.60144

>  <SCORE.INTER.CONST>
1

>  <SCORE.INTER.POLAR>
-0.456376

>  <SCORE.INTER.ROT>
13

>  <SCORE.INTER.SOLV>
18.4997

>  <SCORE.INTER.VDW>
-12.511

>  <SCORE.INTER.norm>
0.188613

>  <SCORE.INTRA>
10.1774

>  <SCORE.INTRA.DIHEDRAL>
5.37633

>  <SCORE.INTRA.DIHEDRAL.0>
23.8882

>  <SCORE.INTRA.POLAR>
0

>  <SCORE.INTRA.POLAR.0>
0

>  <SCORE.INTRA.REPUL>
0

>  <SCORE.INTRA.REPUL.0>
0

>  <SCORE.INTRA.SOLV>
15.1699

>  <SCORE.INTRA.SOLV.lig_0>
-97.6888

>  <SCORE.INTRA.VDW>
-0.0956694

>  <SCORE.INTRA.VDW.0>
-3.9206

>  <SCORE.INTRA.norm>
0.290784

>  <SCORE.RESTR>
5.37758

>  <SCORE.RESTR.CAVITY>
5.37758

>  <SCORE.RESTR.norm>
0.153645

>  <SCORE.SYSTEM>
0

>  <SCORE.SYSTEM.CONST>
0

>  <SCORE.SYSTEM.DIHEDRAL>
0

>  <SCORE.SYSTEM.SOLV>
0

>  <SCORE.SYSTEM.norm>
0

>  <SCORE.heavy>
35

>  <SCORE.norm>
0.633041

>  <RMSD>
28.465

$$$$
2f4t_lig
 OpenBabel11021811433D
libRbt.so/2013.1/901 2013/11/27
 35 36  0  0  0  0  0  0  0  0999 V2000
    3.8194   10.2573    9.9119 C   0  0  2  0  0  0  0  0  0  0  0  0
    4.9991    9.4777   10.2961 O   0  0  0  0  0  0  0  0  0  0  0  0
    8.1082   11.4788    8.0631 C   0  0  2  0  0  0  0  0  0  0  0  0
    9.4488   11.9258    7.6561 N   0  0  0  0  0  0  0  0  0  0  0  0
    2.5879    9.3771   10.2839 C   0  0  2  0  0  0  0  0  0  0  0  0
    2.6183    9.0237   11.6838 N   0  0  0  0  0  0  0  0  0  0  0  0
    7.9094   11.7643    9.5969 C   0  0  0  0  0  0  0  0  0  0  0  0
   10.6700   11.0617    8.5947 C   0  0  0  0  0  0  0  0  0  0  0  0
   11.6856   11.8553    7.8029 C   0  0  1  0  0  0  0  0  0  0  0  0
   11.7227   13.2696    8.3862 C   0  0  0  0  0  0  0  0  0  0  0  0
   11.0328   14.3556    7.5437 C   0  0  0  0  0  0  0  0  0  0  0  0
    9.6135   14.3925    7.9087 N   0  0  0  0  0  0  0  0  0  0  0  0
   12.9769   11.3334    7.9776 O   0  0  0  0  0  0  0  0  0  0  0  0
    8.6711    9.8428    5.1370 C   0  0  0  0  0  0  0  0  0  0  0  0
   10.1895    9.8317    5.2266 C   0  0  0  0  0  0  0  0  0  0  0  0
    2.5563    8.0912    9.3906 C   0  0  1  0  0  0  0  0  0  0  0  0
   10.7721    8.4719    5.2208 N   0  0  0  0  0  0  0  0  0  0  0  0
    1.4423    7.2801    9.7094 O   0  0  0  0  0  0  0  0  0  0  0  0
    6.5285   11.3094   10.0895 C   0  0  2  0  0  0  0  0  0  0  0  0
    6.3834   11.5473   11.5221 N   0  0  0  0  0  0  0  0  0  0  0  0
   11.5264    7.0696    7.1433 C   0  0  0  0  0  0  0  0  0  0  0  0
   12.1886    8.2825    7.8727 N   0  0  0  0  0  0  0  0  0  0  0  0
   10.3303    7.4662    6.2282 C   0  0  0  0  0  0  0  0  0  0  0  0
   10.6392   10.3216    9.3631 O   0  0  0  0  0  0  0  0  0  0  0  0
    2.5038    8.5325    7.9243 C   0  0  2  0  0  0  0  0  0  0  0  0
    2.4604    7.4107    7.0574 O   0  0  0  0  0  0  0  0  0  0  0  0
    6.3276    9.8407    9.8110 C   0  0  2  0  0  0  0  0  0  0  0  0
    3.7360    9.4236    7.5942 C   0  0  2  0  0  0  0  0  0  0  0  0
    3.7948   10.5724    8.4650 O   0  0  0  0  0  0  0  0  0  0  0  0
    6.4962    9.5496    8.2580 C   0  0  2  0  0  0  0  0  0  0  0  0
    6.2896    8.1239    8.0260 O   0  0  0  0  0  0  0  0  0  0  0  0
    3.7149    9.9006    6.1910 C   0  0  0  0  0  0  0  0  0  0  0  0
    4.9587   10.2830    5.8270 N   0  0  0  0  0  0  0  0  0  0  0  0
    7.9410    9.9712    7.8176 C   0  0  1  0  0  0  0  0  0  0  0  0
    8.1302    9.7020    6.4650 O   0  0  0  0  0  0  0  0  0  0  0  0
  1  2  1  6  0  0  0
  1  5  1  0  0  0  0
  1 29  1  0  0  0  0
  3  4  1  1  0  0  0
  3  7  1  0  0  0  0
  3 34  1  0  0  0  0
  5  6  1  1  0  0  0
  5 16  1  0  0  0  0
  7 19  1  0  0  0  0
  8  4  1  0  0  0  0
  8 24  2  0  0  0  0
  9  8  1  1  0  0  0
  9 10  1  0  0  0  0
  9 13  1  0  0  0  0
 10 11  1  0  0  0  0
 11 12  1  0  0  0  0
 14 15  1  0  0  0  0
 14 35  1  0  0  0  0
 15 17  1  0  0  0  0
 16 18  1  1  0  0  0
 16 25  1  0  0  0  0
 19 20  1  1  0  0  0
 19 27  1  0  0  0  0
 21 22  1  0  0  0  0
 21 23  1  0  0  0  0
 23 17  1  0  0  0  0
 25 26  1  6  0  0  0
 25 28  1  0  0  0  0
 27  2  1  6  0  0  0
 27 30  1  0  0  0  0
 28 29  1  0  0  0  0
 28 32  1  6  0  0  0
 30 31  1  1  0  0  0
 30 34  1  0  0  0  0
 32 33  2  0  0  0  0
 34 35  1  6  0  0  0
M  END
>  <CHROM.1>
165.22245614,59.42703105,77.14768367,-105.20951335,87.19145480,85.63251273
52.20757235,-55.33723717,56.81209192,-116.52358918,50.78214293,-160.35400940
32.92486574,7.27879735,10.04147305,8.16853520,3.06888011,-0.30801232,-2.47141341

>  <Name>
2f4t_lig

>  <RI>
0

>  <Rbt.Current_Directory>
/home/itssahil/PROJECTS/Mol_Feturizer/New_Systems/rnas/2f4t

>  <Rbt.Executable>
rbdock ($Id: //depot/dev/client3/rdock/2013.1/src/exe/rbdock.cxx#4 $)

>  <Rbt.Library>
libRbt.so (2013.1, Build901 2013/11/27)

>  <Rbt.Parameter_File>
/export/apps/rDock/src/rDock_2013.1_src/data/scripts/dock_solv.prm

>  <Rbt.Receptor>
prm/blind_docking_20.prm

>  <SCORE>
3.68518

>  <SCORE.INTER>
-2.10341

>  <SCORE.INTER.CONST>
1

>  <SCORE.INTER.POLAR>
-0.696604

>  <SCORE.INTER.ROT>
13

>  <SCORE.INTER.SOLV>
18.1726

>  <SCORE.INTER.VDW>
-17.4044

>  <SCORE.INTER.norm>
-0.0600973

>  <SCORE.INTRA>
2.46792

>  <SCORE.INTRA.DIHEDRAL>
-6.19181

>  <SCORE.INTRA.DIHEDRAL.0>
23.8882

>  <SCORE.INTRA.POLAR>
0

>  <SCORE.INTRA.POLAR.0>
0

>  <SCORE.INTRA.REPUL>
0.00379243

>  <SCORE.INTRA.REPUL.0>
0

>  <SCORE.INTRA.SOLV>
11.5704

>  <SCORE.INTRA.SOLV.lig_0>
-97.6888

>  <SCORE.INTRA.VDW>
-0.240345

>  <SCORE.INTRA.VDW.0>
-3.9206

>  <SCORE.INTRA.norm>
0.0705121

>  <SCORE.RESTR>
3.32066

>  <SCORE.RESTR.CAVITY>
3.32066

>  <SCORE.RESTR.norm>
0.0948761

>  <SCORE.SYSTEM>
0

>  <SCORE.SYSTEM.CONST>
0

>  <SCORE.SYSTEM.DIHEDRAL>
0

>  <SCORE.SYSTEM.SOLV>
0

>  <SCORE.SYSTEM.norm>
0

>  <SCORE.heavy>
35

>  <SCORE.norm>
0.105291

>  <RMSD>
28.537

$$$$
2f4t_lig
 OpenBabel11021811433D
libRbt.so/2013.1/901 2013/11/27
 35 36  0  0  0  0  0  0  0  0999 V2000
    4.4650    9.3636    8.1222 C   0  0  2  0  0  0  0  0  0  0  0  0
    5.0381   10.5855    8.6930 O   0  0  0  0  0  0  0  0  0  0  0  0
    8.8761   12.4295    7.9672 C   0  0  2  0  0  0  0  0  0  0  0  0
   10.3158   12.7114    8.0691 N   0  0  0  0  0  0  0  0  0  0  0  0
    2.9254    9.6008    8.0676 C   0  0  2  0  0  0  0  0  0  0  0  0
    2.6198   10.7925    7.3113 N   0  0  0  0  0  0  0  0  0  0  0  0
    8.2441   12.4289    9.4074 C   0  0  0  0  0  0  0  0  0  0  0  0
   11.1600   11.2722    8.6477 C   0  0  0  0  0  0  0  0  0  0  0  0
   12.4218   12.0994    8.5385 C   0  0  1  0  0  0  0  0  0  0  0  0
   13.6038   11.1835    8.8636 C   0  0  0  0  0  0  0  0  0  0  0  0
   13.9174   10.1035    7.8145 C   0  0  0  0  0  0  0  0  0  0  0  0
   13.0341    8.9579    8.0515 N   0  0  0  0  0  0  0  0  0  0  0  0
   12.6239   12.5344    7.2193 O   0  0  0  0  0  0  0  0  0  0  0  0
    9.6123   10.5011    4.7793 C   0  0  0  0  0  0  0  0  0  0  0  0
   11.0970   10.1763    4.8404 C   0  0  0  0  0  0  0  0  0  0  0  0
    2.3453    9.7041    9.5186 C   0  0  1  0  0  0  0  0  0  0  0  0
   11.3843    8.8157    5.3451 N   0  0  0  0  0  0  0  0  0  0  0  0
    0.9470    9.9149    9.4914 O   0  0  0  0  0  0  0  0  0  0  0  0
    6.7391   12.1291    9.3719 C   0  0  2  0  0  0  0  0  0  0  0  0
    6.1841   12.0938   10.7213 N   0  0  0  0  0  0  0  0  0  0  0  0
   10.2203    6.8243    6.2996 C   0  0  0  0  0  0  0  0  0  0  0  0
   11.4118    5.8300    6.1164 N   0  0  0  0  0  0  0  0  0  0  0  0
   10.6653    8.2967    6.5431 C   0  0  0  0  0  0  0  0  0  0  0  0
   10.8569   10.2887    8.9305 O   0  0  0  0  0  0  0  0  0  0  0  0
    2.6837    8.4062   10.2591 C   0  0  2  0  0  0  0  0  0  0  0  0
    2.1737    8.4285   11.5824 O   0  0  0  0  0  0  0  0  0  0  0  0
    6.4818   10.8043    8.6984 C   0  0  2  0  0  0  0  0  0  0  0  0
    4.2248    8.1922   10.2772 C   0  0  2  0  0  0  0  0  0  0  0  0
    4.7613    8.1637    8.9382 O   0  0  0  0  0  0  0  0  0  0  0  0
    7.0904   10.8086    7.2306 C   0  0  2  0  0  0  0  0  0  0  0  0
    6.8179    9.5168    6.6093 O   0  0  0  0  0  0  0  0  0  0  0  0
    4.6013    6.9312   10.9591 C   0  0  0  0  0  0  0  0  0  0  0  0
    4.3194    5.8830   10.1545 N   0  0  0  0  0  0  0  0  0  0  0  0
    8.6364   11.0547    7.3242 C   0  0  1  0  0  0  0  0  0  0  0  0
    9.2049   11.0360    6.0537 O   0  0  0  0  0  0  0  0  0  0  0  0
  1  2  1  1  0  0  0
  1  5  1  0  0  0  0
  1 29  1  0  0  0  0
  3  4  1  1  0  0  0
  3  7  1  0  0  0  0
  3 34  1  0  0  0  0
  5  6  1  6  0  0  0
  5 16  1  0  0  0  0
  7 19  1  0  0  0  0
  8  4  1  0  0  0  0
  8 24  2  0  0  0  0
  9  8  1  6  0  0  0
  9 10  1  0  0  0  0
  9 13  1  0  0  0  0
 10 11  1  0  0  0  0
 11 12  1  0  0  0  0
 14 15  1  0  0  0  0
 14 35  1  0  0  0  0
 15 17  1  0  0  0  0
 16 18  1  6  0  0  0
 16 25  1  0  0  0  0
 19 20  1  1  0  0  0
 19 27  1  0  0  0  0
 21 22  1  0  0  0  0
 21 23  1  0  0  0  0
 23 17  1  0  0  0  0
 25 26  1  1  0  0  0
 25 28  1  0  0  0  0
 27  2  1  6  0  0  0
 27 30  1  0  0  0  0
 28 29  1  0  0  0  0
 28 32  1  6  0  0  0
 30 31  1  1  0  0  0
 30 34  1  0  0  0  0
 32 33  2  0  0  0  0
 34 35  1  6  0  0  0
M  END
>  <CHROM.1>
-170.25523200,75.76811777,-175.34241258,69.91002068,-83.28630216,87.81287070
-101.12145513,-44.66315830,63.96567042,136.46456580,-178.99424397,74.65372698
176.65235868,7.75443730,9.93288212,8.18447367,-3.06679299,0.29730536,0.23064483

>  <Name>
2f4t_lig

>  <RI>
0

>  <Rbt.Current_Directory>
/home/itssahil/PROJECTS/Mol_Feturizer/New_Systems/rnas/2f4t

>  <Rbt.Executable>
rbdock ($Id: //depot/dev/client3/rdock/2013.1/src/exe/rbdock.cxx#4 $)

>  <Rbt.Library>
libRbt.so (2013.1, Build901 2013/11/27)

>  <Rbt.Parameter_File>
/export/apps/rDock/src/rDock_2013.1_src/data/scripts/dock_solv.prm

>  <Rbt.Receptor>
prm/blind_docking_20.prm

>  <SCORE>
-2.10732

>  <SCORE.INTER>
-9.25141

>  <SCORE.INTER.CONST>
1

>  <SCORE.INTER.POLAR>
-2.21195

>  <SCORE.INTER.ROT>
13

>  <SCORE.INTER.SOLV>
20.8202

>  <SCORE.INTER.VDW>
-18.0011

>  <SCORE.INTER.norm>
-0.264326

>  <SCORE.INTRA>
0.965483

>  <SCORE.INTRA.DIHEDRAL>
-9.1822

>  <SCORE.INTRA.DIHEDRAL.0>
23.8882

>  <SCORE.INTRA.POLAR>
0

>  <SCORE.INTRA.POLAR.0>
0

>  <SCORE.INTRA.REPUL>
0

>  <SCORE.INTRA.REPUL.0>
0

>  <SCORE.INTRA.SOLV>
9.195

>  <SCORE.INTRA.SOLV.lig_0>
-97.6888

>  <SCORE.INTRA.VDW>
0.959083

>  <SCORE.INTRA.VDW.0>
-3.9206

>  <SCORE.INTRA.norm>
0.0275852

>  <SCORE.RESTR>
6.17861

>  <SCORE.RESTR.CAVITY>
6.17861

>  <SCORE.RESTR.norm>
0.176532

>  <SCORE.SYSTEM>
0

>  <SCORE.SYSTEM.CONST>
0

>  <SCORE.SYSTEM.DIHEDRAL>
0

>  <SCORE.SYSTEM.SOLV>
0

>  <SCORE.SYSTEM.norm>
0

>  <SCORE.heavy>
35

>  <SCORE.norm>
-0.0602091

>  <RMSD>
28.542

$$$$
2f4t_lig
 OpenBabel11021811433D
libRbt.so/2013.1/901 2013/11/27
 35 36  0  0  0  0  0  0  0  0999 V2000
   10.6747   10.1985    7.1512 C   0  0  2  0  0  0  0  0  0  0  0  0
   10.3035    8.9797    7.8751 O   0  0  0  0  0  0  0  0  0  0  0  0
    6.2378    9.8684    9.0318 C   0  0  2  0  0  0  0  0  0  0  0  0
    4.8912    9.6926    9.5961 N   0  0  0  0  0  0  0  0  0  0  0  0
   11.9320    9.8267    6.3083 C   0  0  2  0  0  0  0  0  0  0  0  0
   11.6531    8.7026    5.4457 N   0  0  0  0  0  0  0  0  0  0  0  0
    6.5541    8.6719    8.0613 C   0  0  0  0  0  0  0  0  0  0  0  0
    3.7708   10.8084    8.8096 C   0  0  0  0  0  0  0  0  0  0  0  0
    2.7102   10.2040    9.7029 C   0  0  1  0  0  0  0  0  0  0  0  0
    2.5939    8.7211    9.3431 C   0  0  0  0  0  0  0  0  0  0  0  0
    2.5711    8.4008    7.8391 C   0  0  0  0  0  0  0  0  0  0  0  0
    2.6370    6.9455    7.6749 N   0  0  0  0  0  0  0  0  0  0  0  0
    3.1060   10.2432   11.0490 O   0  0  0  0  0  0  0  0  0  0  0  0
    6.6035   12.2484   11.4489 C   0  0  0  0  0  0  0  0  0  0  0  0
    7.2409   13.2809   10.5318 C   0  0  0  0  0  0  0  0  0  0  0  0
   13.1394    9.5104    7.2541 C   0  0  1  0  0  0  0  0  0  0  0  0
    6.9118   13.0858    9.1028 N   0  0  0  0  0  0  0  0  0  0  0  0
   14.2931    9.1748    6.5080 O   0  0  0  0  0  0  0  0  0  0  0  0
    7.9549    8.7900    7.4447 C   0  0  2  0  0  0  0  0  0  0  0  0
    8.2404    7.6488    6.5808 N   0  0  0  0  0  0  0  0  0  0  0  0
    8.6866   14.2436    7.7834 C   0  0  0  0  0  0  0  0  0  0  0  0
    9.8441   14.1320    6.7395 N   0  0  0  0  0  0  0  0  0  0  0  0
    8.0018   12.8828    8.1067 C   0  0  0  0  0  0  0  0  0  0  0  0
    3.8639   11.5522    8.0499 O   0  0  0  0  0  0  0  0  0  0  0  0
   13.3967   10.7445    8.1250 C   0  0  2  0  0  0  0  0  0  0  0  0
   14.4915   10.5289    9.0008 O   0  0  0  0  0  0  0  0  0  0  0  0
    9.0024    8.8626    8.5275 C   0  0  2  0  0  0  0  0  0  0  0  0
   12.1167   11.0974    8.9362 C   0  0  2  0  0  0  0  0  0  0  0  0
   10.9924   11.3233    8.0608 O   0  0  0  0  0  0  0  0  0  0  0  0
    8.7069   10.0887    9.4942 C   0  0  2  0  0  0  0  0  0  0  0  0
    9.7411   10.1310   10.5226 O   0  0  0  0  0  0  0  0  0  0  0  0
   12.3072   12.3050    9.7744 C   0  0  0  0  0  0  0  0  0  0  0  0
   11.3033   12.3909   10.6746 N   0  0  0  0  0  0  0  0  0  0  0  0
    7.2949    9.8900   10.1469 C   0  0  1  0  0  0  0  0  0  0  0  0
    7.0176   10.9357   11.0229 O   0  0  0  0  0  0  0  0  0  0  0  0
  1  2  1  1  0  0  0
  1  5  1  0  0  0  0
  1 29  1  0  0  0  0
  3  4  1  1  0  0  0
  3  7  1  0  0  0  0
  3 34  1  0  0  0  0
  5  6  1  1  0  0  0
  5 16  1  0  0  0  0
  7 19  1  0  0  0  0
  8  4  1  0  0  0  0
  8 24  2  0  0  0  0
  9  8  1  6  0  0  0
  9 10  1  0  0  0  0
  9 13  1  0  0  0  0
 10 11  1  0  0  0  0
 11 12  1  0  0  0  0
 14 15  1  0  0  0  0
 14 35  1  0  0  0  0
 15 17  1  0  0  0  0
 16 18  1  6  0  0  0
 16 25  1  0  0  0  0
 19 20  1  6  0  0  0
 19 27  1  0  0  0  0
 21 22  1  0  0  0  0
 21 23  1  0  0  0  0
 23 17  1  0  0  0  0
 25 26  1  1  0  0  0
 25 28  1  0  0  0  0
 27  2  1  6  0  0  0
 27 30  1  0  0  0  0
 28 29  1  0  0  0  0
 28 32  1  6  0  0  0
 30 31  1  1  0  0  0
 30 34  1  0  0  0  0
 32 33  2  0  0  0  0
 34 35  1  1  0  0  0
M  END
>  <CHROM.1>
-165.98493049,-104.52118466,-62.57383461,-44.36754248,172.57560253,57.27310681
-45.14781550,-121.69236851,-179.78506492,-76.96492506,68.97694454,-165.98539806
-38.26692168,8.32399750,10.46412317,8.63580585,0.00534434,-0.17599740,-2.60447493

>  <Name>
2f4t_lig

>  <RI>
0

>  <Rbt.Current_Directory>
/home/itssahil/PROJECTS/Mol_Feturizer/New_Systems/rnas/2f4t

>  <Rbt.Executable>
rbdock ($Id: //depot/dev/client3/rdock/2013.1/src/exe/rbdock.cxx#4 $)

>  <Rbt.Library>
libRbt.so (2013.1, Build901 2013/11/27)

>  <Rbt.Parameter_File>
/export/apps/rDock/src/rDock_2013.1_src/data/scripts/dock_solv.prm

>  <Rbt.Receptor>
prm/blind_docking_20.prm

>  <SCORE>
6.27008

>  <SCORE.INTER>
1.93687

>  <SCORE.INTER.CONST>
1

>  <SCORE.INTER.POLAR>
-0.864283

>  <SCORE.INTER.ROT>
13

>  <SCORE.INTER.SOLV>
14.3211

>  <SCORE.INTER.VDW>
-12.8682

>  <SCORE.INTER.norm>
0.0553391

>  <SCORE.INTRA>
-1.77706

>  <SCORE.INTRA.DIHEDRAL>
-13.3881

>  <SCORE.INTRA.DIHEDRAL.0>
23.8882

>  <SCORE.INTRA.POLAR>
0

>  <SCORE.INTRA.POLAR.0>
0

>  <SCORE.INTRA.REPUL>
0

>  <SCORE.INTRA.REPUL.0>
0

>  <SCORE.INTRA.SOLV>
6.37491

>  <SCORE.INTRA.SOLV.lig_0>
-97.6888

>  <SCORE.INTRA.VDW>
1.72954

>  <SCORE.INTRA.VDW.0>
-3.9206

>  <SCORE.INTRA.norm>
-0.0507732

>  <SCORE.RESTR>
6.11027

>  <SCORE.RESTR.CAVITY>
6.11027

>  <SCORE.RESTR.norm>
0.174579

>  <SCORE.SYSTEM>
0

>  <SCORE.SYSTEM.CONST>
0

>  <SCORE.SYSTEM.DIHEDRAL>
0

>  <SCORE.SYSTEM.SOLV>
0

>  <SCORE.SYSTEM.norm>
0

>  <SCORE.heavy>
35

>  <SCORE.norm>
0.179145

>  <RMSD>
28.651

$$$$
2f4t_lig
 OpenBabel11021811433D
libRbt.so/2013.1/901 2013/11/27
 35 36  0  0  0  0  0  0  0  0999 V2000
    3.4090   10.9108    9.8087 C   0  0  2  0  0  0  0  0  0  0  0  0
    4.7332   10.5501   10.3220 O   0  0  0  0  0  0  0  0  0  0  0  0
    8.7996   10.6863    8.8718 C   0  0  2  0  0  0  0  0  0  0  0  0
    9.9677   10.4576    8.0081 N   0  0  0  0  0  0  0  0  0  0  0  0
    2.4543    9.7595   10.2477 C   0  0  2  0  0  0  0  0  0  0  0  0
    2.4924    9.5843   11.6806 N   0  0  0  0  0  0  0  0  0  0  0  0
    8.0990    9.3106    9.1721 C   0  0  0  0  0  0  0  0  0  0  0  0
    9.5088    9.4174    6.6568 C   0  0  0  0  0  0  0  0  0  0  0  0
   10.9451    9.5552    6.2025 C   0  0  1  0  0  0  0  0  0  0  0  0
   11.8006    8.6556    7.0975 C   0  0  0  0  0  0  0  0  0  0  0  0
   11.4226    7.1649    7.0987 C   0  0  0  0  0  0  0  0  0  0  0  0
   11.6787    6.6215    5.7614 N   0  0  0  0  0  0  0  0  0  0  0  0
   11.1077    9.0653    4.8973 O   0  0  0  0  0  0  0  0  0  0  0  0
    8.5088   14.2444    7.6401 C   0  0  0  0  0  0  0  0  0  0  0  0
    9.8248   14.5092    6.9250 C   0  0  0  0  0  0  0  0  0  0  0  0
    2.8444    8.4297    9.5185 C   0  0  1  0  0  0  0  0  0  0  0  0
   10.9986   13.9277    7.6125 N   0  0  0  0  0  0  0  0  0  0  0  0
    1.9862    7.3721    9.8998 O   0  0  0  0  0  0  0  0  0  0  0  0
    6.8611    9.4813   10.0637 C   0  0  2  0  0  0  0  0  0  0  0  0
    6.2058    8.1978   10.2945 N   0  0  0  0  0  0  0  0  0  0  0  0
   11.6161   12.6615    5.5517 C   0  0  0  0  0  0  0  0  0  0  0  0
   12.4339   11.4842    4.9296 N   0  0  0  0  0  0  0  0  0  0  0  0
   11.6084   12.6643    7.1090 C   0  0  0  0  0  0  0  0  0  0  0  0
    8.6045    8.9384    6.3535 O   0  0  0  0  0  0  0  0  0  0  0  0
    2.7647    8.6750    8.0081 C   0  0  2  0  0  0  0  0  0  0  0  0
    3.0956    7.5007    7.2846 O   0  0  0  0  0  0  0  0  0  0  0  0
    5.8776   10.4286    9.4232 C   0  0  2  0  0  0  0  0  0  0  0  0
    3.7143    9.8413    7.6094 C   0  0  2  0  0  0  0  0  0  0  0  0
    3.3903   11.0462    8.3340 O   0  0  0  0  0  0  0  0  0  0  0  0
    6.5698   11.8316    9.1453 C   0  0  2  0  0  0  0  0  0  0  0  0
    5.5894   12.7218    8.5326 O   0  0  0  0  0  0  0  0  0  0  0  0
    3.6505   10.1365    6.1583 C   0  0  0  0  0  0  0  0  0  0  0  0
    4.8544   10.5815    5.7362 N   0  0  0  0  0  0  0  0  0  0  0  0
    7.7873   11.6134    8.1812 C   0  0  1  0  0  0  0  0  0  0  0  0
    8.3994   12.8305    7.8951 O   0  0  0  0  0  0  0  0  0  0  0  0
  1  2  1  6  0  0  0
  1  5  1  0  0  0  0
  1 29  1  0  0  0  0
  3  4  1  6  0  0  0
  3  7  1  0  0  0  0
  3 34  1  0  0  0  0
  5  6  1  1  0  0  0
  5 16  1  0  0  0  0
  7 19  1  0  0  0  0
  8  4  1  0  0  0  0
  8 24  2  0  0  0  0
  9  8  1  1  0  0  0
  9 10  1  0  0  0  0
  9 13  1  0  0  0  0
 10 11  1  0  0  0  0
 11 12  1  0  0  0  0
 14 15  1  0  0  0  0
 14 35  1  0  0  0  0
 15 17  1  0  0  0  0
 16 18  1  1  0  0  0
 16 25  1  0  0  0  0
 19 20  1  6  0  0  0
 19 27  1  0  0  0  0
 21 22  1  0  0  0  0
 21 23  1  0  0  0  0
 23 17  1  0  0  0  0
 25 26  1  6  0  0  0
 25 28  1  0  0  0  0
 27  2  1  1  0  0  0
 27 30  1  0  0  0  0
 28 29  1  0  0  0  0
 28 32  1  6  0  0  0
 30 31  1  6  0  0  0
 30 34  1  0  0  0  0
 32 33  2  0  0  0  0
 34 35  1  1  0  0  0
M  END
>  <CHROM.1>
123.17411346,47.99921839,76.30377724,58.23728707,65.50948945,-51.93132694
-160.12567309,102.00731940,170.97531780,39.13805039,-154.36574654,-148.56658772
-153.47081464,7.23548313,10.30892282,7.93275545,3.01294505,-0.36416107,-3.01482965

>  <Name>
2f4t_lig

>  <RI>
0

>  <Rbt.Current_Directory>
/home/itssahil/PROJECTS/Mol_Feturizer/New_Systems/rnas/2f4t

>  <Rbt.Executable>
rbdock ($Id: //depot/dev/client3/rdock/2013.1/src/exe/rbdock.cxx#4 $)

>  <Rbt.Library>
libRbt.so (2013.1, Build901 2013/11/27)

>  <Rbt.Parameter_File>
/export/apps/rDock/src/rDock_2013.1_src/data/scripts/dock_solv.prm

>  <Rbt.Receptor>
prm/blind_docking_20.prm

>  <SCORE>
2.06281

>  <SCORE.INTER>
-6.59233

>  <SCORE.INTER.CONST>
1

>  <SCORE.INTER.POLAR>
-1.98998

>  <SCORE.INTER.ROT>
13

>  <SCORE.INTER.SOLV>
18.572

>  <SCORE.INTER.VDW>
-16.219

>  <SCORE.INTER.norm>
-0.188352

>  <SCORE.INTRA>
5.21521

>  <SCORE.INTRA.DIHEDRAL>
-4.72431

>  <SCORE.INTRA.DIHEDRAL.0>
23.8882

>  <SCORE.INTRA.POLAR>
0

>  <SCORE.INTRA.POLAR.0>
0

>  <SCORE.INTRA.REPUL>
0.0335031

>  <SCORE.INTRA.REPUL.0>
0

>  <SCORE.INTRA.SOLV>
10.5893

>  <SCORE.INTRA.SOLV.lig_0>
-97.6888

>  <SCORE.INTRA.VDW>
2.11522

>  <SCORE.INTRA.VDW.0>
-3.9206

>  <SCORE.INTRA.norm>
0.149006

>  <SCORE.RESTR>
3.43993

>  <SCORE.RESTR.CAVITY>
3.43993

>  <SCORE.RESTR.norm>
0.0982837

>  <SCORE.SYSTEM>
0

>  <SCORE.SYSTEM.CONST>
0

>  <SCORE.SYSTEM.DIHEDRAL>
0

>  <SCORE.SYSTEM.SOLV>
0

>  <SCORE.SYSTEM.norm>
0

>  <SCORE.heavy>
35

>  <SCORE.norm>
0.0589375

>  <RMSD>
28.655

$$$$
2f4t_lig
 OpenBabel11021811433D
libRbt.so/2013.1/901 2013/11/27
 35 36  0  0  0  0  0  0  0  0999 V2000
   10.1149    9.3966    9.9545 C   0  0  2  0  0  0  0  0  0  0  0  0
    9.2741   10.5391    9.5871 O   0  0  0  0  0  0  0  0  0  0  0  0
    5.4403   11.3818    7.7846 C   0  0  2  0  0  0  0  0  0  0  0  0
    4.2438   11.2261    6.9439 N   0  0  0  0  0  0  0  0  0  0  0  0
   11.4772   10.0003   10.4119 C   0  0  2  0  0  0  0  0  0  0  0  0
   11.2809   10.9447   11.4867 N   0  0  0  0  0  0  0  0  0  0  0  0
    6.7257   11.2075    6.8953 C   0  0  0  0  0  0  0  0  0  0  0  0
    3.8751    9.5096    6.7530 C   0  0  0  0  0  0  0  0  0  0  0  0
    2.7006    9.9649    5.9156 C   0  0  1  0  0  0  0  0  0  0  0  0
    3.2377   10.3407    4.5328 C   0  0  0  0  0  0  0  0  0  0  0  0
    2.2199   10.9828    3.5752 C   0  0  0  0  0  0  0  0  0  0  0  0
    2.8298   11.0745    2.2453 N   0  0  0  0  0  0  0  0  0  0  0  0
    1.7971    8.9117    5.7039 O   0  0  0  0  0  0  0  0  0  0  0  0
    3.3095   10.0906   10.6402 C   0  0  0  0  0  0  0  0  0  0  0  0
    2.4930    8.9405   10.0708 C   0  0  0  0  0  0  0  0  0  0  0  0
   12.1963   10.6843    9.2006 C   0  0  1  0  0  0  0  0  0  0  0  0
    3.2893    7.7204    9.8143 N   0  0  0  0  0  0  0  0  0  0  0  0
   13.4383   11.2351    9.5938 O   0  0  0  0  0  0  0  0  0  0  0  0
    8.0142   11.3483    7.7177 C   0  0  2  0  0  0  0  0  0  0  0  0
    9.1910   11.1424    6.8794 N   0  0  0  0  0  0  0  0  0  0  0  0
    3.5711    5.3752    9.0068 C   0  0  0  0  0  0  0  0  0  0  0  0
    3.1517    4.2677    7.9873 N   0  0  0  0  0  0  0  0  0  0  0  0
    2.8312    6.7297    8.7994 C   0  0  0  0  0  0  0  0  0  0  0  0
    4.3216    8.6043    7.0998 O   0  0  0  0  0  0  0  0  0  0  0  0
   12.3929    9.6291    8.1072 C   0  0  2  0  0  0  0  0  0  0  0  0
   13.0535   10.1820    6.9804 O   0  0  0  0  0  0  0  0  0  0  0  0
    8.0311   10.3469    8.8455 C   0  0  2  0  0  0  0  0  0  0  0  0
   11.0166    9.0353    7.6895 C   0  0  2  0  0  0  0  0  0  0  0  0
   10.3309    8.4650    8.8236 O   0  0  0  0  0  0  0  0  0  0  0  0
    6.7506   10.5377    9.7668 C   0  0  2  0  0  0  0  0  0  0  0  0
    6.8039    9.5586   10.8474 O   0  0  0  0  0  0  0  0  0  0  0  0
   11.1576    7.9863    6.6519 C   0  0  0  0  0  0  0  0  0  0  0  0
   11.0237    6.7686    7.2220 N   0  0  0  0  0  0  0  0  0  0  0  0
    5.4640   10.3217    8.8966 C   0  0  1  0  0  0  0  0  0  0  0  0
    4.3229   10.4546    9.6828 O   0  0  0  0  0  0  0  0  0  0  0  0
  1  2  1  6  0  0  0
  1  5  1  0  0  0  0
  1 29  1  0  0  0  0
  3  4  1  6  0  0  0
  3  7  1  0  0  0  0
  3 34  1  0  0  0  0
  5  6  1  1  0  0  0
  5 16  1  0  0  0  0
  7 19  1  0  0  0  0
  8  4  1  0  0  0  0
  8 24  2  0  0  0  0
  9  8  1  1  0  0  0
  9 10  1  0  0  0  0
  9 13  1  0  0  0  0
 10 11  1  0  0  0  0
 11 12  1  0  0  0  0
 14 15  1  0  0  0  0
 14 35  1  0  0  0  0
 15 17  1  0  0  0  0
 16 18  1  1  0  0  0
 16 25  1  0  0  0  0
 19 20  1  6  0  0  0
 19 27  1  0  0  0  0
 21 22  1  0  0  0  0
 21 23  1  0  0  0  0
 23 17  1  0  0  0  0
 25 26  1  6  0  0  0
 25 28  1  0  0  0  0
 27  2  1  1  0  0  0
 27 30  1  0  0  0  0
 28 29  1  0  0  0  0
 28 32  1  6  0  0  0
 30 31  1  1  0  0  0
 30 34  1  0  0  0  0
 32 33  2  0  0  0  0
 34 35  1  1  0  0  0
M  END
>  <CHROM.1>
166.82066022,82.98198136,78.29181336,-173.35068645,-170.85677840,61.58991622
-66.65027250,-155.56754889,179.83113449,-163.24529110,-132.86838066,102.79926934
163.54562805,6.89655439,9.56282634,8.07263721,0.15367158,0.19806789,2.05292749

>  <Name>
2f4t_lig

>  <RI>
0

>  <Rbt.Current_Directory>
/home/itssahil/PROJECTS/Mol_Feturizer/New_Systems/rnas/2f4t

>  <Rbt.Executable>
rbdock ($Id: //depot/dev/client3/rdock/2013.1/src/exe/rbdock.cxx#4 $)

>  <Rbt.Library>
libRbt.so (2013.1, Build901 2013/11/27)

>  <Rbt.Parameter_File>
/export/apps/rDock/src/rDock_2013.1_src/data/scripts/dock_solv.prm

>  <Rbt.Receptor>
prm/blind_docking_20.prm

>  <SCORE>
6.97897

>  <SCORE.INTER>
4.86872

>  <SCORE.INTER.CONST>
1

>  <SCORE.INTER.POLAR>
0

>  <SCORE.INTER.ROT>
13

>  <SCORE.INTER.SOLV>
14.9089

>  <SCORE.INTER.VDW>
-13.9905

>  <SCORE.INTER.norm>
0.139106

>  <SCORE.INTRA>
-2.96264

>  <SCORE.INTRA.DIHEDRAL>
-11.4852

>  <SCORE.INTRA.DIHEDRAL.0>
23.8882

>  <SCORE.INTRA.POLAR>
0

>  <SCORE.INTRA.POLAR.0>
0

>  <SCORE.INTRA.REPUL>
0

>  <SCORE.INTRA.REPUL.0>
0

>  <SCORE.INTRA.SOLV>
4.68133

>  <SCORE.INTRA.SOLV.lig_0>
-97.6888

>  <SCORE.INTRA.VDW>
0.439274

>  <SCORE.INTRA.VDW.0>
-3.9206

>  <SCORE.INTRA.norm>
-0.084647

>  <SCORE.RESTR>
5.0729

>  <SCORE.RESTR.CAVITY>
5.0729

>  <SCORE.RESTR.norm>
0.14494

>  <SCORE.SYSTEM>
0

>  <SCORE.SYSTEM.CONST>
0

>  <SCORE.SYSTEM.DIHEDRAL>
0

>  <SCORE.SYSTEM.SOLV>
0

>  <SCORE.SYSTEM.norm>
0

>  <SCORE.heavy>
35

>  <SCORE.norm>
0.199399

>  <RMSD>
28.673

$$$$
2f4t_lig
 OpenBabel11021811433D
libRbt.so/2013.1/901 2013/11/27
 35 36  0  0  0  0  0  0  0  0999 V2000
   11.2270    9.4846    9.0580 C   0  0  2  0  0  0  0  0  0  0  0  0
   10.3496   10.4610    8.4070 O   0  0  0  0  0  0  0  0  0  0  0  0
    6.3046    9.6944    9.7137 C   0  0  2  0  0  0  0  0  0  0  0  0
    4.9813    9.9145   10.3163 N   0  0  0  0  0  0  0  0  0  0  0  0
   12.6811    9.9024    8.6830 C   0  0  2  0  0  0  0  0  0  0  0  0
   12.9376   11.2670    9.0798 N   0  0  0  0  0  0  0  0  0  0  0  0
    7.4191   10.1017   10.7459 C   0  0  0  0  0  0  0  0  0  0  0  0
    3.9835    8.4746   10.0930 C   0  0  0  0  0  0  0  0  0  0  0  0
    2.9092    9.2343   10.8393 C   0  0  1  0  0  0  0  0  0  0  0  0
    1.9939    9.8821    9.7979 C   0  0  0  0  0  0  0  0  0  0  0  0
    2.1877   11.3934    9.5895 C   0  0  0  0  0  0  0  0  0  0  0  0
    3.5419   11.6198    9.0757 N   0  0  0  0  0  0  0  0  0  0  0  0
    2.0952    8.3592   11.5753 O   0  0  0  0  0  0  0  0  0  0  0  0
    4.7765   10.1777    6.2733 C   0  0  0  0  0  0  0  0  0  0  0  0
    3.3316    9.7816    6.5359 C   0  0  0  0  0  0  0  0  0  0  0  0
   12.9128    9.7220    7.1448 C   0  0  1  0  0  0  0  0  0  0  0  0
    2.4864    9.7896    5.3218 N   0  0  0  0  0  0  0  0  0  0  0  0
   14.2295   10.0917    6.7839 O   0  0  0  0  0  0  0  0  0  0  0  0
    8.8295    9.9052   10.1726 C   0  0  2  0  0  0  0  0  0  0  0  0
    9.8443   10.3278   11.1327 N   0  0  0  0  0  0  0  0  0  0  0  0
    2.8263   11.4338    3.4745 C   0  0  0  0  0  0  0  0  0  0  0  0
    3.2279   12.5467    4.4953 N   0  0  0  0  0  0  0  0  0  0  0  0
    3.1072    9.9883    3.9815 C   0  0  0  0  0  0  0  0  0  0  0  0
    4.1318    7.5248    9.6292 O   0  0  0  0  0  0  0  0  0  0  0  0
   12.6458    8.2549    6.7929 C   0  0  2  0  0  0  0  0  0  0  0  0
   12.8509    8.0188    5.4094 O   0  0  0  0  0  0  0  0  0  0  0  0
    8.9955   10.6971    8.8996 C   0  0  2  0  0  0  0  0  0  0  0  0
   11.1942    7.8680    7.1980 C   0  0  2  0  0  0  0  0  0  0  0  0
   10.9680    8.0988    8.6042 O   0  0  0  0  0  0  0  0  0  0  0  0
    7.8916   10.2684    7.8401 C   0  0  2  0  0  0  0  0  0  0  0  0
    8.0864   11.0487    6.6226 O   0  0  0  0  0  0  0  0  0  0  0  0
   10.8969    6.4461    6.9035 C   0  0  0  0  0  0  0  0  0  0  0  0
   11.2262    6.1737    5.6216 N   0  0  0  0  0  0  0  0  0  0  0  0
    6.4724   10.5471    8.4465 C   0  0  1  0  0  0  0  0  0  0  0  0
    5.4816   10.2076    7.5295 O   0  0  0  0  0  0  0  0  0  0  0  0
  1  2  1  6  0  0  0
  1  5  1  0  0  0  0
  1 29  1  0  0  0  0
  3  4  1  1  0  0  0
  3  7  1  0  0  0  0
  3 34  1  0  0  0  0
  5  6  1  6  0  0  0
  5 16  1  0  0  0  0
  7 19  1  0  0  0  0
  8  4  1  0  0  0  0
  8 24  2  0  0  0  0
  9  8  1  6  0  0  0
  9 10  1  0  0  0  0
  9 13  1  0  0  0  0
 10 11  1  0  0  0  0
 11 12  1  0  0  0  0
 14 15  1  0  0  0  0
 14 35  1  0  0  0  0
 15 17  1  0  0  0  0
 16 18  1  1  0  0  0
 16 25  1  0  0  0  0
 19 20  1  1  0  0  0
 19 27  1  0  0  0  0
 21 22  1  0  0  0  0
 21 23  1  0  0  0  0
 23 17  1  0  0  0  0
 25 26  1  6  0  0  0
 25 28  1  0  0  0  0
 27  2  1  6  0  0  0
 27 30  1  0  0  0  0
 28 29  1  0  0  0  0
 28 32  1  1  0  0  0
 30 31  1  6  0  0  0
 30 34  1  0  0  0  0
 32 33  2  0  0  0  0
 34 35  1  6  0  0  0
M  END
>  <CHROM.1>
-157.50240506,-131.04462281,96.04309708,-103.91200928,63.23058204,176.81733736
-158.54374459,7.96322664,52.60562304,-104.54129807,5.95447558,-51.13111179
-170.61901572,7.40141243,9.67606753,8.03298965,-0.04248282,-0.11877577,1.65884909

>  <Name>
2f4t_lig

>  <RI>
0

>  <Rbt.Current_Directory>
/home/itssahil/PROJECTS/Mol_Feturizer/New_Systems/rnas/2f4t

>  <Rbt.Executable>
rbdock ($Id: //depot/dev/client3/rdock/2013.1/src/exe/rbdock.cxx#4 $)

>  <Rbt.Library>
libRbt.so (2013.1, Build901 2013/11/27)

>  <Rbt.Parameter_File>
/export/apps/rDock/src/rDock_2013.1_src/data/scripts/dock_solv.prm

>  <Rbt.Receptor>
prm/blind_docking_20.prm

>  <SCORE>
7.28396

>  <SCORE.INTER>
-6.93977

>  <SCORE.INTER.CONST>
1

>  <SCORE.INTER.POLAR>
-1.38494

>  <SCORE.INTER.ROT>
13

>  <SCORE.INTER.SOLV>
17.1236

>  <SCORE.INTER.VDW>
-17.9846

>  <SCORE.INTER.norm>
-0.198279

>  <SCORE.INTRA>
10.4558

>  <SCORE.INTRA.DIHEDRAL>
-0.630329

>  <SCORE.INTRA.DIHEDRAL.0>
23.8882

>  <SCORE.INTRA.POLAR>
0

>  <SCORE.INTRA.POLAR.0>
0

>  <SCORE.INTRA.REPUL>
0

>  <SCORE.INTRA.REPUL.0>
0

>  <SCORE.INTRA.SOLV>
11.836

>  <SCORE.INTRA.SOLV.lig_0>
-97.6888

>  <SCORE.INTRA.VDW>
4.85301

>  <SCORE.INTRA.VDW.0>
-3.9206

>  <SCORE.INTRA.norm>
0.298738

>  <SCORE.RESTR>
3.7679

>  <SCORE.RESTR.CAVITY>
3.7679

>  <SCORE.RESTR.norm>
0.107654

>  <SCORE.SYSTEM>
0

>  <SCORE.SYSTEM.CONST>
0

>  <SCORE.SYSTEM.DIHEDRAL>
0

>  <SCORE.SYSTEM.SOLV>
0

>  <SCORE.SYSTEM.norm>
0

>  <SCORE.heavy>
35

>  <SCORE.norm>
0.208113

>  <RMSD>
28.677

$$$$
2f4t_lig
 OpenBabel11021811433D
libRbt.so/2013.1/901 2013/11/27
 35 36  0  0  0  0  0  0  0  0999 V2000
    4.4731   11.2813    8.9224 C   0  0  2  0  0  0  0  0  0  0  0  0
    5.7474   10.9959    9.5872 O   0  0  0  0  0  0  0  0  0  0  0  0
    9.8770   10.5607    8.3979 C   0  0  2  0  0  0  0  0  0  0  0  0
   11.0666   10.0662    7.6887 N   0  0  0  0  0  0  0  0  0  0  0  0
    3.4180   11.4111   10.0624 C   0  0  2  0  0  0  0  0  0  0  0  0
    3.8157   12.4237   11.0120 N   0  0  0  0  0  0  0  0  0  0  0  0
    9.0754    9.3395    8.9808 C   0  0  0  0  0  0  0  0  0  0  0  0
   10.6349    9.6542    6.0266 C   0  0  0  0  0  0  0  0  0  0  0  0
   12.0894    9.2754    5.8562 C   0  0  1  0  0  0  0  0  0  0  0  0
   12.1966    7.7602    6.0417 C   0  0  0  0  0  0  0  0  0  0  0  0
   11.4566    7.1848    7.2609 C   0  0  0  0  0  0  0  0  0  0  0  0
   11.9949    7.8163    8.4694 N   0  0  0  0  0  0  0  0  0  0  0  0
   12.5252    9.5343    4.5472 O   0  0  0  0  0  0  0  0  0  0  0  0
   10.5968   13.1138    6.0603 C   0  0  0  0  0  0  0  0  0  0  0  0
   10.7975   14.5170    6.6118 C   0  0  0  0  0  0  0  0  0  0  0  0
    3.2246   10.0307   10.7760 C   0  0  1  0  0  0  0  0  0  0  0  0
   11.1405   14.5433    8.0506 N   0  0  0  0  0  0  0  0  0  0  0  0
    2.2664   10.1257   11.8120 O   0  0  0  0  0  0  0  0  0  0  0  0
    7.8112    9.7883    9.7269 C   0  0  2  0  0  0  0  0  0  0  0  0
    7.0639    8.6368   10.2228 N   0  0  0  0  0  0  0  0  0  0  0  0
    8.8276   14.6052    8.9879 C   0  0  0  0  0  0  0  0  0  0  0  0
    8.0533   14.8587    7.6544 N   0  0  0  0  0  0  0  0  0  0  0  0
   10.2481   15.2429    9.0180 C   0  0  0  0  0  0  0  0  0  0  0  0
    9.7321    9.6829    5.4580 O   0  0  0  0  0  0  0  0  0  0  0  0
    2.7847    9.0087    9.7226 C   0  0  2  0  0  0  0  0  0  0  0  0
    2.5786    7.7330   10.3074 O   0  0  0  0  0  0  0  0  0  0  0  0
    6.9219   10.5978    8.8165 C   0  0  2  0  0  0  0  0  0  0  0  0
    3.8504    8.9197    8.5925 C   0  0  2  0  0  0  0  0  0  0  0  0
    4.0711   10.2089    7.9834 O   0  0  0  0  0  0  0  0  0  0  0  0
    7.7160   11.8514    8.2481 C   0  0  2  0  0  0  0  0  0  0  0  0
    6.8248   12.6124    7.3787 O   0  0  0  0  0  0  0  0  0  0  0  0
    3.4550    7.9627    7.5320 C   0  0  0  0  0  0  0  0  0  0  0  0
    3.6790    6.7003    7.9586 N   0  0  0  0  0  0  0  0  0  0  0  0
    8.9601   11.3398    7.4422 C   0  0  1  0  0  0  0  0  0  0  0  0
    9.6626   12.4156    6.9063 O   0  0  0  0  0  0  0  0  0  0  0  0
  1  2  1  1  0  0  0
  1  5  1  0  0  0  0
  1 29  1  0  0  0  0
  3  4  1  6  0  0  0
  3  7  1  0  0  0  0
  3 34  1  0  0  0  0
  5  6  1  1  0  0  0
  5 16  1  0  0  0  0
  7 19  1  0  0  0  0
  8  4  1  0  0  0  0
  8 24  2  0  0  0  0
  9  8  1  6  0  0  0
  9 10  1  0  0  0  0
  9 13  1  0  0  0  0
 10 11  1  0  0  0  0
 11 12  1  0  0  0  0
 14 15  1  0  0  0  0
 14 35  1  0  0  0  0
 15 17  1  0  0  0  0
 16 18  1  1  0  0  0
 16 25  1  0  0  0  0
 19 20  1  6  0  0  0
 19 27  1  0  0  0  0
 21 22  1  0  0  0  0
 21 23  1  0  0  0  0
 23 17  1  0  0  0  0
 25 26  1  1  0  0  0
 25 28  1  0  0  0  0
 27  2  1  1  0  0  0
 27 30  1  0  0  0  0
 28 29  1  0  0  0  0
 28 32  1  6  0  0  0
 30 31  1  6  0  0  0
 30 34  1  0  0  0  0
 32 33  2  0  0  0  0
 34 35  1  1  0  0  0
M  END
>  <CHROM.1>
169.98983009,85.65732932,97.31351223,-46.74952155,-59.23812944,51.56558889
-166.06656518,-119.37326800,-68.29875632,59.86156465,-154.11173613,-77.66090840
76.50147978,7.66694446,10.63120610,8.22251793,3.02838348,-0.39989641,-3.00357327

>  <Name>
2f4t_lig

>  <RI>
0

>  <Rbt.Current_Directory>
/home/itssahil/PROJECTS/Mol_Feturizer/New_Systems/rnas/2f4t

>  <Rbt.Executable>
rbdock ($Id: //depot/dev/client3/rdock/2013.1/src/exe/rbdock.cxx#4 $)

>  <Rbt.Library>
libRbt.so (2013.1, Build901 2013/11/27)

>  <Rbt.Parameter_File>
/export/apps/rDock/src/rDock_2013.1_src/data/scripts/dock_solv.prm

>  <Rbt.Receptor>
prm/blind_docking_20.prm

>  <SCORE>
16.3763

>  <SCORE.INTER>
9.07835

>  <SCORE.INTER.CONST>
1

>  <SCORE.INTER.POLAR>
0

>  <SCORE.INTER.ROT>
13

>  <SCORE.INTER.SOLV>
13.7845

>  <SCORE.INTER.VDW>
-10.8093

>  <SCORE.INTER.norm>
0.259381

>  <SCORE.INTRA>
1.65548

>  <SCORE.INTRA.DIHEDRAL>
-12.0742

>  <SCORE.INTRA.DIHEDRAL.0>
23.8882

>  <SCORE.INTRA.POLAR>
0

>  <SCORE.INTRA.POLAR.0>
0

>  <SCORE.INTRA.REPUL>
0

>  <SCORE.INTRA.REPUL.0>
0

>  <SCORE.INTRA.SOLV>
13.3301

>  <SCORE.INTRA.SOLV.lig_0>
-97.6888

>  <SCORE.INTRA.VDW>
1.02756

>  <SCORE.INTRA.VDW.0>
-3.9206

>  <SCORE.INTRA.norm>
0.0472995

>  <SCORE.RESTR>
5.64249

>  <SCORE.RESTR.CAVITY>
5.64249

>  <SCORE.RESTR.norm>
0.161214

>  <SCORE.SYSTEM>
0

>  <SCORE.SYSTEM.CONST>
0

>  <SCORE.SYSTEM.DIHEDRAL>
0

>  <SCORE.SYSTEM.SOLV>
0

>  <SCORE.SYSTEM.norm>
0

>  <SCORE.heavy>
35

>  <SCORE.norm>
0.467895

>  <RMSD>
28.678

$$$$
2f4t_lig
 OpenBabel11021811433D
libRbt.so/2013.1/901 2013/11/27
 35 36  0  0  0  0  0  0  0  0999 V2000
   11.3478    9.3466    5.5687 C   0  0  2  0  0  0  0  0  0  0  0  0
   10.4489    8.3306    6.1227 O   0  0  0  0  0  0  0  0  0  0  0  0
    7.1971   10.6901    7.7087 C   0  0  2  0  0  0  0  0  0  0  0  0
    5.8321   11.0850    8.0875 N   0  0  0  0  0  0  0  0  0  0  0  0
   12.7652    9.0083    6.1222 C   0  0  2  0  0  0  0  0  0  0  0  0
   13.1371    7.6559    5.7784 N   0  0  0  0  0  0  0  0  0  0  0  0
    7.2103   10.2523    6.1981 C   0  0  0  0  0  0  0  0  0  0  0  0
    4.8665    9.6413    8.4072 C   0  0  0  0  0  0  0  0  0  0  0  0
    3.7345   10.5968    8.7132 C   0  0  1  0  0  0  0  0  0  0  0  0
    2.6238    9.7936    9.3938 C   0  0  0  0  0  0  0  0  0  0  0  0
    2.9392    9.2913   10.8127 C   0  0  0  0  0  0  0  0  0  0  0  0
    1.8616    8.3918   11.2354 N   0  0  0  0  0  0  0  0  0  0  0  0
    4.1346   11.5664    9.6459 O   0  0  0  0  0  0  0  0  0  0  0  0
    8.0483    9.9018   11.2956 C   0  0  0  0  0  0  0  0  0  0  0  0
    9.5168   10.2888   11.3799 C   0  0  0  0  0  0  0  0  0  0  0  0
   12.7992    9.2123    7.6745 C   0  0  1  0  0  0  0  0  0  0  0  0
    9.8519   11.5079   10.6117 N   0  0  0  0  0  0  0  0  0  0  0  0
   14.0795    8.9148    8.1967 O   0  0  0  0  0  0  0  0  0  0  0  0
    8.6093    9.8163    5.7409 C   0  0  2  0  0  0  0  0  0  0  0  0
    8.5878    9.3766    4.3493 N   0  0  0  0  0  0  0  0  0  0  0  0
    9.1312   13.7781    9.8644 C   0  0  0  0  0  0  0  0  0  0  0  0
    8.1449   14.6305    9.0027 N   0  0  0  0  0  0  0  0  0  0  0  0
    8.7794   12.2614    9.9022 C   0  0  0  0  0  0  0  0  0  0  0  0
    5.0567    8.5914    8.3790 O   0  0  0  0  0  0  0  0  0  0  0  0
   12.4171   10.6661    7.9711 C   0  0  2  0  0  0  0  0  0  0  0  0
   12.4406   10.9232    9.3658 O   0  0  0  0  0  0  0  0  0  0  0  0
    9.1187    8.6902    6.6056 C   0  0  2  0  0  0  0  0  0  0  0  0
   11.0074   10.9734    7.3884 C   0  0  2  0  0  0  0  0  0  0  0  0
   10.9654   10.7204    5.9686 O   0  0  0  0  0  0  0  0  0  0  0  0
    9.1376    9.1362    8.1306 C   0  0  2  0  0  0  0  0  0  0  0  0
    9.6403    8.0269    8.9343 O   0  0  0  0  0  0  0  0  0  0  0  0
   10.6045   12.3800    7.6251 C   0  0  0  0  0  0  0  0  0  0  0  0
   11.6063   13.0359    8.2511 N   0  0  0  0  0  0  0  0  0  0  0  0
    7.6785    9.5100    8.5670 C   0  0  1  0  0  0  0  0  0  0  0  0
    7.6567    9.8789    9.9092 O   0  0  0  0  0  0  0  0  0  0  0  0
  1  2  1  1  0  0  0
  1  5  1  0  0  0  0
  1 29  1  0  0  0  0
  3  4  1  1  0  0  0
  3  7  1  0  0  0  0
  3 34  1  0  0  0  0
  5  6  1  1  0  0  0
  5 16  1  0  0  0  0
  7 19  1  0  0  0  0
  8  4  1  0  0  0  0
  8 24  2  0  0  0  0
  9  8  1  1  0  0  0
  9 10  1  0  0  0  0
  9 13  1  0  0  0  0
 10 11  1  0  0  0  0
 11 12  1  0  0  0  0
 14 15  1  0  0  0  0
 14 35  1  0  0  0  0
 15 17  1  0  0  0  0
 16 18  1  6  0  0  0
 16 25  1  0  0  0  0
 19 20  1  6  0  0  0
 19 27  1  0  0  0  0
 21 22  1  0  0  0  0
 21 23  1  0  0  0  0
 23 17  1  0  0  0  0
 25 26  1  1  0  0  0
 25 28  1  0  0  0  0
 27  2  1  6  0  0  0
 27 30  1  0  0  0  0
 28 29  1  0  0  0  0
 28 32  1  6  0  0  0
 30 31  1  1  0  0  0
 30 34  1  0  0  0  0
 32 33  2  0  0  0  0
 34 35  1  1  0  0  0
M  END
>  <CHROM.1>
139.11719706,79.67652155,-167.26937025,69.30184985,-172.05317490,50.47596955
57.34071158,2.63498776,173.56991372,148.72130170,33.52979343,2.16656684,-149.64891606
8.66711144,10.21316200,8.27886767,0.22811557,-0.20249096,-2.35387404

>  <Name>
2f4t_lig

>  <RI>
0

>  <Rbt.Current_Directory>
/home/itssahil/PROJECTS/Mol_Feturizer/New_Systems/rnas/2f4t

>  <Rbt.Executable>
rbdock ($Id: //depot/dev/client3/rdock/2013.1/src/exe/rbdock.cxx#4 $)

>  <Rbt.Library>
libRbt.so (2013.1, Build901 2013/11/27)

>  <Rbt.Parameter_File>
/export/apps/rDock/src/rDock_2013.1_src/data/scripts/dock_solv.prm

>  <Rbt.Receptor>
prm/blind_docking_20.prm

>  <SCORE>
24.4687

>  <SCORE.INTER>
9.96777

>  <SCORE.INTER.CONST>
1

>  <SCORE.INTER.POLAR>
-0.547317

>  <SCORE.INTER.ROT>
13

>  <SCORE.INTER.SOLV>
21.9189

>  <SCORE.INTER.VDW>
-11.1034

>  <SCORE.INTER.norm>
0.284793

>  <SCORE.INTRA>
12.0727

>  <SCORE.INTRA.DIHEDRAL>
-6.78916

>  <SCORE.INTRA.DIHEDRAL.0>
23.8882

>  <SCORE.INTRA.POLAR>
0

>  <SCORE.INTRA.POLAR.0>
0

>  <SCORE.INTRA.REPUL>
0

>  <SCORE.INTRA.REPUL.0>
0

>  <SCORE.INTRA.SOLV>
8.14641

>  <SCORE.INTRA.SOLV.lig_0>
-97.6888

>  <SCORE.INTRA.VDW>
11.3941

>  <SCORE.INTRA.VDW.0>
-3.9206

>  <SCORE.INTRA.norm>
0.344935

>  <SCORE.RESTR>
2.42816

>  <SCORE.RESTR.CAVITY>
2.42816

>  <SCORE.RESTR.norm>
0.0693761

>  <SCORE.SYSTEM>
0

>  <SCORE.SYSTEM.CONST>
0

>  <SCORE.SYSTEM.DIHEDRAL>
0

>  <SCORE.SYSTEM.SOLV>
0

>  <SCORE.SYSTEM.norm>
0

>  <SCORE.heavy>
35

>  <SCORE.norm>
0.699104

>  <RMSD>
28.679

$$$$
2f4t_lig
 OpenBabel11021811433D
libRbt.so/2013.1/901 2013/11/27
 35 36  0  0  0  0  0  0  0  0999 V2000
   10.6227   14.0128   10.0307 C   0  0  2  0  0  0  0  0  0  0  0  0
    9.8699   13.9504    8.7750 O   0  0  0  0  0  0  0  0  0  0  0  0
    6.4750   11.4789    9.7866 C   0  0  2  0  0  0  0  0  0  0  0  0
    5.0951   10.9714    9.8187 N   0  0  0  0  0  0  0  0  0  0  0  0
   12.1137   14.2143    9.6235 C   0  0  2  0  0  0  0  0  0  0  0  0
   12.2624   15.3910    8.7997 N   0  0  0  0  0  0  0  0  0  0  0  0
    6.4683   13.0204   10.0985 C   0  0  0  0  0  0  0  0  0  0  0  0
    5.1128    9.2295   10.1090 C   0  0  0  0  0  0  0  0  0  0  0  0
    3.6036    9.3123   10.0484 C   0  0  1  0  0  0  0  0  0  0  0  0
    3.1441    8.4883    8.8435 C   0  0  0  0  0  0  0  0  0  0  0  0
    3.1137    6.9648    9.0515 C   0  0  0  0  0  0  0  0  0  0  0  0
    4.4717    6.5141    9.3703 N   0  0  0  0  0  0  0  0  0  0  0  0
    3.0224    8.7060   11.1730 O   0  0  0  0  0  0  0  0  0  0  0  0
    7.4299    8.6831    7.4074 C   0  0  0  0  0  0  0  0  0  0  0  0
    8.8666    8.3083    7.7371 C   0  0  0  0  0  0  0  0  0  0  0  0
   12.6429   12.9453    8.8740 C   0  0  1  0  0  0  0  0  0  0  0  0
    9.8701    9.1188    7.0125 N   0  0  0  0  0  0  0  0  0  0  0  0
   13.9973   13.1059    8.4995 O   0  0  0  0  0  0  0  0  0  0  0  0
    7.8827   13.6163   10.0698 C   0  0  2  0  0  0  0  0  0  0  0  0
    7.8465   15.0535   10.3215 N   0  0  0  0  0  0  0  0  0  0  0  0
   12.2012    9.5696    6.2417 C   0  0  0  0  0  0  0  0  0  0  0  0
   13.6336    8.9879    6.0143 N   0  0  0  0  0  0  0  0  0  0  0  0
   11.1181    8.4818    6.5045 C   0  0  0  0  0  0  0  0  0  0  0  0
    5.8801    8.5019   10.2539 O   0  0  0  0  0  0  0  0  0  0  0  0
   12.4771   11.7399    9.8052 C   0  0  2  0  0  0  0  0  0  0  0  0
   12.9512   10.5533    9.1894 O   0  0  0  0  0  0  0  0  0  0  0  0
    8.5322   13.3666    8.7316 C   0  0  2  0  0  0  0  0  0  0  0  0
   10.9820   11.5809   10.2059 C   0  0  2  0  0  0  0  0  0  0  0  0
   10.4830   12.7784   10.8371 O   0  0  0  0  0  0  0  0  0  0  0  0
    8.5707   11.8082    8.4236 C   0  0  2  0  0  0  0  0  0  0  0  0
    9.2095   11.6050    7.1276 O   0  0  0  0  0  0  0  0  0  0  0  0
   10.7745   10.4425   11.1321 C   0  0  0  0  0  0  0  0  0  0  0  0
    9.7471    9.6843   10.6902 N   0  0  0  0  0  0  0  0  0  0  0  0
    7.1016   11.2601    8.4008 C   0  0  1  0  0  0  0  0  0  0  0  0
    7.0995    9.8999    8.1050 O   0  0  0  0  0  0  0  0  0  0  0  0
  1  2  1  6  0  0  0
  1  5  1  0  0  0  0
  1 29  1  0  0  0  0
  3  4  1  6  0  0  0
  3  7  1  0  0  0  0
  3 34  1  0  0  0  0
  5  6  1  6  0  0  0
  5 16  1  0  0  0  0
  7 19  1  0  0  0  0
  8  4  1  0  0  0  0
  8 24  2  0  0  0  0
  9  8  1  1  0  0  0
  9 10  1  0  0  0  0
  9 13  1  0  0  0  0
 10 11  1  0  0  0  0
 11 12  1  0  0  0  0
 14 15  1  0  0  0  0
 14 35  1  0  0  0  0
 15 17  1  0  0  0  0
 16 18  1  1  0  0  0
 16 25  1  0  0  0  0
 19 20  1  6  0  0  0
 19 27  1  0  0  0  0
 21 22  1  0  0  0  0
 21 23  1  0  0  0  0
 23 17  1  0  0  0  0
 25 26  1  6  0  0  0
 25 28  1  0  0  0  0
 27  2  1  1  0  0  0
 27 30  1  0  0  0  0
 28 29  1  0  0  0  0
 28 32  1  1  0  0  0
 30 31  1  6  0  0  0
 30 34  1  0  0  0  0
 32 33  2  0  0  0  0
 34 35  1  1  0  0  0
M  END
>  <CHROM.1>
160.88086227,-157.82751728,116.20340282,78.56113609,-60.55634806,-76.83948031
73.01675980,-141.65555391,167.13243825,-160.31405184,31.04795735,-131.47418919
-167.47361191,8.71608903,10.93639015,9.04894071,0.37731545,0.28504910,0.40541913

>  <Name>
2f4t_lig

>  <RI>
0

>  <Rbt.Current_Directory>
/home/itssahil/PROJECTS/Mol_Feturizer/New_Systems/rnas/2f4t

>  <Rbt.Executable>
rbdock ($Id: //depot/dev/client3/rdock/2013.1/src/exe/rbdock.cxx#4 $)

>  <Rbt.Library>
libRbt.so (2013.1, Build901 2013/11/27)

>  <Rbt.Parameter_File>
/export/apps/rDock/src/rDock_2013.1_src/data/scripts/dock_solv.prm

>  <Rbt.Receptor>
prm/blind_docking_60.prm

>  <SCORE>
4.33236

>  <SCORE.INTER>
2.87812

>  <SCORE.INTER.CONST>
1

>  <SCORE.INTER.POLAR>
0

>  <SCORE.INTER.ROT>
13

>  <SCORE.INTER.SOLV>
10.4656

>  <SCORE.INTER.VDW>
-13.8365

>  <SCORE.INTER.norm>
0.0822321

>  <SCORE.INTRA>
-1.55938

>  <SCORE.INTRA.DIHEDRAL>
-9.68773

>  <SCORE.INTRA.DIHEDRAL.0>
23.8882

>  <SCORE.INTRA.POLAR>
0

>  <SCORE.INTRA.POLAR.0>
0

>  <SCORE.INTRA.REPUL>
0

>  <SCORE.INTRA.REPUL.0>
0

>  <SCORE.INTRA.SOLV>
8.84184

>  <SCORE.INTRA.SOLV.lig_0>
-97.6888

>  <SCORE.INTRA.VDW>
-1.13643

>  <SCORE.INTRA.VDW.0>
-3.9206

>  <SCORE.INTRA.norm>
-0.0445536

>  <SCORE.RESTR>
3.01362

>  <SCORE.RESTR.CAVITY>
3.01362

>  <SCORE.RESTR.norm>
0.0861034

>  <SCORE.SYSTEM>
0

>  <SCORE.SYSTEM.CONST>
0

>  <SCORE.SYSTEM.DIHEDRAL>
0

>  <SCORE.SYSTEM.SOLV>
0

>  <SCORE.SYSTEM.norm>
0

>  <SCORE.heavy>
35

>  <SCORE.norm>
0.123782

>  <RMSD>
28.681

$$$$
2f4t_lig
 OpenBabel11021811433D
libRbt.so/2013.1/901 2013/11/27
 35 36  0  0  0  0  0  0  0  0999 V2000
   12.1369    8.8622    8.3101 C   0  0  2  0  0  0  0  0  0  0  0  0
   11.6039   10.0161    9.0394 O   0  0  0  0  0  0  0  0  0  0  0  0
    7.4232    9.0362    9.5065 C   0  0  2  0  0  0  0  0  0  0  0  0
    6.0877    8.9290   10.1130 N   0  0  0  0  0  0  0  0  0  0  0  0
   13.4224    9.3706    7.5899 C   0  0  2  0  0  0  0  0  0  0  0  0
   14.3509    9.9338    8.5418 N   0  0  0  0  0  0  0  0  0  0  0  0
    8.4963    8.4801   10.5127 C   0  0  0  0  0  0  0  0  0  0  0  0
    4.9776    8.1714    8.9673 C   0  0  0  0  0  0  0  0  0  0  0  0
    3.9300    8.3210   10.0482 C   0  0  1  0  0  0  0  0  0  0  0  0
    2.7371    9.0587    9.4359 C   0  0  0  0  0  0  0  0  0  0  0  0
    2.2286    8.5041    8.0947 C   0  0  0  0  0  0  0  0  0  0  0  0
    2.9631    9.1656    7.0121 N   0  0  0  0  0  0  0  0  0  0  0  0
    3.4418    7.0681   10.4507 O   0  0  0  0  0  0  0  0  0  0  0  0
    5.7132   11.8303    7.8534 C   0  0  0  0  0  0  0  0  0  0  0  0
    5.9798   13.2710    8.2618 C   0  0  0  0  0  0  0  0  0  0  0  0
   13.0446   10.4262    6.4966 C   0  0  1  0  0  0  0  0  0  0  0  0
    7.3189   13.7594    7.8660 N   0  0  0  0  0  0  0  0  0  0  0  0
   14.1979   10.8973    5.8271 O   0  0  0  0  0  0  0  0  0  0  0  0
    9.9184    8.5736    9.9423 C   0  0  2  0  0  0  0  0  0  0  0  0
   10.8990    8.0899   10.9091 N   0  0  0  0  0  0  0  0  0  0  0  0
    9.5559   14.6641    8.5058 C   0  0  0  0  0  0  0  0  0  0  0  0
   10.0030   14.6126    7.0094 N   0  0  0  0  0  0  0  0  0  0  0  0
    8.0147   14.7842    8.6950 C   0  0  0  0  0  0  0  0  0  0  0  0
    5.0682    7.7977    7.9717 O   0  0  0  0  0  0  0  0  0  0  0  0
   12.0778    9.7631    5.5100 C   0  0  2  0  0  0  0  0  0  0  0  0
   11.7036   10.6653    4.4814 O   0  0  0  0  0  0  0  0  0  0  0  0
   10.2471   10.0000    9.5786 C   0  0  2  0  0  0  0  0  0  0  0  0
   10.8174    9.2514    6.2653 C   0  0  2  0  0  0  0  0  0  0  0  0
   11.1788    8.3292    7.3144 O   0  0  0  0  0  0  0  0  0  0  0  0
    9.1844   10.5587    8.5377 C   0  0  2  0  0  0  0  0  0  0  0  0
    9.5368   11.9351    8.2053 O   0  0  0  0  0  0  0  0  0  0  0  0
    9.8628    8.5745    5.3556 C   0  0  0  0  0  0  0  0  0  0  0  0
    8.9095    9.4511    4.9704 N   0  0  0  0  0  0  0  0  0  0  0  0
    7.7591   10.5017    9.1893 C   0  0  1  0  0  0  0  0  0  0  0  0
    6.8072   11.0117    8.3109 O   0  0  0  0  0  0  0  0  0  0  0  0
  1  2  1  6  0  0  0
  1  5  1  0  0  0  0
  1 29  1  0  0  0  0
  3  4  1  1  0  0  0
  3  7  1  0  0  0  0
  3 34  1  0  0  0  0
  5  6  1  1  0  0  0
  5 16  1  0  0  0  0
  7 19  1  0  0  0  0
  8  4  1  0  0  0  0
  8 24  2  0  0  0  0
  9  8  1  6  0  0  0
  9 10  1  0  0  0  0
  9 13  1  0  0  0  0
 10 11  1  0  0  0  0
 11 12  1  0  0  0  0
 14 15  1  0  0  0  0
 14 35  1  0  0  0  0
 15 17  1  0  0  0  0
 16 18  1  6  0  0  0
 16 25  1  0  0  0  0
 19 20  1  1  0  0  0
 19 27  1  0  0  0  0
 21 22  1  0  0  0  0
 21 23  1  0  0  0  0
 23 17  1  0  0  0  0
 25 26  1  6  0  0  0
 25 28  1  0  0  0  0
 27  2  1  6  0  0  0
 27 30  1  0  0  0  0
 28 29  1  0  0  0  0
 28 32  1  6  0  0  0
 30 31  1  1  0  0  0
 30 34  1  0  0  0  0
 32 33  2  0  0  0  0
 34 35  1  6  0  0  0
M  END
>  <CHROM.1>
165.79474646,-130.85574187,126.37792019,49.30512359,-89.04496372,51.34460975
47.52936299,-149.30714892,49.49715439,154.10209321,31.14098070,-96.25218215
112.53080142,8.61678960,10.11641831,8.11902435,-0.20877655,-0.19029736,2.91445004

>  <Name>
2f4t_lig

>  <RI>
0

>  <Rbt.Current_Directory>
/home/itssahil/PROJECTS/Mol_Feturizer/New_Systems/rnas/2f4t

>  <Rbt.Executable>
rbdock ($Id: //depot/dev/client3/rdock/2013.1/src/exe/rbdock.cxx#4 $)

>  <Rbt.Library>
libRbt.so (2013.1, Build901 2013/11/27)

>  <Rbt.Parameter_File>
/export/apps/rDock/src/rDock_2013.1_src/data/scripts/dock_solv.prm

>  <Rbt.Receptor>
prm/blind_docking_20.prm

>  <SCORE>
18.2552

>  <SCORE.INTER>
8.34559

>  <SCORE.INTER.CONST>
1

>  <SCORE.INTER.POLAR>
0

>  <SCORE.INTER.ROT>
13

>  <SCORE.INTER.SOLV>
17.1658

>  <SCORE.INTER.VDW>
-12.4249

>  <SCORE.INTER.norm>
0.238446

>  <SCORE.INTRA>
3.27761

>  <SCORE.INTRA.DIHEDRAL>
-2.47105

>  <SCORE.INTRA.DIHEDRAL.0>
23.8882

>  <SCORE.INTRA.POLAR>
0

>  <SCORE.INTRA.POLAR.0>
0

>  <SCORE.INTRA.REPUL>
0

>  <SCORE.INTRA.REPUL.0>
0

>  <SCORE.INTRA.SOLV>
8.32369

>  <SCORE.INTRA.SOLV.lig_0>
-97.6888

>  <SCORE.INTRA.VDW>
0.351292

>  <SCORE.INTRA.VDW.0>
-3.9206

>  <SCORE.INTRA.norm>
0.093646

>  <SCORE.RESTR>
6.63204

>  <SCORE.RESTR.CAVITY>
6.63204

>  <SCORE.RESTR.norm>
0.189487

>  <SCORE.SYSTEM>
0

>  <SCORE.SYSTEM.CONST>
0

>  <SCORE.SYSTEM.DIHEDRAL>
0

>  <SCORE.SYSTEM.SOLV>
0

>  <SCORE.SYSTEM.norm>
0

>  <SCORE.heavy>
35

>  <SCORE.norm>
0.521578

>  <RMSD>
28.697

$$$$
2f4t_lig
 OpenBabel11021811433D
libRbt.so/2013.1/901 2013/11/27
 35 36  0  0  0  0  0  0  0  0999 V2000
    3.7385   10.7837    9.9571 C   0  0  2  0  0  0  0  0  0  0  0  0
    4.9571   10.2474   10.5691 O   0  0  0  0  0  0  0  0  0  0  0  0
    8.0305   11.7962    7.9589 C   0  0  2  0  0  0  0  0  0  0  0  0
    9.3396   12.2890    7.5050 N   0  0  0  0  0  0  0  0  0  0  0  0
    2.6127    9.7545   10.2778 C   0  0  2  0  0  0  0  0  0  0  0  0
    2.5026    9.5472   11.7027 N   0  0  0  0  0  0  0  0  0  0  0  0
    7.5965   12.5870    9.2473 C   0  0  0  0  0  0  0  0  0  0  0  0
   10.4536   12.3536    8.8739 C   0  0  0  0  0  0  0  0  0  0  0  0
   11.4766   12.8570    7.8798 C   0  0  1  0  0  0  0  0  0  0  0  0
   11.3111   14.3748    7.7756 C   0  0  0  0  0  0  0  0  0  0  0  0
   10.0757   14.8579    6.9975 C   0  0  0  0  0  0  0  0  0  0  0  0
    8.9035   14.7381    7.8697 N   0  0  0  0  0  0  0  0  0  0  0  0
   12.7814   12.6440    8.3512 O   0  0  0  0  0  0  0  0  0  0  0  0
    8.9021    8.4543    6.3803 C   0  0  0  0  0  0  0  0  0  0  0  0
    9.8718    8.9277    5.3084 C   0  0  0  0  0  0  0  0  0  0  0  0
    2.8962    8.4008    9.5433 C   0  0  1  0  0  0  0  0  0  0  0  0
   11.0633    9.6162    5.8515 N   0  0  0  0  0  0  0  0  0  0  0  0
    1.8825    7.4534    9.8177 O   0  0  0  0  0  0  0  0  0  0  0  0
    6.2377   12.1115    9.7802 C   0  0  2  0  0  0  0  0  0  0  0  0
    5.8761   12.8310   10.9974 N   0  0  0  0  0  0  0  0  0  0  0  0
   11.7629    8.3631    7.8940 C   0  0  0  0  0  0  0  0  0  0  0  0
   11.6330    9.5352    8.9194 N   0  0  0  0  0  0  0  0  0  0  0  0
   12.1685    8.8251    6.4631 C   0  0  0  0  0  0  0  0  0  0  0  0
   10.3769   12.1254    9.9137 O   0  0  0  0  0  0  0  0  0  0  0  0
    2.9808    8.6845    8.0400 C   0  0  2  0  0  0  0  0  0  0  0  0
    3.2247    7.4925    7.3110 O   0  0  0  0  0  0  0  0  0  0  0  0
    6.2759   10.6327   10.0748 C   0  0  2  0  0  0  0  0  0  0  0  0
    4.0999    9.7285    7.7594 C   0  0  2  0  0  0  0  0  0  0  0  0
    3.8665   10.9499    8.4909 O   0  0  0  0  0  0  0  0  0  0  0  0
    6.6835    9.8244    8.7688 C   0  0  2  0  0  0  0  0  0  0  0  0
    6.7042    8.4010    9.0893 O   0  0  0  0  0  0  0  0  0  0  0  0
    4.2012   10.0584    6.3180 C   0  0  0  0  0  0  0  0  0  0  0  0
    2.9643   10.2686    5.8164 N   0  0  0  0  0  0  0  0  0  0  0  0
    8.1028   10.2999    8.3012 C   0  0  1  0  0  0  0  0  0  0  0  0
    8.5015    9.5890    7.1728 O   0  0  0  0  0  0  0  0  0  0  0  0
  1  2  1  6  0  0  0
  1  5  1  0  0  0  0
  1 29  1  0  0  0  0
  3  4  1  1  0  0  0
  3  7  1  0  0  0  0
  3 34  1  0  0  0  0
  5  6  1  1  0  0  0
  5 16  1  0  0  0  0
  7 19  1  0  0  0  0
  8  4  1  0  0  0  0
  8 24  2  0  0  0  0
  9  8  1  1  0  0  0
  9 10  1  0  0  0  0
  9 13  1  0  0  0  0
 10 11  1  0  0  0  0
 11 12  1  0  0  0  0
 14 15  1  0  0  0  0
 14 35  1  0  0  0  0
 15 17  1  0  0  0  0
 16 18  1  6  0  0  0
 16 25  1  0  0  0  0
 19 20  1  1  0  0  0
 19 27  1  0  0  0  0
 21 22  1  0  0  0  0
 21 23  1  0  0  0  0
 23 17  1  0  0  0  0
 25 26  1  6  0  0  0
 25 28  1  0  0  0  0
 27  2  1  6  0  0  0
 27 30  1  0  0  0  0
 28 29  1  0  0  0  0
 28 32  1  6  0  0  0
 30 31  1  1  0  0  0
 30 34  1  0  0  0  0
 32 33  2  0  0  0  0
 34 35  1  6  0  0  0
M  END
>  <CHROM.1>
156.31192551,48.48343139,86.17882990,-74.00743368,78.41953730,57.06051142
-147.48243053,76.75659496,-67.61452946,-77.11424930,41.12309943,45.62169526
175.01178328,7.26292063,10.58514147,8.37512001,2.95363507,-0.29501525,-2.67978485

>  <Name>
2f4t_lig

>  <RI>
0

>  <Rbt.Current_Directory>
/home/itssahil/PROJECTS/Mol_Feturizer/New_Systems/rnas/2f4t

>  <Rbt.Executable>
rbdock ($Id: //depot/dev/client3/rdock/2013.1/src/exe/rbdock.cxx#4 $)

>  <Rbt.Library>
libRbt.so (2013.1, Build901 2013/11/27)

>  <Rbt.Parameter_File>
/export/apps/rDock/src/rDock_2013.1_src/data/scripts/dock_solv.prm

>  <Rbt.Receptor>
prm/blind_docking_20.prm

>  <SCORE>
9.33497

>  <SCORE.INTER>
1.03994

>  <SCORE.INTER.CONST>
1

>  <SCORE.INTER.POLAR>
0

>  <SCORE.INTER.ROT>
13

>  <SCORE.INTER.SOLV>
11.9912

>  <SCORE.INTER.VDW>
-15.5705

>  <SCORE.INTER.norm>
0.0297126

>  <SCORE.INTRA>
5.11406

>  <SCORE.INTRA.DIHEDRAL>
-9.84187

>  <SCORE.INTRA.DIHEDRAL.0>
23.8882

>  <SCORE.INTRA.POLAR>
0

>  <SCORE.INTRA.POLAR.0>
0

>  <SCORE.INTRA.REPUL>
0

>  <SCORE.INTRA.REPUL.0>
0

>  <SCORE.INTRA.SOLV>
15.2131

>  <SCORE.INTRA.SOLV.lig_0>
-97.6888

>  <SCORE.INTRA.VDW>
2.42842

>  <SCORE.INTRA.VDW.0>
-3.9206

>  <SCORE.INTRA.norm>
0.146116

>  <SCORE.RESTR>
3.18097

>  <SCORE.RESTR.CAVITY>
3.18097

>  <SCORE.RESTR.norm>
0.0908848

>  <SCORE.SYSTEM>
0

>  <SCORE.SYSTEM.CONST>
0

>  <SCORE.SYSTEM.DIHEDRAL>
0

>  <SCORE.SYSTEM.SOLV>
0

>  <SCORE.SYSTEM.norm>
0

>  <SCORE.heavy>
35

>  <SCORE.norm>
0.266713

>  <RMSD>
28.734

$$$$
2f4t_lig
 OpenBabel11021811433D
libRbt.so/2013.1/901 2013/11/27
 35 36  0  0  0  0  0  0  0  0999 V2000
    4.4982   11.0162    8.5448 C   0  0  2  0  0  0  0  0  0  0  0  0
    5.7306   11.0936    9.3337 O   0  0  0  0  0  0  0  0  0  0  0  0
    9.7788   10.1629    8.1492 C   0  0  2  0  0  0  0  0  0  0  0  0
   10.9965    9.3826    7.8829 N   0  0  0  0  0  0  0  0  0  0  0  0
    3.3305   11.2078    9.5594 C   0  0  2  0  0  0  0  0  0  0  0  0
    3.4802   12.4503   10.2800 N   0  0  0  0  0  0  0  0  0  0  0  0
    9.2799    9.8637    9.6105 C   0  0  0  0  0  0  0  0  0  0  0  0
   12.3883   10.4671    7.8069 C   0  0  0  0  0  0  0  0  0  0  0  0
   13.2093    9.2219    7.5547 C   0  0  1  0  0  0  0  0  0  0  0  0
   14.0546    9.4719    6.3038 C   0  0  0  0  0  0  0  0  0  0  0  0
   13.2734    9.8761    5.0422 C   0  0  0  0  0  0  0  0  0  0  0  0
   12.0931    9.0137    4.9327 N   0  0  0  0  0  0  0  0  0  0  0  0
   14.1222    9.0030    8.5982 O   0  0  0  0  0  0  0  0  0  0  0  0
    9.6105   10.7780    4.7428 C   0  0  0  0  0  0  0  0  0  0  0  0
   10.7746   11.6323    5.2208 C   0  0  0  0  0  0  0  0  0  0  0  0
    3.2760    9.9974   10.5515 C   0  0  1  0  0  0  0  0  0  0  0  0
   10.3546   12.8894    5.8780 N   0  0  0  0  0  0  0  0  0  0  0  0
    2.2189   10.1495   11.4788 O   0  0  0  0  0  0  0  0  0  0  0  0
    8.0009   10.6420    9.9492 C   0  0  2  0  0  0  0  0  0  0  0  0
    7.5355   10.3171   11.2938 N   0  0  0  0  0  0  0  0  0  0  0  0
    9.9628   14.2443    7.9377 C   0  0  0  0  0  0  0  0  0  0  0  0
   11.4269   14.7871    7.8787 N   0  0  0  0  0  0  0  0  0  0  0  0
    9.7812   12.8572    7.2534 C   0  0  0  0  0  0  0  0  0  0  0  0
   12.5227   11.5215    7.9041 O   0  0  0  0  0  0  0  0  0  0  0  0
    3.0961    8.7170    9.7295 C   0  0  2  0  0  0  0  0  0  0  0  0
    3.0261    7.5781   10.5721 O   0  0  0  0  0  0  0  0  0  0  0  0
    6.9101   10.3189    8.9588 C   0  0  2  0  0  0  0  0  0  0  0  0
    4.2673    8.5685    8.7160 C   0  0  2  0  0  0  0  0  0  0  0  0
    4.3521    9.7177    7.8477 O   0  0  0  0  0  0  0  0  0  0  0  0
    7.3959   10.6483    7.4821 C   0  0  2  0  0  0  0  0  0  0  0  0
    6.3158   10.3298    6.5543 O   0  0  0  0  0  0  0  0  0  0  0  0
    4.1223    7.3565    7.8752 C   0  0  0  0  0  0  0  0  0  0  0  0
    5.3398    6.9595    7.4442 N   0  0  0  0  0  0  0  0  0  0  0  0
    8.6643    9.7836    7.1617 C   0  0  1  0  0  0  0  0  0  0  0  0
    9.0987   10.0288    5.8621 O   0  0  0  0  0  0  0  0  0  0  0  0
  1  2  1  1  0  0  0
  1  5  1  0  0  0  0
  1 29  1  0  0  0  0
  3  4  1  6  0  0  0
  3  7  1  0  0  0  0
  3 34  1  0  0  0  0
  5  6  1  1  0  0  0
  5 16  1  0  0  0  0
  7 19  1  0  0  0  0
  8  4  1  0  0  0  0
  8 24  2  0  0  0  0
  9  8  1  1  0  0  0
  9 10  1  0  0  0  0
  9 13  1  0  0  0  0
 10 11  1  0  0  0  0
 11 12  1  0  0  0  0
 14 15  1  0  0  0  0
 14 35  1  0  0  0  0
 15 17  1  0  0  0  0
 16 18  1  1  0  0  0
 16 25  1  0  0  0  0
 19 20  1  1  0  0  0
 19 27  1  0  0  0  0
 21 22  1  0  0  0  0
 21 23  1  0  0  0  0
 23 17  1  0  0  0  0
 25 26  1  1  0  0  0
 25 28  1  0  0  0  0
 27  2  1  1  0  0  0
 27 30  1  0  0  0  0
 28 29  1  0  0  0  0
 28 32  1  6  0  0  0
 30 31  1  6  0  0  0
 30 34  1  0  0  0  0
 32 33  2  0  0  0  0
 34 35  1  6  0  0  0
M  END
>  <CHROM.1>
147.63362245,-109.45982270,128.50573104,-55.57752473,-43.88880644,-81.26684711
44.51557591,74.15482613,-51.13511048,156.83646876,178.93673073,-154.53072291
-56.79211459,8.11729322,10.34367035,8.05445328,3.10174840,-0.34950085,-2.90889197

>  <Name>
2f4t_lig

>  <RI>
0

>  <Rbt.Current_Directory>
/home/itssahil/PROJECTS/Mol_Feturizer/New_Systems/rnas/2f4t

>  <Rbt.Executable>
rbdock ($Id: //depot/dev/client3/rdock/2013.1/src/exe/rbdock.cxx#4 $)

>  <Rbt.Library>
libRbt.so (2013.1, Build901 2013/11/27)

>  <Rbt.Parameter_File>
/export/apps/rDock/src/rDock_2013.1_src/data/scripts/dock_solv.prm

>  <Rbt.Receptor>
prm/blind_docking_20.prm

>  <SCORE>
5.61478

>  <SCORE.INTER>
-0.389119

>  <SCORE.INTER.CONST>
1

>  <SCORE.INTER.POLAR>
-0.916515

>  <SCORE.INTER.ROT>
13

>  <SCORE.INTER.SOLV>
14.7388

>  <SCORE.INTER.VDW>
-14.384

>  <SCORE.INTER.norm>
-0.0111177

>  <SCORE.INTRA>
0.773563

>  <SCORE.INTRA.DIHEDRAL>
-10.287

>  <SCORE.INTRA.DIHEDRAL.0>
23.8882

>  <SCORE.INTRA.POLAR>
0

>  <SCORE.INTRA.POLAR.0>
0

>  <SCORE.INTRA.REPUL>
0

>  <SCORE.INTRA.REPUL.0>
0

>  <SCORE.INTRA.SOLV>
10.6872

>  <SCORE.INTRA.SOLV.lig_0>
-97.6888

>  <SCORE.INTRA.VDW>
0.573506

>  <SCORE.INTRA.VDW.0>
-3.9206

>  <SCORE.INTRA.norm>
0.0221018

>  <SCORE.RESTR>
5.23033

>  <SCORE.RESTR.CAVITY>
5.23033

>  <SCORE.RESTR.norm>
0.149438

>  <SCORE.SYSTEM>
0

>  <SCORE.SYSTEM.CONST>
0

>  <SCORE.SYSTEM.DIHEDRAL>
0

>  <SCORE.SYSTEM.SOLV>
0

>  <SCORE.SYSTEM.norm>
0

>  <SCORE.heavy>
35

>  <SCORE.norm>
0.160422

>  <RMSD>
28.788

$$$$
2f4t_lig
 OpenBabel11021811433D
libRbt.so/2013.1/901 2013/11/27
 35 36  0  0  0  0  0  0  0  0999 V2000
    3.7677   10.7883    9.9003 C   0  0  2  0  0  0  0  0  0  0  0  0
    4.9508   10.1875   10.5219 O   0  0  0  0  0  0  0  0  0  0  0  0
    8.1363   11.9748    8.2163 C   0  0  2  0  0  0  0  0  0  0  0  0
    9.4771   12.4572    7.8528 N   0  0  0  0  0  0  0  0  0  0  0  0
    2.5859    9.8206   10.2110 C   0  0  2  0  0  0  0  0  0  0  0  0
    2.4532    9.6188   11.6347 N   0  0  0  0  0  0  0  0  0  0  0  0
    7.7404   12.5538    9.6240 C   0  0  0  0  0  0  0  0  0  0  0  0
    9.4812   14.2229    7.8209 C   0  0  0  0  0  0  0  0  0  0  0  0
   10.9422   14.1059    7.4468 C   0  0  1  0  0  0  0  0  0  0  0  0
   11.6636   13.4229    8.6108 C   0  0  0  0  0  0  0  0  0  0  0  0
   12.0451   11.9503    8.3856 C   0  0  0  0  0  0  0  0  0  0  0  0
   12.2648   11.3240    9.6927 N   0  0  0  0  0  0  0  0  0  0  0  0
   11.1105   13.2590    6.3402 O   0  0  0  0  0  0  0  0  0  0  0  0
    9.2213    9.7730    5.8292 C   0  0  0  0  0  0  0  0  0  0  0  0
    9.2724    8.2988    5.4582 C   0  0  0  0  0  0  0  0  0  0  0  0
    2.8028    8.4539    9.4777 C   0  0  1  0  0  0  0  0  0  0  0  0
    9.7143    7.4251    6.5672 N   0  0  0  0  0  0  0  0  0  0  0  0
    1.7378    7.5619    9.7430 O   0  0  0  0  0  0  0  0  0  0  0  0
    6.3504   12.0777   10.0684 C   0  0  2  0  0  0  0  0  0  0  0  0
    6.0230   12.5945   11.3935 N   0  0  0  0  0  0  0  0  0  0  0  0
   12.0996    8.1594    6.6184 C   0  0  0  0  0  0  0  0  0  0  0  0
   12.1128    8.9494    5.2702 N   0  0  0  0  0  0  0  0  0  0  0  0
   11.1243    6.9453    6.6231 C   0  0  0  0  0  0  0  0  0  0  0  0
    8.7469   14.9772    7.9970 O   0  0  0  0  0  0  0  0  0  0  0  0
    2.9148    8.7333    7.9754 C   0  0  2  0  0  0  0  0  0  0  0  0
    3.1007    7.5303    7.2474 O   0  0  0  0  0  0  0  0  0  0  0  0
    6.2951   10.5707   10.0998 C   0  0  2  0  0  0  0  0  0  0  0  0
    4.0903    9.7162    7.7048 C   0  0  2  0  0  0  0  0  0  0  0  0
    3.9164   10.9481    8.4355 O   0  0  0  0  0  0  0  0  0  0  0  0
    6.6636    9.9792    8.6717 C   0  0  2  0  0  0  0  0  0  0  0  0
    6.5940    8.5233    8.7383 O   0  0  0  0  0  0  0  0  0  0  0  0
    4.2209   10.0409    6.2645 C   0  0  0  0  0  0  0  0  0  0  0  0
    3.1335   10.7328    5.8588 N   0  0  0  0  0  0  0  0  0  0  0  0
    8.1135   10.4402    8.2915 C   0  0  1  0  0  0  0  0  0  0  0  0
    8.4776    9.9140    7.0552 O   0  0  0  0  0  0  0  0  0  0  0  0
  1  2  1  6  0  0  0
  1  5  1  0  0  0  0
  1 29  1  0  0  0  0
  3  4  1  1  0  0  0
  3  7  1  0  0  0  0
  3 34  1  0  0  0  0
  5  6  1  1  0  0  0
  5 16  1  0  0  0  0
  7 19  1  0  0  0  0
  8  4  1  0  0  0  0
  8 24  2  0  0  0  0
  9  8  1  1  0  0  0
  9 10  1  0  0  0  0
  9 13  1  0  0  0  0
 10 11  1  0  0  0  0
 11 12  1  0  0  0  0
 14 15  1  0  0  0  0
 14 35  1  0  0  0  0
 15 17  1  0  0  0  0
 16 18  1  6  0  0  0
 16 25  1  0  0  0  0
 19 20  1  1  0  0  0
 19 27  1  0  0  0  0
 21 22  1  0  0  0  0
 21 23  1  0  0  0  0
 23 17  1  0  0  0  0
 25 26  1  6  0  0  0
 25 28  1  0  0  0  0
 27  2  1  6  0  0  0
 27 30  1  0  0  0  0
 28 29  1  0  0  0  0
 28 32  1  6  0  0  0
 30 31  1  1  0  0  0
 30 34  1  0  0  0  0
 32 33  2  0  0  0  0
 34 35  1  6  0  0  0
M  END
>  <CHROM.1>
160.51331751,-58.73535497,-62.60744112,104.78688795,-159.83254625,-50.39551622
146.53722771,-99.76203275,-67.86006505,56.70436326,48.35155029,65.92113014
42.98335659,7.23280722,10.49407486,8.20972175,3.02374495,-0.31537382,-2.67262516

>  <Name>
2f4t_lig

>  <RI>
0

>  <Rbt.Current_Directory>
/home/itssahil/PROJECTS/Mol_Feturizer/New_Systems/rnas/2f4t

>  <Rbt.Executable>
rbdock ($Id: //depot/dev/client3/rdock/2013.1/src/exe/rbdock.cxx#4 $)

>  <Rbt.Library>
libRbt.so (2013.1, Build901 2013/11/27)

>  <Rbt.Parameter_File>
/export/apps/rDock/src/rDock_2013.1_src/data/scripts/dock_solv.prm

>  <Rbt.Receptor>
prm/blind_docking_20.prm

>  <SCORE>
8.18188

>  <SCORE.INTER>
-3.09117

>  <SCORE.INTER.CONST>
1

>  <SCORE.INTER.POLAR>
-0.914212

>  <SCORE.INTER.ROT>
13

>  <SCORE.INTER.SOLV>
15.889

>  <SCORE.INTER.VDW>
-16.5764

>  <SCORE.INTER.norm>
-0.0883192

>  <SCORE.INTRA>
9.33754

>  <SCORE.INTRA.DIHEDRAL>
-6.0351

>  <SCORE.INTRA.DIHEDRAL.0>
23.8882

>  <SCORE.INTRA.POLAR>
0

>  <SCORE.INTRA.POLAR.0>
0

>  <SCORE.INTRA.REPUL>
0

>  <SCORE.INTRA.REPUL.0>
0

>  <SCORE.INTRA.SOLV>
6.7695

>  <SCORE.INTRA.SOLV.lig_0>
-97.6888

>  <SCORE.INTRA.VDW>
8.97033

>  <SCORE.INTRA.VDW.0>
-3.9206

>  <SCORE.INTRA.norm>
0.266787

>  <SCORE.RESTR>
1.93552

>  <SCORE.RESTR.CAVITY>
1.93552

>  <SCORE.RESTR.norm>
0.0553005

>  <SCORE.SYSTEM>
0

>  <SCORE.SYSTEM.CONST>
0

>  <SCORE.SYSTEM.DIHEDRAL>
0

>  <SCORE.SYSTEM.SOLV>
0

>  <SCORE.SYSTEM.norm>
0

>  <SCORE.heavy>
35

>  <SCORE.norm>
0.233768

>  <RMSD>
28.796

$$$$
2f4t_lig
 OpenBabel11021811433D
libRbt.so/2013.1/901 2013/11/27
 35 36  0  0  0  0  0  0  0  0999 V2000
    4.3804   11.6807    9.4733 C   0  0  2  0  0  0  0  0  0  0  0  0
    5.4610   11.2691   10.3734 O   0  0  0  0  0  0  0  0  0  0  0  0
    9.7734   11.4763   10.2410 C   0  0  2  0  0  0  0  0  0  0  0  0
   11.1563   11.2339    9.8033 N   0  0  0  0  0  0  0  0  0  0  0  0
    3.1654   10.7688    9.8222 C   0  0  2  0  0  0  0  0  0  0  0  0
    2.8285   10.8820   11.2219 N   0  0  0  0  0  0  0  0  0  0  0  0
    9.0404   10.0979   10.4319 C   0  0  0  0  0  0  0  0  0  0  0  0
   11.1586   10.0877    8.4598 C   0  0  0  0  0  0  0  0  0  0  0  0
   12.6627   10.2487    8.4654 C   0  0  1  0  0  0  0  0  0  0  0  0
   13.2438    9.1889    7.5267 C   0  0  0  0  0  0  0  0  0  0  0  0
   12.6159    9.1255    6.1242 C   0  0  0  0  0  0  0  0  0  0  0  0
   12.9188    7.8154    5.5404 N   0  0  0  0  0  0  0  0  0  0  0  0
   13.0366   11.4885    7.9239 O   0  0  0  0  0  0  0  0  0  0  0  0
   10.2291   14.7936    9.3437 C   0  0  0  0  0  0  0  0  0  0  0  0
   11.3476   14.5713   10.3501 C   0  0  0  0  0  0  0  0  0  0  0  0
    3.4846    9.2815    9.4499 C   0  0  1  0  0  0  0  0  0  0  0  0
   12.3202   15.6844   10.4086 N   0  0  0  0  0  0  0  0  0  0  0  0
    2.3916    8.4371    9.7545 O   0  0  0  0  0  0  0  0  0  0  0  0
    7.5837   10.2816   10.8796 C   0  0  2  0  0  0  0  0  0  0  0  0
    6.9136    8.9916   11.0105 N   0  0  0  0  0  0  0  0  0  0  0  0
   13.4099   15.3011    8.1957 C   0  0  0  0  0  0  0  0  0  0  0  0
   13.7824   15.8772    6.7917 N   0  0  0  0  0  0  0  0  0  0  0  0
   12.7697   16.3496    9.1529 C   0  0  0  0  0  0  0  0  0  0  0  0
   10.4017    9.5554    7.9279 O   0  0  0  0  0  0  0  0  0  0  0  0
    3.8123    9.2260    7.9542 C   0  0  2  0  0  0  0  0  0  0  0  0
    4.1003    7.8984    7.5462 O   0  0  0  0  0  0  0  0  0  0  0  0
    6.8302   11.1297    9.8856 C   0  0  2  0  0  0  0  0  0  0  0  0
    5.0154   10.1613    7.6398 C   0  0  2  0  0  0  0  0  0  0  0  0
    4.7391   11.5179    8.0456 O   0  0  0  0  0  0  0  0  0  0  0  0
    7.5478   12.5366    9.7109 C   0  0  2  0  0  0  0  0  0  0  0  0
    6.7898   13.3302    8.7493 O   0  0  0  0  0  0  0  0  0  0  0  0
    5.3527   10.1642    6.1965 C   0  0  0  0  0  0  0  0  0  0  0  0
    4.3068   10.6477    5.4908 N   0  0  0  0  0  0  0  0  0  0  0  0
    9.0087   12.2990    9.1925 C   0  0  1  0  0  0  0  0  0  0  0  0
    9.6562   13.5165    9.0019 O   0  0  0  0  0  0  0  0  0  0  0  0
  1  2  1  1  0  0  0
  1  5  1  0  0  0  0
  1 29  1  0  0  0  0
  3  4  1  6  0  0  0
  3  7  1  0  0  0  0
  3 34  1  0  0  0  0
  5  6  1  1  0  0  0
  5 16  1  0  0  0  0
  7 19  1  0  0  0  0
  8  4  1  0  0  0  0
  8 24  2  0  0  0  0
  9  8  1  6  0  0  0
  9 10  1  0  0  0  0
  9 13  1  0  0  0  0
 10 11  1  0  0  0  0
 11 12  1  0  0  0  0
 14 15  1  0  0  0  0
 14 35  1  0  0  0  0
 15 17  1  0  0  0  0
 16 18  1  6  0  0  0
 16 25  1  0  0  0  0
 19 20  1  6  0  0  0
 19 27  1  0  0  0  0
 21 22  1  0  0  0  0
 21 23  1  0  0  0  0
 23 17  1  0  0  0  0
 25 26  1  1  0  0  0
 25 28  1  0  0  0  0
 27  2  1  1  0  0  0
 27 30  1  0  0  0  0
 28 29  1  0  0  0  0
 28 32  1  6  0  0  0
 30 31  1  6  0  0  0
 30 34  1  0  0  0  0
 32 33  2  0  0  0  0
 34 35  1  1  0  0  0
M  END
>  <CHROM.1>
137.60011813,48.77492111,170.45301003,50.71002308,-160.23881956,158.83263328
60.72457799,-40.75246578,174.17632235,-57.96029407,-161.54231917,62.60208344
-57.09896810,8.36954733,11.34460767,8.79279180,2.84931120,-0.20695046,-2.73374718

>  <Name>
2f4t_lig

>  <RI>
0

>  <Rbt.Current_Directory>
/home/itssahil/PROJECTS/Mol_Feturizer/New_Systems/rnas/2f4t

>  <Rbt.Executable>
rbdock ($Id: //depot/dev/client3/rdock/2013.1/src/exe/rbdock.cxx#4 $)

>  <Rbt.Library>
libRbt.so (2013.1, Build901 2013/11/27)

>  <Rbt.Parameter_File>
/export/apps/rDock/src/rDock_2013.1_src/data/scripts/dock_solv.prm

>  <Rbt.Receptor>
prm/blind_docking_40.prm

>  <SCORE>
1.66897

>  <SCORE.INTER>
0.826837

>  <SCORE.INTER.CONST>
1

>  <SCORE.INTER.POLAR>
-0.744863

>  <SCORE.INTER.ROT>
13

>  <SCORE.INTER.SOLV>
17.8901

>  <SCORE.INTER.VDW>
-15.1959

>  <SCORE.INTER.norm>
0.0236239

>  <SCORE.INTRA>
-1.09481

>  <SCORE.INTRA.DIHEDRAL>
-10.0416

>  <SCORE.INTRA.DIHEDRAL.0>
23.8882

>  <SCORE.INTRA.POLAR>
0

>  <SCORE.INTRA.POLAR.0>
0

>  <SCORE.INTRA.REPUL>
0

>  <SCORE.INTRA.REPUL.0>
0

>  <SCORE.INTRA.SOLV>
1.92457

>  <SCORE.INTRA.SOLV.lig_0>
-97.6888

>  <SCORE.INTRA.VDW>
2.96373

>  <SCORE.INTRA.VDW.0>
-3.9206

>  <SCORE.INTRA.norm>
-0.0312802

>  <SCORE.RESTR>
1.93694

>  <SCORE.RESTR.CAVITY>
1.93694

>  <SCORE.RESTR.norm>
0.0553413

>  <SCORE.SYSTEM>
0

>  <SCORE.SYSTEM.CONST>
0

>  <SCORE.SYSTEM.DIHEDRAL>
0

>  <SCORE.SYSTEM.SOLV>
0

>  <SCORE.SYSTEM.norm>
0

>  <SCORE.heavy>
35

>  <SCORE.norm>
0.047685

>  <RMSD>
28.823

$$$$
2f4t_lig
 OpenBabel11021811433D
libRbt.so/2013.1/901 2013/11/27
 35 36  0  0  0  0  0  0  0  0999 V2000
   11.2468   11.1820    5.9723 C   0  0  2  0  0  0  0  0  0  0  0  0
    9.8340   10.8264    5.8149 O   0  0  0  0  0  0  0  0  0  0  0  0
    6.3978    9.7635    8.2066 C   0  0  2  0  0  0  0  0  0  0  0  0
    5.6016    9.2423    9.3278 N   0  0  0  0  0  0  0  0  0  0  0  0
   12.0549    9.9876    5.3808 C   0  0  2  0  0  0  0  0  0  0  0  0
   11.6688    9.7395    4.0115 N   0  0  0  0  0  0  0  0  0  0  0  0
    7.4280    8.6672    7.7479 C   0  0  0  0  0  0  0  0  0  0  0  0
    4.5629    7.9333    8.7567 C   0  0  0  0  0  0  0  0  0  0  0  0
    4.0814    7.8352   10.1873 C   0  0  1  0  0  0  0  0  0  0  0  0
    2.6124    8.2635   10.2103 C   0  0  0  0  0  0  0  0  0  0  0  0
    2.3616    9.7749   10.3448 C   0  0  0  0  0  0  0  0  0  0  0  0
    0.9193    9.9935   10.4895 N   0  0  0  0  0  0  0  0  0  0  0  0
    4.1008    6.5045   10.6332 O   0  0  0  0  0  0  0  0  0  0  0  0
    5.0704   12.5457    9.6238 C   0  0  0  0  0  0  0  0  0  0  0  0
    3.8718   11.9357    8.9134 C   0  0  0  0  0  0  0  0  0  0  0  0
   11.8396    8.7067    6.2557 C   0  0  1  0  0  0  0  0  0  0  0  0
    3.9563   12.0133    7.4385 N   0  0  0  0  0  0  0  0  0  0  0  0
   12.5690    7.6111    5.7381 O   0  0  0  0  0  0  0  0  0  0  0  0
    8.3009    9.1539    6.5828 C   0  0  2  0  0  0  0  0  0  0  0  0
    9.2749    8.1356    6.2024 N   0  0  0  0  0  0  0  0  0  0  0  0
    2.8543   10.3684    5.9181 C   0  0  0  0  0  0  0  0  0  0  0  0
    2.4093   11.3721    4.8061 N   0  0  0  0  0  0  0  0  0  0  0  0
    4.1743   10.7756    6.6372 C   0  0  0  0  0  0  0  0  0  0  0  0
    4.3965    7.4671    7.8111 O   0  0  0  0  0  0  0  0  0  0  0  0
   12.2855    9.0278    7.6860 C   0  0  2  0  0  0  0  0  0  0  0  0
   12.1279    7.9006    8.5324 O   0  0  0  0  0  0  0  0  0  0  0  0
    9.0319   10.4169    6.9643 C   0  0  2  0  0  0  0  0  0  0  0  0
   11.4728   10.2351    8.2364 C   0  0  2  0  0  0  0  0  0  0  0  0
   11.6237   11.3930    7.3890 O   0  0  0  0  0  0  0  0  0  0  0  0
    7.9951   11.5397    7.3992 C   0  0  2  0  0  0  0  0  0  0  0  0
    8.7359   12.7456    7.7546 O   0  0  0  0  0  0  0  0  0  0  0  0
   11.8893   10.6034    9.6104 C   0  0  0  0  0  0  0  0  0  0  0  0
   10.9477   11.3949   10.1693 N   0  0  0  0  0  0  0  0  0  0  0  0
    7.1732   11.0208    8.6298 C   0  0  1  0  0  0  0  0  0  0  0  0
    6.2734   11.9948    9.0535 O   0  0  0  0  0  0  0  0  0  0  0  0
  1  2  1  1  0  0  0
  1  5  1  0  0  0  0
  1 29  1  0  0  0  0
  3  4  1  1  0  0  0
  3  7  1  0  0  0  0
  3 34  1  0  0  0  0
  5  6  1  6  0  0  0
  5 16  1  0  0  0  0
  7 19  1  0  0  0  0
  8  4  1  0  0  0  0
  8 24  2  0  0  0  0
  9  8  1  6  0  0  0
  9 10  1  0  0  0  0
  9 13  1  0  0  0  0
 10 11  1  0  0  0  0
 11 12  1  0  0  0  0
 14 15  1  0  0  0  0
 14 35  1  0  0  0  0
 15 17  1  0  0  0  0
 16 18  1  6  0  0  0
 16 25  1  0  0  0  0
 19 20  1  1  0  0  0
 19 27  1  0  0  0  0
 21 22  1  0  0  0  0
 21 23  1  0  0  0  0
 23 17  1  0  0  0  0
 25 26  1  1  0  0  0
 25 28  1  0  0  0  0
 27  2  1  6  0  0  0
 27 30  1  0  0  0  0
 28 29  1  0  0  0  0
 28 32  1  1  0  0  0
 30 31  1  1  0  0  0
 30 34  1  0  0  0  0
 32 33  2  0  0  0  0
 34 35  1  6  0  0  0
M  END
>  <CHROM.1>
106.06424528,-67.80053103,113.13023828,-86.02150468,-174.22401120,-50.70849487
-53.57667240,109.79722840,67.47494814,106.22179214,-131.55176239,-163.93703602
29.82215984,7.46376875,9.94027388,7.84346133,0.13835496,0.19835307,-0.61073074

>  <Name>
2f4t_lig

>  <RI>
0

>  <Rbt.Current_Directory>
/home/itssahil/PROJECTS/Mol_Feturizer/New_Systems/rnas/2f4t

>  <Rbt.Executable>
rbdock ($Id: //depot/dev/client3/rdock/2013.1/src/exe/rbdock.cxx#4 $)

>  <Rbt.Library>
libRbt.so (2013.1, Build901 2013/11/27)

>  <Rbt.Parameter_File>
/export/apps/rDock/src/rDock_2013.1_src/data/scripts/dock_solv.prm

>  <Rbt.Receptor>
prm/blind_docking_20.prm

>  <SCORE>
4.84163

>  <SCORE.INTER>
-4.20349

>  <SCORE.INTER.CONST>
1

>  <SCORE.INTER.POLAR>
-1.59646

>  <SCORE.INTER.ROT>
13

>  <SCORE.INTER.SOLV>
14.4303

>  <SCORE.INTER.VDW>
-14.5576

>  <SCORE.INTER.norm>
-0.1201

>  <SCORE.INTRA>
5.22624

>  <SCORE.INTRA.DIHEDRAL>
1.83451

>  <SCORE.INTRA.DIHEDRAL.0>
23.8882

>  <SCORE.INTRA.POLAR>
0

>  <SCORE.INTRA.POLAR.0>
0

>  <SCORE.INTRA.REPUL>
0

>  <SCORE.INTRA.REPUL.0>
0

>  <SCORE.INTRA.SOLV>
8.64009

>  <SCORE.INTRA.SOLV.lig_0>
-97.6888

>  <SCORE.INTRA.VDW>
-0.0110565

>  <SCORE.INTRA.VDW.0>
-3.9206

>  <SCORE.INTRA.norm>
0.149321

>  <SCORE.RESTR>
3.81888

>  <SCORE.RESTR.CAVITY>
3.81888

>  <SCORE.RESTR.norm>
0.109111

>  <SCORE.SYSTEM>
0

>  <SCORE.SYSTEM.CONST>
0

>  <SCORE.SYSTEM.DIHEDRAL>
0

>  <SCORE.SYSTEM.SOLV>
0

>  <SCORE.SYSTEM.norm>
0

>  <SCORE.heavy>
35

>  <SCORE.norm>
0.138332

>  <RMSD>
28.834

$$$$
2f4t_lig
 OpenBabel11021811433D
libRbt.so/2013.1/901 2013/11/27
 35 36  0  0  0  0  0  0  0  0999 V2000
   12.1563   11.2660    5.8289 C   0  0  2  0  0  0  0  0  0  0  0  0
   10.7167   11.3813    5.5804 O   0  0  0  0  0  0  0  0  0  0  0  0
    6.9463   10.5831    7.5307 C   0  0  2  0  0  0  0  0  0  0  0  0
    5.9539    9.9589    8.4185 N   0  0  0  0  0  0  0  0  0  0  0  0
   12.5625    9.8472    5.3275 C   0  0  2  0  0  0  0  0  0  0  0  0
   12.1980    9.6730    3.9410 N   0  0  0  0  0  0  0  0  0  0  0  0
    7.6721    9.4649    6.6962 C   0  0  0  0  0  0  0  0  0  0  0  0
    4.5078    9.5479    7.4919 C   0  0  0  0  0  0  0  0  0  0  0  0
    3.9575    9.0085    8.7936 C   0  0  1  0  0  0  0  0  0  0  0  0
    3.1402   10.1251    9.4471 C   0  0  0  0  0  0  0  0  0  0  0  0
    2.6027    9.8199   10.8554 C   0  0  0  0  0  0  0  0  0  0  0  0
    1.8956   11.0059   11.3478 N   0  0  0  0  0  0  0  0  0  0  0  0
    3.0559    7.9582    8.5603 O   0  0  0  0  0  0  0  0  0  0  0  0
    6.3819   12.9239    9.9720 C   0  0  0  0  0  0  0  0  0  0  0  0
    5.8972   11.8641   10.9495 C   0  0  0  0  0  0  0  0  0  0  0  0
   11.8889    8.7488    6.2174 C   0  0  1  0  0  0  0  0  0  0  0  0
    6.9904   11.2072   11.6991 N   0  0  0  0  0  0  0  0  0  0  0  0
   12.2489    7.4524    5.7816 O   0  0  0  0  0  0  0  0  0  0  0  0
    8.7321   10.0515    5.7535 C   0  0  2  0  0  0  0  0  0  0  0  0
    9.4192    8.9926    5.0208 N   0  0  0  0  0  0  0  0  0  0  0  0
    9.2112   10.1613   11.2457 C   0  0  0  0  0  0  0  0  0  0  0  0
   10.0113    9.1003   10.4235 N   0  0  0  0  0  0  0  0  0  0  0  0
    7.6658   10.0049   11.1337 C   0  0  0  0  0  0  0  0  0  0  0  0
    4.2157    9.6576    6.4712 O   0  0  0  0  0  0  0  0  0  0  0  0
   12.3301    8.9755    7.6671 C   0  0  2  0  0  0  0  0  0  0  0  0
   11.7628    8.0022    8.5289 O   0  0  0  0  0  0  0  0  0  0  0  0
    9.7469   10.8494    6.5336 C   0  0  2  0  0  0  0  0  0  0  0  0
   11.9261   10.4060    8.1270 C   0  0  2  0  0  0  0  0  0  0  0  0
   12.4972   11.4104    7.2629 O   0  0  0  0  0  0  0  0  0  0  0  0
    9.0238   12.0014    7.3551 C   0  0  2  0  0  0  0  0  0  0  0  0
   10.0345   12.7541    8.0907 O   0  0  0  0  0  0  0  0  0  0  0  0
   12.3584   10.6840    9.5172 C   0  0  0  0  0  0  0  0  0  0  0  0
   11.6440   11.7185   10.0123 N   0  0  0  0  0  0  0  0  0  0  0  0
    7.9989   11.3492    8.3469 C   0  0  1  0  0  0  0  0  0  0  0  0
    7.3676   12.3329    9.1030 O   0  0  0  0  0  0  0  0  0  0  0  0
  1  2  1  1  0  0  0
  1  5  1  0  0  0  0
  1 29  1  0  0  0  0
  3  4  1  1  0  0  0
  3  7  1  0  0  0  0
  3 34  1  0  0  0  0
  5  6  1  6  0  0  0
  5 16  1  0  0  0  0
  7 19  1  0  0  0  0
  8  4  1  0  0  0  0
  8 24  2  0  0  0  0
  9  8  1  6  0  0  0
  9 10  1  0  0  0  0
  9 13  1  0  0  0  0
 10 11  1  0  0  0  0
 11 12  1  0  0  0  0
 14 15  1  0  0  0  0
 14 35  1  0  0  0  0
 15 17  1  0  0  0  0
 16 18  1  6  0  0  0
 16 25  1  0  0  0  0
 19 20  1  1  0  0  0
 19 27  1  0  0  0  0
 21 22  1  0  0  0  0
 21 23  1  0  0  0  0
 23 17  1  0  0  0  0
 25 26  1  1  0  0  0
 25 28  1  0  0  0  0
 27  2  1  6  0  0  0
 27 30  1  0  0  0  0
 28 29  1  0  0  0  0
 28 32  1  1  0  0  0
 30 31  1  1  0  0  0
 30 34  1  0  0  0  0
 32 33  2  0  0  0  0
 34 35  1  6  0  0  0
M  END
>  <CHROM.1>
83.84112124,-78.56740501,93.90197138,-174.36037838,177.79040899,54.05564011
33.39756450,-88.10362772,-168.09012660,132.93359002,-132.43639935,-160.61446615
44.79101703,8.47367998,10.29089687,8.14511961,0.35678094,-0.12501647,-1.98100911

>  <Name>
2f4t_lig

>  <RI>
0

>  <Rbt.Current_Directory>
/home/itssahil/PROJECTS/Mol_Feturizer/New_Systems/rnas/2f4t

>  <Rbt.Executable>
rbdock ($Id: //depot/dev/client3/rdock/2013.1/src/exe/rbdock.cxx#4 $)

>  <Rbt.Library>
libRbt.so (2013.1, Build901 2013/11/27)

>  <Rbt.Parameter_File>
/export/apps/rDock/src/rDock_2013.1_src/data/scripts/dock_solv.prm

>  <Rbt.Receptor>
prm/blind_docking_20.prm

>  <SCORE>
1.17395

>  <SCORE.INTER>
-5.07957

>  <SCORE.INTER.CONST>
1

>  <SCORE.INTER.POLAR>
-1.78575

>  <SCORE.INTER.ROT>
13

>  <SCORE.INTER.SOLV>
18.841

>  <SCORE.INTER.VDW>
-15.9809

>  <SCORE.INTER.norm>
-0.14513

>  <SCORE.INTRA>
2.27686

>  <SCORE.INTRA.DIHEDRAL>
-4.81199

>  <SCORE.INTRA.DIHEDRAL.0>
23.8882

>  <SCORE.INTRA.POLAR>
0

>  <SCORE.INTRA.POLAR.0>
0

>  <SCORE.INTRA.REPUL>
0

>  <SCORE.INTRA.REPUL.0>
0

>  <SCORE.INTRA.SOLV>
13.4534

>  <SCORE.INTRA.SOLV.lig_0>
-97.6888

>  <SCORE.INTRA.VDW>
-2.04387

>  <SCORE.INTRA.VDW.0>
-3.9206

>  <SCORE.INTRA.norm>
0.0650531

>  <SCORE.RESTR>
3.97666

>  <SCORE.RESTR.CAVITY>
3.97666

>  <SCORE.RESTR.norm>
0.113619

>  <SCORE.SYSTEM>
0

>  <SCORE.SYSTEM.CONST>
0

>  <SCORE.SYSTEM.DIHEDRAL>
0

>  <SCORE.SYSTEM.SOLV>
0

>  <SCORE.SYSTEM.norm>
0

>  <SCORE.heavy>
35

>  <SCORE.norm>
0.0335413

>  <RMSD>
28.850

$$$$
2f4t_lig
 OpenBabel11021811433D
libRbt.so/2013.1/901 2013/11/27
 35 36  0  0  0  0  0  0  0  0999 V2000
   11.4121   11.3651    6.2249 C   0  0  2  0  0  0  0  0  0  0  0  0
   10.0316   10.9707    5.9317 O   0  0  0  0  0  0  0  0  0  0  0  0
    6.4032    9.8438    7.9864 C   0  0  2  0  0  0  0  0  0  0  0  0
    5.5136    9.3045    9.0258 N   0  0  0  0  0  0  0  0  0  0  0  0
   12.2016   10.0358    6.4227 C   0  0  2  0  0  0  0  0  0  0  0  0
   12.0753    9.1901    5.2590 N   0  0  0  0  0  0  0  0  0  0  0  0
    7.4882    8.7654    7.6212 C   0  0  0  0  0  0  0  0  0  0  0  0
    4.4758    8.0581    8.3268 C   0  0  0  0  0  0  0  0  0  0  0  0
    3.8918    7.9172    9.7151 C   0  0  1  0  0  0  0  0  0  0  0  0
    2.6960    8.8672    9.8114 C   0  0  0  0  0  0  0  0  0  0  0  0
    2.4625    9.5058   11.1908 C   0  0  0  0  0  0  0  0  0  0  0  0
    2.1767    8.4373   12.1530 N   0  0  0  0  0  0  0  0  0  0  0  0
    3.3751    6.6273    9.9134 O   0  0  0  0  0  0  0  0  0  0  0  0
    4.9925   12.8928    8.6963 C   0  0  0  0  0  0  0  0  0  0  0  0
    3.7942   11.9942    8.4316 C   0  0  0  0  0  0  0  0  0  0  0  0
   11.6914    9.2925    7.7032 C   0  0  1  0  0  0  0  0  0  0  0  0
    3.9536   11.1320    7.2401 N   0  0  0  0  0  0  0  0  0  0  0  0
   12.3991    8.0845    7.9036 O   0  0  0  0  0  0  0  0  0  0  0  0
    8.4588    9.2716    6.5451 C   0  0  2  0  0  0  0  0  0  0  0  0
    9.4793    8.2699    6.2528 N   0  0  0  0  0  0  0  0  0  0  0  0
    3.1843   10.3949    4.9826 C   0  0  0  0  0  0  0  0  0  0  0  0
    3.4516   11.6551    4.0980 N   0  0  0  0  0  0  0  0  0  0  0  0
    2.7595   10.7333    6.4422 C   0  0  0  0  0  0  0  0  0  0  0  0
    4.3615    7.6383    7.3522 O   0  0  0  0  0  0  0  0  0  0  0  0
   11.8710   10.2313    8.9007 C   0  0  2  0  0  0  0  0  0  0  0  0
   11.4377    9.6121   10.1010 O   0  0  0  0  0  0  0  0  0  0  0  0
    9.1318   10.5428    6.9990 C   0  0  2  0  0  0  0  0  0  0  0  0
   11.0864   11.5533    8.6606 C   0  0  2  0  0  0  0  0  0  0  0  0
   11.5164   12.1993    7.4443 O   0  0  0  0  0  0  0  0  0  0  0  0
    8.0421   11.6479    7.3401 C   0  0  2  0  0  0  0  0  0  0  0  0
    8.7282   12.8622    7.7688 O   0  0  0  0  0  0  0  0  0  0  0  0
   11.2533   12.5083    9.7818 C   0  0  0  0  0  0  0  0  0  0  0  0
   10.6700   12.0053   10.8919 N   0  0  0  0  0  0  0  0  0  0  0  0
    7.1166   11.1097    8.4860 C   0  0  1  0  0  0  0  0  0  0  0  0
    6.1666   12.0680    8.8280 O   0  0  0  0  0  0  0  0  0  0  0  0
  1  2  1  1  0  0  0
  1  5  1  0  0  0  0
  1 29  1  0  0  0  0
  3  4  1  1  0  0  0
  3  7  1  0  0  0  0
  3 34  1  0  0  0  0
  5  6  1  6  0  0  0
  5 16  1  0  0  0  0
  7 19  1  0  0  0  0
  8  4  1  0  0  0  0
  8 24  2  0  0  0  0
  9  8  1  6  0  0  0
  9 10  1  0  0  0  0
  9 13  1  0  0  0  0
 10 11  1  0  0  0  0
 11 12  1  0  0  0  0
 14 15  1  0  0  0  0
 14 35  1  0  0  0  0
 15 17  1  0  0  0  0
 16 18  1  1  0  0  0
 16 25  1  0  0  0  0
 19 20  1  1  0  0  0
 19 27  1  0  0  0  0
 21 22  1  0  0  0  0
 21 23  1  0  0  0  0
 23 17  1  0  0  0  0
 25 26  1  1  0  0  0
 25 28  1  0  0  0  0
 27  2  1  6  0  0  0
 27 30  1  0  0  0  0
 28 29  1  0  0  0  0
 28 32  1  1  0  0  0
 30 31  1  1  0  0  0
 30 34  1  0  0  0  0
 32 33  2  0  0  0  0
 34 35  1  6  0  0  0
M  END
>  <CHROM.1>
78.07100580,-71.59719681,91.05259451,-145.99997357,-62.46344167,-56.80255315
53.91132121,-149.30037252,-77.45638290,155.42842416,-132.47112800,-66.41147828
-46.46101292,7.42018481,10.18494215,8.01851930,0.17208243,-0.05455354,-1.08626368

>  <Name>
2f4t_lig

>  <RI>
0

>  <Rbt.Current_Directory>
/home/itssahil/PROJECTS/Mol_Feturizer/New_Systems/rnas/2f4t

>  <Rbt.Executable>
rbdock ($Id: //depot/dev/client3/rdock/2013.1/src/exe/rbdock.cxx#4 $)

>  <Rbt.Library>
libRbt.so (2013.1, Build901 2013/11/27)

>  <Rbt.Parameter_File>
/export/apps/rDock/src/rDock_2013.1_src/data/scripts/dock_solv.prm

>  <Rbt.Receptor>
prm/blind_docking_20.prm

>  <SCORE>
6.24121

>  <SCORE.INTER>
2.19647

>  <SCORE.INTER.CONST>
1

>  <SCORE.INTER.POLAR>
-0.916515

>  <SCORE.INTER.ROT>
13

>  <SCORE.INTER.SOLV>
20.9404

>  <SCORE.INTER.VDW>
-14.7274

>  <SCORE.INTER.norm>
0.0627563

>  <SCORE.INTRA>
1.25751

>  <SCORE.INTRA.DIHEDRAL>
-6.01125

>  <SCORE.INTRA.DIHEDRAL.0>
23.8882

>  <SCORE.INTRA.POLAR>
0

>  <SCORE.INTRA.POLAR.0>
0

>  <SCORE.INTRA.REPUL>
0

>  <SCORE.INTRA.REPUL.0>
0

>  <SCORE.INTRA.SOLV>
11.2742

>  <SCORE.INTRA.SOLV.lig_0>
-97.6888

>  <SCORE.INTRA.VDW>
-1.37394

>  <SCORE.INTRA.VDW.0>
-3.9206

>  <SCORE.INTRA.norm>
0.0359289

>  <SCORE.RESTR>
2.78722

>  <SCORE.RESTR.CAVITY>
2.78722

>  <SCORE.RESTR.norm>
0.0796349

>  <SCORE.SYSTEM>
0

>  <SCORE.SYSTEM.CONST>
0

>  <SCORE.SYSTEM.DIHEDRAL>
0

>  <SCORE.SYSTEM.SOLV>
0

>  <SCORE.SYSTEM.norm>
0

>  <SCORE.heavy>
35

>  <SCORE.norm>
0.17832

>  <RMSD>
28.860

$$$$
2f4t_lig
 OpenBabel11021811433D
libRbt.so/2013.1/901 2013/11/27
 35 36  0  0  0  0  0  0  0  0999 V2000
   11.4385   11.5443    6.5273 C   0  0  2  0  0  0  0  0  0  0  0  0
   10.0433   11.4050    6.1015 O   0  0  0  0  0  0  0  0  0  0  0  0
    6.1956   10.2781    7.7084 C   0  0  2  0  0  0  0  0  0  0  0  0
    5.1899    9.6082    8.5466 N   0  0  0  0  0  0  0  0  0  0  0  0
   12.0642   10.1217    6.4074 C   0  0  2  0  0  0  0  0  0  0  0  0
   11.9163    9.6114    5.0646 N   0  0  0  0  0  0  0  0  0  0  0  0
    7.1534    9.1982    7.0840 C   0  0  0  0  0  0  0  0  0  0  0  0
    5.9701    8.9330    9.9798 C   0  0  0  0  0  0  0  0  0  0  0  0
    4.5896    8.4581   10.3760 C   0  0  1  0  0  0  0  0  0  0  0  0
    3.7897    8.2401    9.0897 C   0  0  0  0  0  0  0  0  0  0  0  0
    2.2950    7.9318    9.2795 C   0  0  0  0  0  0  0  0  0  0  0  0
    1.6376    8.0053    7.9712 N   0  0  0  0  0  0  0  0  0  0  0  0
    4.6517    7.2059   11.0070 O   0  0  0  0  0  0  0  0  0  0  0  0
    5.2099   13.2560    9.1781 C   0  0  0  0  0  0  0  0  0  0  0  0
    3.8984   12.7206    8.6242 C   0  0  0  0  0  0  0  0  0  0  0  0
   11.3993    9.1526    7.4424 C   0  0  1  0  0  0  0  0  0  0  0  0
    4.0464   12.0150    7.3324 N   0  0  0  0  0  0  0  0  0  0  0  0
   11.9570    7.8559    7.3532 O   0  0  0  0  0  0  0  0  0  0  0  0
    8.2371    9.8352    6.2030 C   0  0  2  0  0  0  0  0  0  0  0  0
    9.1368    8.8178    5.6684 N   0  0  0  0  0  0  0  0  0  0  0  0
    3.1628   10.9339    5.2631 C   0  0  0  0  0  0  0  0  0  0  0  0
    2.8909    9.4857    5.7833 N   0  0  0  0  0  0  0  0  0  0  0  0
    2.9365   12.0380    6.3378 C   0  0  0  0  0  0  0  0  0  0  0  0
    6.9728    8.9064   10.3446 O   0  0  0  0  0  0  0  0  0  0  0  0
   11.6082    9.7375    8.8431 C   0  0  2  0  0  0  0  0  0  0  0  0
   11.0381    8.8983    9.8343 O   0  0  0  0  0  0  0  0  0  0  0  0
    9.0402   10.8353    6.9966 C   0  0  2  0  0  0  0  0  0  0  0  0
   10.9892   11.1630    8.9203 C   0  0  2  0  0  0  0  0  0  0  0  0
   11.5599   12.0324    7.9203 O   0  0  0  0  0  0  0  0  0  0  0  0
    8.0824   11.9477    7.6050 C   0  0  2  0  0  0  0  0  0  0  0  0
    8.8926   12.8986    8.3590 O   0  0  0  0  0  0  0  0  0  0  0  0
   11.1919   11.7839   10.2509 C   0  0  0  0  0  0  0  0  0  0  0  0
   10.5683   11.0427   11.1930 N   0  0  0  0  0  0  0  0  0  0  0  0
    7.0355   11.2555    8.5452 C   0  0  1  0  0  0  0  0  0  0  0  0
    6.1974   12.2086    9.1172 O   0  0  0  0  0  0  0  0  0  0  0  0
  1  2  1  1  0  0  0
  1  5  1  0  0  0  0
  1 29  1  0  0  0  0
  3  4  1  1  0  0  0
  3  7  1  0  0  0  0
  3 34  1  0  0  0  0
  5  6  1  6  0  0  0
  5 16  1  0  0  0  0
  7 19  1  0  0  0  0
  8  4  1  0  0  0  0
  8 24  2  0  0  0  0
  9  8  1  6  0  0  0
  9 10  1  0  0  0  0
  9 13  1  0  0  0  0
 10 11  1  0  0  0  0
 11 12  1  0  0  0  0
 14 15  1  0  0  0  0
 14 35  1  0  0  0  0
 15 17  1  0  0  0  0
 16 18  1  1  0  0  0
 16 25  1  0  0  0  0
 19 20  1  1  0  0  0
 19 27  1  0  0  0  0
 21 22  1  0  0  0  0
 21 23  1  0  0  0  0
 23 17  1  0  0  0  0
 25 26  1  1  0  0  0
 25 28  1  0  0  0  0
 27  2  1  6  0  0  0
 27 30  1  0  0  0  0
 28 29  1  0  0  0  0
 28 32  1  1  0  0  0
 30 31  1  1  0  0  0
 30 34  1  0  0  0  0
 32 33  2  0  0  0  0
 34 35  1  6  0  0  0
M  END
>  <CHROM.1>
77.88877545,68.93374157,28.30928427,-172.26260354,169.37709155,-48.10911644
61.62739773,-148.91753289,73.51906655,-164.59642358,-133.95440501,-62.12680241
-56.30076240,7.52096793,10.26422129,8.08094556,0.10131226,-0.01425435,-0.81782953

>  <Name>
2f4t_lig

>  <RI>
0

>  <Rbt.Current_Directory>
/home/itssahil/PROJECTS/Mol_Feturizer/New_Systems/rnas/2f4t

>  <Rbt.Executable>
rbdock ($Id: //depot/dev/client3/rdock/2013.1/src/exe/rbdock.cxx#4 $)

>  <Rbt.Library>
libRbt.so (2013.1, Build901 2013/11/27)

>  <Rbt.Parameter_File>
/export/apps/rDock/src/rDock_2013.1_src/data/scripts/dock_solv.prm

>  <Rbt.Receptor>
prm/blind_docking_20.prm

>  <SCORE>
23.547

>  <SCORE.INTER>
3.89614

>  <SCORE.INTER.CONST>
1

>  <SCORE.INTER.POLAR>
-0.904676

>  <SCORE.INTER.ROT>
13

>  <SCORE.INTER.SOLV>
12.6442

>  <SCORE.INTER.VDW>
-10.8684

>  <SCORE.INTER.norm>
0.111318

>  <SCORE.INTRA>
14.8476

>  <SCORE.INTRA.DIHEDRAL>
-9.8165

>  <SCORE.INTRA.DIHEDRAL.0>
23.8882

>  <SCORE.INTRA.POLAR>
0

>  <SCORE.INTRA.POLAR.0>
0

>  <SCORE.INTRA.REPUL>
0.0156204

>  <SCORE.INTRA.REPUL.0>
0

>  <SCORE.INTRA.SOLV>
14.555

>  <SCORE.INTRA.SOLV.lig_0>
-97.6888

>  <SCORE.INTRA.VDW>
12.4003

>  <SCORE.INTRA.VDW.0>
-3.9206

>  <SCORE.INTRA.norm>
0.424218

>  <SCORE.RESTR>
4.80322

>  <SCORE.RESTR.CAVITY>
4.80322

>  <SCORE.RESTR.norm>
0.137235

>  <SCORE.SYSTEM>
0

>  <SCORE.SYSTEM.CONST>
0

>  <SCORE.SYSTEM.DIHEDRAL>
0

>  <SCORE.SYSTEM.SOLV>
0

>  <SCORE.SYSTEM.norm>
0

>  <SCORE.heavy>
35

>  <SCORE.norm>
0.672771

>  <RMSD>
28.867

$$$$
2f4t_lig
 OpenBabel11021811433D
libRbt.so/2013.1/901 2013/11/27
 35 36  0  0  0  0  0  0  0  0999 V2000
   10.9060    9.4546    8.9969 C   0  0  2  0  0  0  0  0  0  0  0  0
   10.1203   10.6658    8.7462 O   0  0  0  0  0  0  0  0  0  0  0  0
    6.0620    9.3744    9.4675 C   0  0  2  0  0  0  0  0  0  0  0  0
    4.6589    9.4051    9.9069 N   0  0  0  0  0  0  0  0  0  0  0  0
   12.3869    9.8386    8.6984 C   0  0  2  0  0  0  0  0  0  0  0  0
   12.7921   10.9687    9.5010 N   0  0  0  0  0  0  0  0  0  0  0  0
    6.9888    9.8159   10.6590 C   0  0  0  0  0  0  0  0  0  0  0  0
    4.0752   11.0718    9.9039 C   0  0  0  0  0  0  0  0  0  0  0  0
    2.7569   10.4978   10.3736 C   0  0  1  0  0  0  0  0  0  0  0  0
    2.1666    9.6897    9.2158 C   0  0  0  0  0  0  0  0  0  0  0  0
    2.0534    8.1742    9.4514 C   0  0  0  0  0  0  0  0  0  0  0  0
    1.0831    7.9441   10.5260 N   0  0  0  0  0  0  0  0  0  0  0  0
    2.9523    9.5833   11.4204 O   0  0  0  0  0  0  0  0  0  0  0  0
    4.7945   10.0626    5.9564 C   0  0  0  0  0  0  0  0  0  0  0  0
    3.6376   11.0421    6.0813 C   0  0  0  0  0  0  0  0  0  0  0  0
   12.5647   10.1519    7.1744 C   0  0  1  0  0  0  0  0  0  0  0  0
    3.1914   11.5982    4.7851 N   0  0  0  0  0  0  0  0  0  0  0  0
   13.9042   10.4985    6.8812 O   0  0  0  0  0  0  0  0  0  0  0  0
    8.4715    9.8156   10.2613 C   0  0  2  0  0  0  0  0  0  0  0  0
    9.3069   10.2672   11.3696 N   0  0  0  0  0  0  0  0  0  0  0  0
    2.8330   10.3850    2.6331 C   0  0  0  0  0  0  0  0  0  0  0  0
    2.9973   11.5182    1.5697 N   0  0  0  0  0  0  0  0  0  0  0  0
    2.1851   10.8656    3.9653 C   0  0  0  0  0  0  0  0  0  0  0  0
    4.5094   12.0173    9.6659 O   0  0  0  0  0  0  0  0  0  0  0  0
   12.1395    8.9117    6.3816 C   0  0  2  0  0  0  0  0  0  0  0  0
   12.2883    9.1244    4.9872 O   0  0  0  0  0  0  0  0  0  0  0  0
    8.6983   10.7175    9.0739 C   0  0  2  0  0  0  0  0  0  0  0  0
   10.6649    8.5467    6.7185 C   0  0  2  0  0  0  0  0  0  0  0  0
   10.4950    8.3235    8.1337 O   0  0  0  0  0  0  0  0  0  0  0  0
    7.7878   10.2582    7.8553 C   0  0  2  0  0  0  0  0  0  0  0  0
    8.0377   11.1474    6.7257 O   0  0  0  0  0  0  0  0  0  0  0  0
   10.2155    7.3330    5.9961 C   0  0  0  0  0  0  0  0  0  0  0  0
   11.2892    6.5813    5.6678 N   0  0  0  0  0  0  0  0  0  0  0  0
    6.2830   10.3364    8.2898 C   0  0  1  0  0  0  0  0  0  0  0  0
    5.4565    9.9663    7.2326 O   0  0  0  0  0  0  0  0  0  0  0  0
  1  2  1  6  0  0  0
  1  5  1  0  0  0  0
  1 29  1  0  0  0  0
  3  4  1  1  0  0  0
  3  7  1  0  0  0  0
  3 34  1  0  0  0  0
  5  6  1  1  0  0  0
  5 16  1  0  0  0  0
  7 19  1  0  0  0  0
  8  4  1  0  0  0  0
  8 24  2  0  0  0  0
  9  8  1  6  0  0  0
  9 10  1  0  0  0  0
  9 13  1  0  0  0  0
 10 11  1  0  0  0  0
 11 12  1  0  0  0  0
 14 15  1  0  0  0  0
 14 35  1  0  0  0  0
 15 17  1  0  0  0  0
 16 18  1  1  0  0  0
 16 25  1  0  0  0  0
 19 20  1  1  0  0  0
 19 27  1  0  0  0  0
 21 22  1  0  0  0  0
 21 23  1  0  0  0  0
 23 17  1  0  0  0  0
 25 26  1  6  0  0  0
 25 28  1  0  0  0  0
 27  2  1  6  0  0  0
 27 30  1  0  0  0  0
 28 29  1  0  0  0  0
 28 32  1  6  0  0  0
 30 31  1  6  0  0  0
 30 34  1  0  0  0  0
 32 33  2  0  0  0  0
 34 35  1  6  0  0  0
M  END
>  <CHROM.1>
-172.89186301,78.37662061,-68.51951930,114.40490811,65.62381655,159.19702969
-77.17542979,86.51198552,-77.22186283,-114.47238518,30.74692122,23.87005223
171.13009563,7.17209299,9.89547596,7.82162408,-0.00777338,-0.07799658,1.63522697

>  <Name>
2f4t_lig

>  <RI>
0

>  <Rbt.Current_Directory>
/home/itssahil/PROJECTS/Mol_Feturizer/New_Systems/rnas/2f4t

>  <Rbt.Executable>
rbdock ($Id: //depot/dev/client3/rdock/2013.1/src/exe/rbdock.cxx#4 $)

>  <Rbt.Library>
libRbt.so (2013.1, Build901 2013/11/27)

>  <Rbt.Parameter_File>
/export/apps/rDock/src/rDock_2013.1_src/data/scripts/dock_solv.prm

>  <Rbt.Receptor>
prm/blind_docking_20.prm

>  <SCORE>
3.5705

>  <SCORE.INTER>
-6.54237

>  <SCORE.INTER.CONST>
1

>  <SCORE.INTER.POLAR>
-1.90879

>  <SCORE.INTER.ROT>
13

>  <SCORE.INTER.SOLV>
17.4132

>  <SCORE.INTER.VDW>
-16.07

>  <SCORE.INTER.norm>
-0.186925

>  <SCORE.INTRA>
7.18094

>  <SCORE.INTRA.DIHEDRAL>
-6.86697

>  <SCORE.INTRA.DIHEDRAL.0>
23.8882

>  <SCORE.INTRA.POLAR>
0

>  <SCORE.INTRA.POLAR.0>
0

>  <SCORE.INTRA.REPUL>
0

>  <SCORE.INTRA.REPUL.0>
0

>  <SCORE.INTRA.SOLV>
5.00908

>  <SCORE.INTRA.SOLV.lig_0>
-97.6888

>  <SCORE.INTRA.VDW>
8.10988

>  <SCORE.INTRA.VDW.0>
-3.9206

>  <SCORE.INTRA.norm>
0.20517

>  <SCORE.RESTR>
2.93193

>  <SCORE.RESTR.CAVITY>
2.93193

>  <SCORE.RESTR.norm>
0.0837695

>  <SCORE.SYSTEM>
0

>  <SCORE.SYSTEM.CONST>
0

>  <SCORE.SYSTEM.DIHEDRAL>
0

>  <SCORE.SYSTEM.SOLV>
0

>  <SCORE.SYSTEM.norm>
0

>  <SCORE.heavy>
35

>  <SCORE.norm>
0.102014

>  <RMSD>
28.915

$$$$
2f4t_lig
 OpenBabel11021811433D
libRbt.so/2013.1/901 2013/11/27
 35 36  0  0  0  0  0  0  0  0999 V2000
    9.1675   13.7764    9.8355 C   0  0  2  0  0  0  0  0  0  0  0  0
    8.9423   13.7495    8.3878 O   0  0  0  0  0  0  0  0  0  0  0  0
    6.3647   10.3107    7.9542 C   0  0  2  0  0  0  0  0  0  0  0  0
    5.3435    9.4097    7.3993 N   0  0  0  0  0  0  0  0  0  0  0  0
   10.3136   14.8068   10.0689 C   0  0  2  0  0  0  0  0  0  0  0  0
    9.9638   16.0928    9.5128 N   0  0  0  0  0  0  0  0  0  0  0  0
    5.7601   11.7557    8.0960 C   0  0  0  0  0  0  0  0  0  0  0  0
    4.0110    9.2487    8.5471 C   0  0  0  0  0  0  0  0  0  0  0  0
    3.3792    8.3343    7.5210 C   0  0  1  0  0  0  0  0  0  0  0  0
    3.6327    6.8931    7.9689 C   0  0  0  0  0  0  0  0  0  0  0  0
    3.0313    6.5032    9.3295 C   0  0  0  0  0  0  0  0  0  0  0  0
    2.9931    5.0403    9.4164 N   0  0  0  0  0  0  0  0  0  0  0  0
    1.9845    8.4908    7.5007 O   0  0  0  0  0  0  0  0  0  0  0  0
    9.1050    8.0915    6.5735 C   0  0  0  0  0  0  0  0  0  0  0  0
   10.2936    8.2655    7.5064 C   0  0  0  0  0  0  0  0  0  0  0  0
   11.6477   14.2786    9.4416 C   0  0  1  0  0  0  0  0  0  0  0  0
   11.4872    7.4953    7.0931 N   0  0  0  0  0  0  0  0  0  0  0  0
   12.7029   15.1978    9.6468 O   0  0  0  0  0  0  0  0  0  0  0  0
    6.7825   12.7509    8.6621 C   0  0  2  0  0  0  0  0  0  0  0  0
    6.2115   14.0915    8.7460 N   0  0  0  0  0  0  0  0  0  0  0  0
   12.4357    9.5395    6.0194 C   0  0  0  0  0  0  0  0  0  0  0  0
   13.0979   10.0915    7.3227 N   0  0  0  0  0  0  0  0  0  0  0  0
   12.3415    7.9857    5.9746 C   0  0  0  0  0  0  0  0  0  0  0  0
    3.8046    9.6461    9.5159 O   0  0  0  0  0  0  0  0  0  0  0  0
   11.9731   12.9270   10.0857 C   0  0  2  0  0  0  0  0  0  0  0  0
   13.1826   12.3960    9.5688 O   0  0  0  0  0  0  0  0  0  0  0  0
    8.0136   12.7934    7.7917 C   0  0  2  0  0  0  0  0  0  0  0  0
   10.8010   11.9312    9.8498 C   0  0  2  0  0  0  0  0  0  0  0  0
    9.5619   12.4537   10.3724 O   0  0  0  0  0  0  0  0  0  0  0  0
    8.6482   11.3417    7.6692 C   0  0  2  0  0  0  0  0  0  0  0  0
    9.8372   11.4224    6.8273 O   0  0  0  0  0  0  0  0  0  0  0  0
   11.0568   10.6147   10.4809 C   0  0  0  0  0  0  0  0  0  0  0  0
   11.8239    9.8636    9.6604 N   0  0  0  0  0  0  0  0  0  0  0  0
    7.5893   10.3786    7.0285 C   0  0  1  0  0  0  0  0  0  0  0  0
    8.1256    9.1024    6.8815 O   0  0  0  0  0  0  0  0  0  0  0  0
  1  2  1  6  0  0  0
  1  5  1  0  0  0  0
  1 29  1  0  0  0  0
  3  4  1  6  0  0  0
  3  7  1  0  0  0  0
  3 34  1  0  0  0  0
  5  6  1  6  0  0  0
  5 16  1  0  0  0  0
  7 19  1  0  0  0  0
  8  4  1  0  0  0  0
  8 24  2  0  0  0  0
  9  8  1  1  0  0  0
  9 10  1  0  0  0  0
  9 13  1  0  0  0  0
 10 11  1  0  0  0  0
 11 12  1  0  0  0  0
 14 15  1  0  0  0  0
 14 35  1  0  0  0  0
 15 17  1  0  0  0  0
 16 18  1  1  0  0  0
 16 25  1  0  0  0  0
 19 20  1  6  0  0  0
 19 27  1  0  0  0  0
 21 22  1  0  0  0  0
 21 23  1  0  0  0  0
 23 17  1  0  0  0  0
 25 26  1  6  0  0  0
 25 28  1  0  0  0  0
 27  2  1  1  0  0  0
 27 30  1  0  0  0  0
 28 29  1  0  0  0  0
 28 32  1  1  0  0  0
 30 31  1  6  0  0  0
 30 34  1  0  0  0  0
 32 33  2  0  0  0  0
 34 35  1  1  0  0  0
M  END
>  <CHROM.1>
174.23376354,-65.04296791,100.43685848,61.19912823,162.58892299,-166.79874386
62.15601733,77.26966382,61.99745180,37.01333105,42.92841709,-83.14284822
-160.96816128,8.45172959,10.77431892,8.40125894,0.55947174,0.10048000,0.32410497

>  <Name>
2f4t_lig

>  <RI>
0

>  <Rbt.Current_Directory>
/home/itssahil/PROJECTS/Mol_Feturizer/New_Systems/rnas/2f4t

>  <Rbt.Executable>
rbdock ($Id: //depot/dev/client3/rdock/2013.1/src/exe/rbdock.cxx#4 $)

>  <Rbt.Library>
libRbt.so (2013.1, Build901 2013/11/27)

>  <Rbt.Parameter_File>
/export/apps/rDock/src/rDock_2013.1_src/data/scripts/dock_solv.prm

>  <Rbt.Receptor>
prm/blind_docking_40.prm

>  <SCORE>
-0.327384

>  <SCORE.INTER>
2.65265

>  <SCORE.INTER.CONST>
1

>  <SCORE.INTER.POLAR>
0

>  <SCORE.INTER.ROT>
13

>  <SCORE.INTER.SOLV>
10.857

>  <SCORE.INTER.VDW>
-14.1172

>  <SCORE.INTER.norm>
0.0757901

>  <SCORE.INTRA>
-3.02769

>  <SCORE.INTRA.DIHEDRAL>
-14.8299

>  <SCORE.INTRA.DIHEDRAL.0>
23.8882

>  <SCORE.INTRA.POLAR>
0

>  <SCORE.INTRA.POLAR.0>
0

>  <SCORE.INTRA.REPUL>
0

>  <SCORE.INTRA.REPUL.0>
0

>  <SCORE.INTRA.SOLV>
7.10659

>  <SCORE.INTRA.SOLV.lig_0>
-97.6888

>  <SCORE.INTRA.VDW>
0.83398

>  <SCORE.INTRA.VDW.0>
-3.9206

>  <SCORE.INTRA.norm>
-0.0865053

>  <SCORE.RESTR>
0.0476501

>  <SCORE.RESTR.CAVITY>
0.0476501

>  <SCORE.RESTR.norm>
0.00136143

>  <SCORE.SYSTEM>
0

>  <SCORE.SYSTEM.CONST>
0

>  <SCORE.SYSTEM.DIHEDRAL>
0

>  <SCORE.SYSTEM.SOLV>
0

>  <SCORE.SYSTEM.norm>
0

>  <SCORE.heavy>
35

>  <SCORE.norm>
-0.00935383

>  <RMSD>
28.926

$$$$
2f4t_lig
 OpenBabel11021811433D
libRbt.so/2013.1/901 2013/11/27
 35 36  0  0  0  0  0  0  0  0999 V2000
    4.7313   12.1545    9.4691 C   0  0  2  0  0  0  0  0  0  0  0  0
    5.6288   11.9226   10.6040 O   0  0  0  0  0  0  0  0  0  0  0  0
    9.5609   12.5022    8.9129 C   0  0  2  0  0  0  0  0  0  0  0  0
   10.9654   12.9210    8.7909 N   0  0  0  0  0  0  0  0  0  0  0  0
    3.4519   11.3128    9.7594 C   0  0  2  0  0  0  0  0  0  0  0  0
    2.8802   11.6778   11.0344 N   0  0  0  0  0  0  0  0  0  0  0  0
    8.6897   13.7323    9.3618 C   0  0  0  0  0  0  0  0  0  0  0  0
   11.4983   13.6505   10.3084 C   0  0  0  0  0  0  0  0  0  0  0  0
   12.8366   13.8318    9.6269 C   0  0  1  0  0  0  0  0  0  0  0  0
   13.4183   12.4390    9.3743 C   0  0  0  0  0  0  0  0  0  0  0  0
   14.9533   12.3452    9.3936 C   0  0  0  0  0  0  0  0  0  0  0  0
   15.4920   13.3947    8.5232 N   0  0  0  0  0  0  0  0  0  0  0  0
   12.6798   14.4182    8.3613 O   0  0  0  0  0  0  0  0  0  0  0  0
   10.5273    9.0489    8.9470 C   0  0  0  0  0  0  0  0  0  0  0  0
    9.9580    9.0556    7.5365 C   0  0  0  0  0  0  0  0  0  0  0  0
    3.7938    9.7850    9.7249 C   0  0  1  0  0  0  0  0  0  0  0  0
   10.2378    7.8154    6.7801 N   0  0  0  0  0  0  0  0  0  0  0  0
    2.6439    9.0025    9.9815 O   0  0  0  0  0  0  0  0  0  0  0  0
    7.2092   13.3583    9.5186 C   0  0  2  0  0  0  0  0  0  0  0  0
    6.4290   14.5045    9.9745 N   0  0  0  0  0  0  0  0  0  0  0  0
   12.4492    8.7193    6.0562 C   0  0  0  0  0  0  0  0  0  0  0  0
   13.6016    8.4455    5.0370 N   0  0  0  0  0  0  0  0  0  0  0  0
   11.6425    7.4456    6.4463 C   0  0  0  0  0  0  0  0  0  0  0  0
   11.0340   13.8463   11.2492 O   0  0  0  0  0  0  0  0  0  0  0  0
    4.3745    9.4591    8.3450 C   0  0  2  0  0  0  0  0  0  0  0  0
    4.6958    8.0815    8.2414 O   0  0  0  0  0  0  0  0  0  0  0  0
    7.0529   12.2308   10.5081 C   0  0  2  0  0  0  0  0  0  0  0  0
    5.6368   10.3300    8.0816 C   0  0  2  0  0  0  0  0  0  0  0  0
    5.3280   11.7359    8.1799 O   0  0  0  0  0  0  0  0  0  0  0  0
    7.9060   10.9729   10.0446 C   0  0  2  0  0  0  0  0  0  0  0  0
    7.7261    9.9027   11.0200 O   0  0  0  0  0  0  0  0  0  0  0  0
    6.2193   10.0712    6.7435 C   0  0  0  0  0  0  0  0  0  0  0  0
    7.4479   10.6289    6.6720 N   0  0  0  0  0  0  0  0  0  0  0  0
    9.4159   11.3880    9.9611 C   0  0  1  0  0  0  0  0  0  0  0  0
   10.1951   10.2979    9.5839 O   0  0  0  0  0  0  0  0  0  0  0  0
  1  2  1  1  0  0  0
  1  5  1  0  0  0  0
  1 29  1  0  0  0  0
  3  4  1  1  0  0  0
  3  7  1  0  0  0  0
  3 34  1  0  0  0  0
  5  6  1  1  0  0  0
  5 16  1  0  0  0  0
  7 19  1  0  0  0  0
  8  4  1  0  0  0  0
  8 24  2  0  0  0  0
  9  8  1  6  0  0  0
  9 10  1  0  0  0  0
  9 13  1  0  0  0  0
 10 11  1  0  0  0  0
 11 12  1  0  0  0  0
 14 15  1  0  0  0  0
 14 35  1  0  0  0  0
 15 17  1  0  0  0  0
 16 18  1  6  0  0  0
 16 25  1  0  0  0  0
 19 20  1  1  0  0  0
 19 27  1  0  0  0  0
 21 22  1  0  0  0  0
 21 23  1  0  0  0  0
 23 17  1  0  0  0  0
 25 26  1  1  0  0  0
 25 28  1  0  0  0  0
 27  2  1  6  0  0  0
 27 30  1  0  0  0  0
 28 29  1  0  0  0  0
 28 32  1  6  0  0  0
 30 31  1  1  0  0  0
 30 34  1  0  0  0  0
 32 33  2  0  0  0  0
 34 35  1  6  0  0  0
M  END
>  <CHROM.1>
162.29541404,54.89826550,-66.33728298,-149.35795856,-49.94431108,-179.99091422
43.09318635,-64.12445953,-150.27377129,-39.18760945,28.68401377,-167.29296780
-89.83304263,8.63266584,11.19442854,8.92920781,3.08830999,-0.17477183,-2.59392872

>  <Name>
2f4t_lig

>  <RI>
0

>  <Rbt.Current_Directory>
/home/itssahil/PROJECTS/Mol_Feturizer/New_Systems/rnas/2f4t

>  <Rbt.Executable>
rbdock ($Id: //depot/dev/client3/rdock/2013.1/src/exe/rbdock.cxx#4 $)

>  <Rbt.Library>
libRbt.so (2013.1, Build901 2013/11/27)

>  <Rbt.Parameter_File>
/export/apps/rDock/src/rDock_2013.1_src/data/scripts/dock_solv.prm

>  <Rbt.Receptor>
prm/blind_docking_40.prm

>  <SCORE>
5.5669

>  <SCORE.INTER>
-0.259867

>  <SCORE.INTER.CONST>
1

>  <SCORE.INTER.POLAR>
-0.0176991

>  <SCORE.INTER.ROT>
13

>  <SCORE.INTER.SOLV>
14.4636

>  <SCORE.INTER.VDW>
-17.2021

>  <SCORE.INTER.norm>
-0.00742479

>  <SCORE.INTRA>
5.22368

>  <SCORE.INTRA.DIHEDRAL>
-4.9814

>  <SCORE.INTRA.DIHEDRAL.0>
23.8882

>  <SCORE.INTRA.POLAR>
0

>  <SCORE.INTRA.POLAR.0>
0

>  <SCORE.INTRA.REPUL>
0

>  <SCORE.INTRA.REPUL.0>
0

>  <SCORE.INTRA.SOLV>
3.53017

>  <SCORE.INTRA.SOLV.lig_0>
-97.6888

>  <SCORE.INTRA.VDW>
5.9493

>  <SCORE.INTRA.VDW.0>
-3.9206

>  <SCORE.INTRA.norm>
0.149248

>  <SCORE.RESTR>
0.603087

>  <SCORE.RESTR.CAVITY>
0.603087

>  <SCORE.RESTR.norm>
0.0172311

>  <SCORE.SYSTEM>
0

>  <SCORE.SYSTEM.CONST>
0

>  <SCORE.SYSTEM.DIHEDRAL>
0

>  <SCORE.SYSTEM.SOLV>
0

>  <SCORE.SYSTEM.norm>
0

>  <SCORE.heavy>
35

>  <SCORE.norm>
0.159054

>  <RMSD>
28.945

$$$$
2f4t_lig
 OpenBabel11021811433D
libRbt.so/2013.1/901 2013/11/27
 35 36  0  0  0  0  0  0  0  0999 V2000
   12.0653   10.1483    6.6547 C   0  0  2  0  0  0  0  0  0  0  0  0
   11.2798    9.4169    7.6524 O   0  0  0  0  0  0  0  0  0  0  0  0
    7.3102   10.9726    6.9602 C   0  0  2  0  0  0  0  0  0  0  0  0
    5.8420   11.0480    6.9228 N   0  0  0  0  0  0  0  0  0  0  0  0
   13.5114   10.2329    7.2301 C   0  0  2  0  0  0  0  0  0  0  0  0
   14.0236    8.9135    7.5173 N   0  0  0  0  0  0  0  0  0  0  0  0
    7.7785    9.6336    6.2810 C   0  0  0  0  0  0  0  0  0  0  0  0
    5.1570    9.5667    7.5976 C   0  0  0  0  0  0  0  0  0  0  0  0
    3.8076   10.1920    7.3209 C   0  0  1  0  0  0  0  0  0  0  0  0
    2.7366    9.2086    7.7980 C   0  0  0  0  0  0  0  0  0  0  0  0
    2.7936    8.8337    9.2884 C   0  0  0  0  0  0  0  0  0  0  0  0
    1.9586    7.6474    9.4994 N   0  0  0  0  0  0  0  0  0  0  0  0
    3.6281   11.3562    8.0842 O   0  0  0  0  0  0  0  0  0  0  0  0
    6.5063   13.0769    9.7024 C   0  0  0  0  0  0  0  0  0  0  0  0
    5.9127   12.3712   10.9120 C   0  0  0  0  0  0  0  0  0  0  0  0
   13.5267   11.1232    8.5182 C   0  0  1  0  0  0  0  0  0  0  0  0
    6.9063   11.6059   11.6966 N   0  0  0  0  0  0  0  0  0  0  0  0
   14.8322   11.2169    9.0541 O   0  0  0  0  0  0  0  0  0  0  0  0
    9.3065    9.4877    6.2966 C   0  0  2  0  0  0  0  0  0  0  0  0
    9.7139    8.2204    5.6982 N   0  0  0  0  0  0  0  0  0  0  0  0
    8.5553    9.7696   12.0713 C   0  0  0  0  0  0  0  0  0  0  0  0
    9.3418    8.5994   11.3976 N   0  0  0  0  0  0  0  0  0  0  0  0
    7.3160   10.2425   11.2554 C   0  0  0  0  0  0  0  0  0  0  0  0
    5.5669    8.6685    8.0029 O   0  0  0  0  0  0  0  0  0  0  0  0
   12.9935   12.5100    8.1436 C   0  0  2  0  0  0  0  0  0  0  0  0
   12.9923   13.3746    9.2680 O   0  0  0  0  0  0  0  0  0  0  0  0
    9.8274    9.5550    7.7106 C   0  0  2  0  0  0  0  0  0  0  0  0
   11.5582   12.3854    7.5559 C   0  0  2  0  0  0  0  0  0  0  0  0
   11.5405   11.5111    6.4083 O   0  0  0  0  0  0  0  0  0  0  0  0
    9.3844   10.9198    8.3932 C   0  0  2  0  0  0  0  0  0  0  0  0
    9.9098   10.9522    9.7541 O   0  0  0  0  0  0  0  0  0  0  0  0
   11.0093   13.7011    7.1503 C   0  0  0  0  0  0  0  0  0  0  0  0
   10.1809   14.1597    8.1143 N   0  0  0  0  0  0  0  0  0  0  0  0
    7.8179   10.9923    8.4103 C   0  0  1  0  0  0  0  0  0  0  0  0
    7.3968   12.1661    9.0289 O   0  0  0  0  0  0  0  0  0  0  0  0
  1  2  1  1  0  0  0
  1  5  1  0  0  0  0
  1 29  1  0  0  0  0
  3  4  1  1  0  0  0
  3  7  1  0  0  0  0
  3 34  1  0  0  0  0
  5  6  1  1  0  0  0
  5 16  1  0  0  0  0
  7 19  1  0  0  0  0
  8  4  1  0  0  0  0
  8 24  2  0  0  0  0
  9  8  1  1  0  0  0
  9 10  1  0  0  0  0
  9 13  1  0  0  0  0
 10 11  1  0  0  0  0
 11 12  1  0  0  0  0
 14 15  1  0  0  0  0
 14 35  1  0  0  0  0
 15 17  1  0  0  0  0
 16 18  1  6  0  0  0
 16 25  1  0  0  0  0
 19 20  1  1  0  0  0
 19 27  1  0  0  0  0
 21 22  1  0  0  0  0
 21 23  1  0  0  0  0
 23 17  1  0  0  0  0
 25 26  1  1  0  0  0
 25 28  1  0  0  0  0
 27  2  1  6  0  0  0
 27 30  1  0  0  0  0
 28 29  1  0  0  0  0
 28 32  1  6  0  0  0
 30 31  1  1  0  0  0
 30 34  1  0  0  0  0
 32 33  2  0  0  0  0
 34 35  1  6  0  0  0
M  END
>  <CHROM.1>
157.51696657,52.30344168,-179.06608807,59.07106847,-165.18107692,44.27283393
52.29153086,-81.41285038,-161.00992989,168.95382253,44.27970165,-99.49782167
79.99944244,8.69400557,10.68877130,8.40629515,-0.02962400,-0.18728454,-2.23785596

>  <Name>
2f4t_lig

>  <RI>
0

>  <Rbt.Current_Directory>
/home/itssahil/PROJECTS/Mol_Feturizer/New_Systems/rnas/2f4t

>  <Rbt.Executable>
rbdock ($Id: //depot/dev/client3/rdock/2013.1/src/exe/rbdock.cxx#4 $)

>  <Rbt.Library>
libRbt.so (2013.1, Build901 2013/11/27)

>  <Rbt.Parameter_File>
/export/apps/rDock/src/rDock_2013.1_src/data/scripts/dock_solv.prm

>  <Rbt.Receptor>
prm/blind_docking_20.prm

>  <SCORE>
12.3021

>  <SCORE.INTER>
6.54006

>  <SCORE.INTER.CONST>
1

>  <SCORE.INTER.POLAR>
0

>  <SCORE.INTER.ROT>
13

>  <SCORE.INTER.SOLV>
15.5355

>  <SCORE.INTER.VDW>
-13.0851

>  <SCORE.INTER.norm>
0.186859

>  <SCORE.INTRA>
-1.74311

>  <SCORE.INTRA.DIHEDRAL>
-13.179

>  <SCORE.INTRA.DIHEDRAL.0>
23.8882

>  <SCORE.INTRA.POLAR>
0

>  <SCORE.INTRA.POLAR.0>
0

>  <SCORE.INTRA.REPUL>
0

>  <SCORE.INTRA.REPUL.0>
0

>  <SCORE.INTRA.SOLV>
6.52728

>  <SCORE.INTRA.SOLV.lig_0>
-97.6888

>  <SCORE.INTRA.VDW>
1.58274

>  <SCORE.INTRA.VDW.0>
-3.9206

>  <SCORE.INTRA.norm>
-0.0498031

>  <SCORE.RESTR>
7.50516

>  <SCORE.RESTR.CAVITY>
7.50516

>  <SCORE.RESTR.norm>
0.214433

>  <SCORE.SYSTEM>
0

>  <SCORE.SYSTEM.CONST>
0

>  <SCORE.SYSTEM.DIHEDRAL>
0

>  <SCORE.SYSTEM.SOLV>
0

>  <SCORE.SYSTEM.norm>
0

>  <SCORE.heavy>
35

>  <SCORE.norm>
0.351489

>  <RMSD>
28.961

$$$$
2f4t_lig
 OpenBabel11021811433D
libRbt.so/2013.1/901 2013/11/27
 35 36  0  0  0  0  0  0  0  0999 V2000
   11.2049   11.8283    9.7709 C   0  0  2  0  0  0  0  0  0  0  0  0
    9.8686   12.2885   10.1578 O   0  0  0  0  0  0  0  0  0  0  0  0
    5.7387   11.8859    8.9580 C   0  0  2  0  0  0  0  0  0  0  0  0
    4.5635   11.6353    8.1101 N   0  0  0  0  0  0  0  0  0  0  0  0
   11.5954   12.6636    8.5142 C   0  0  2  0  0  0  0  0  0  0  0  0
   11.5301   14.0773    8.8015 N   0  0  0  0  0  0  0  0  0  0  0  0
    6.6883   12.9127    8.2385 C   0  0  0  0  0  0  0  0  0  0  0  0
    5.0099   10.5558    6.7857 C   0  0  0  0  0  0  0  0  0  0  0  0
    3.5656   10.6675    6.3502 C   0  0  1  0  0  0  0  0  0  0  0  0
    3.5586   11.0572    4.8704 C   0  0  0  0  0  0  0  0  0  0  0  0
    2.2086   10.9076    4.1490 C   0  0  0  0  0  0  0  0  0  0  0  0
    1.9113    9.4783    4.0154 N   0  0  0  0  0  0  0  0  0  0  0  0
    2.9218    9.4224    6.4230 O   0  0  0  0  0  0  0  0  0  0  0  0
    4.5497    8.7888   10.0027 C   0  0  0  0  0  0  0  0  0  0  0  0
    4.6169    7.6864    8.9569 C   0  0  0  0  0  0  0  0  0  0  0  0
   10.6574   12.3003    7.3140 C   0  0  1  0  0  0  0  0  0  0  0  0
    3.6790    6.5712    9.2123 N   0  0  0  0  0  0  0  0  0  0  0  0
   10.9985   13.0448    6.1608 O   0  0  0  0  0  0  0  0  0  0  0  0
    7.9442   13.2102    9.0696 C   0  0  2  0  0  0  0  0  0  0  0  0
    8.8279   14.1328    8.3639 N   0  0  0  0  0  0  0  0  0  0  0  0
    2.7672    4.2712    8.8810 C   0  0  0  0  0  0  0  0  0  0  0  0
    3.5947    3.3522    9.8363 N   0  0  0  0  0  0  0  0  0  0  0  0
    3.5960    5.4317    8.2552 C   0  0  0  0  0  0  0  0  0  0  0  0
    5.9133   10.0743    6.4837 O   0  0  0  0  0  0  0  0  0  0  0  0
   10.7878   10.7971    7.0471 C   0  0  2  0  0  0  0  0  0  0  0  0
    9.9694   10.4016    5.9583 O   0  0  0  0  0  0  0  0  0  0  0  0
    8.6954   11.9357    9.3632 C   0  0  2  0  0  0  0  0  0  0  0  0
   10.4094    9.9966    8.3266 C   0  0  2  0  0  0  0  0  0  0  0  0
   11.2345   10.3838    9.4450 O   0  0  0  0  0  0  0  0  0  0  0  0
    7.7510   10.9048   10.1184 C   0  0  2  0  0  0  0  0  0  0  0  0
    8.5113    9.6895   10.3906 O   0  0  0  0  0  0  0  0  0  0  0  0
   10.5483    8.5345    8.1268 C   0  0  0  0  0  0  0  0  0  0  0  0
   11.8551    8.1952    8.1789 N   0  0  0  0  0  0  0  0  0  0  0  0
    6.5177   10.5845    9.2042 C   0  0  1  0  0  0  0  0  0  0  0  0
    5.6835    9.6603    9.8270 O   0  0  0  0  0  0  0  0  0  0  0  0
  1  2  1  6  0  0  0
  1  5  1  0  0  0  0
  1 29  1  0  0  0  0
  3  4  1  6  0  0  0
  3  7  1  0  0  0  0
  3 34  1  0  0  0  0
  5  6  1  1  0  0  0
  5 16  1  0  0  0  0
  7 19  1  0  0  0  0
  8  4  1  0  0  0  0
  8 24  2  0  0  0  0
  9  8  1  6  0  0  0
  9 10  1  0  0  0  0
  9 13  1  0  0  0  0
 10 11  1  0  0  0  0
 11 12  1  0  0  0  0
 14 15  1  0  0  0  0
 14 35  1  0  0  0  0
 15 17  1  0  0  0  0
 16 18  1  6  0  0  0
 16 25  1  0  0  0  0
 19 20  1  6  0  0  0
 19 27  1  0  0  0  0
 21 22  1  0  0  0  0
 21 23  1  0  0  0  0
 23 17  1  0  0  0  0
 25 26  1  6  0  0  0
 25 28  1  0  0  0  0
 27  2  1  1  0  0  0
 27 30  1  0  0  0  0
 28 29  1  0  0  0  0
 28 32  1  6  0  0  0
 30 31  1  6  0  0  0
 30 34  1  0  0  0  0
 32 33  2  0  0  0  0
 34 35  1  1  0  0  0
M  END
>  <CHROM.1>
72.51824311,76.54465305,128.31848852,166.40810714,-69.76422375,167.55348171
64.98648352,178.20375889,-82.67663171,168.61814702,-128.85058724,76.85903793
60.52606465,7.12831592,10.25206980,8.10017742,-0.40025523,0.37066604,2.64906150

>  <Name>
2f4t_lig

>  <RI>
0

>  <Rbt.Current_Directory>
/home/itssahil/PROJECTS/Mol_Feturizer/New_Systems/rnas/2f4t

>  <Rbt.Executable>
rbdock ($Id: //depot/dev/client3/rdock/2013.1/src/exe/rbdock.cxx#4 $)

>  <Rbt.Library>
libRbt.so (2013.1, Build901 2013/11/27)

>  <Rbt.Parameter_File>
/export/apps/rDock/src/rDock_2013.1_src/data/scripts/dock_solv.prm

>  <Rbt.Receptor>
prm/blind_docking_20.prm

>  <SCORE>
6.08055

>  <SCORE.INTER>
1.46987

>  <SCORE.INTER.CONST>
1

>  <SCORE.INTER.POLAR>
0

>  <SCORE.INTER.ROT>
13

>  <SCORE.INTER.SOLV>
9.98831

>  <SCORE.INTER.VDW>
-14.6162

>  <SCORE.INTER.norm>
0.0419962

>  <SCORE.INTRA>
1.7412

>  <SCORE.INTRA.DIHEDRAL>
-8.51375

>  <SCORE.INTRA.DIHEDRAL.0>
23.8882

>  <SCORE.INTRA.POLAR>
0

>  <SCORE.INTRA.POLAR.0>
0

>  <SCORE.INTRA.REPUL>
0

>  <SCORE.INTRA.REPUL.0>
0

>  <SCORE.INTRA.SOLV>
9.38751

>  <SCORE.INTRA.SOLV.lig_0>
-97.6888

>  <SCORE.INTRA.VDW>
1.30433

>  <SCORE.INTRA.VDW.0>
-3.9206

>  <SCORE.INTRA.norm>
0.0497487

>  <SCORE.RESTR>
2.86948

>  <SCORE.RESTR.CAVITY>
2.86948

>  <SCORE.RESTR.norm>
0.081985

>  <SCORE.SYSTEM>
0

>  <SCORE.SYSTEM.CONST>
0

>  <SCORE.SYSTEM.DIHEDRAL>
0

>  <SCORE.SYSTEM.SOLV>
0

>  <SCORE.SYSTEM.norm>
0

>  <SCORE.heavy>
35

>  <SCORE.norm>
0.17373

>  <RMSD>
28.972

$$$$
2f4t_lig
 OpenBabel11021811433D
libRbt.so/2013.1/901 2013/11/27
 35 36  0  0  0  0  0  0  0  0999 V2000
   10.5350   10.5452    9.1391 C   0  0  2  0  0  0  0  0  0  0  0  0
    9.2423   11.0141    9.6451 O   0  0  0  0  0  0  0  0  0  0  0  0
    5.0687   10.8515    8.5441 C   0  0  2  0  0  0  0  0  0  0  0  0
    3.8562   10.8802    7.7124 N   0  0  0  0  0  0  0  0  0  0  0  0
   11.1586   11.7545    8.3787 C   0  0  2  0  0  0  0  0  0  0  0  0
   11.2584   12.9050    9.2458 N   0  0  0  0  0  0  0  0  0  0  0  0
    5.9266   12.1377    8.2554 C   0  0  0  0  0  0  0  0  0  0  0  0
    4.2414   10.3084    6.0865 C   0  0  0  0  0  0  0  0  0  0  0  0
    2.7790   10.5380    5.7753 C   0  0  1  0  0  0  0  0  0  0  0  0
    2.6903   11.7448    4.8385 C   0  0  0  0  0  0  0  0  0  0  0  0
    3.2480   11.5299    3.4215 C   0  0  0  0  0  0  0  0  0  0  0  0
    2.4207   10.5258    2.7459 N   0  0  0  0  0  0  0  0  0  0  0  0
    2.2424    9.4559    5.0603 O   0  0  0  0  0  0  0  0  0  0  0  0
    4.3585    7.5231    9.1940 C   0  0  0  0  0  0  0  0  0  0  0  0
    4.0027    6.3659    8.2733 C   0  0  0  0  0  0  0  0  0  0  0  0
   10.3035   12.0915    7.1108 C   0  0  1  0  0  0  0  0  0  0  0  0
    3.4866    5.1783    8.9888 N   0  0  0  0  0  0  0  0  0  0  0  0
   10.8556   13.1845    6.4031 O   0  0  0  0  0  0  0  0  0  0  0  0
    7.2165   12.1639    9.0872 C   0  0  2  0  0  0  0  0  0  0  0  0
    8.0142   13.3449    8.7722 N   0  0  0  0  0  0  0  0  0  0  0  0
    3.5986    2.7939    9.7193 C   0  0  0  0  0  0  0  0  0  0  0  0
    2.9816    2.0794    8.4740 N   0  0  0  0  0  0  0  0  0  0  0  0
    4.4130    4.0738    9.3671 C   0  0  0  0  0  0  0  0  0  0  0  0
    5.1298    9.9676    5.6031 O   0  0  0  0  0  0  0  0  0  0  0  0
   10.2535   10.8419    6.2256 C   0  0  2  0  0  0  0  0  0  0  0  0
    9.5009   11.0834    5.0479 O   0  0  0  0  0  0  0  0  0  0  0  0
    8.0396   10.9282    8.8216 C   0  0  2  0  0  0  0  0  0  0  0  0
    9.6445    9.6519    7.0219 C   0  0  2  0  0  0  0  0  0  0  0  0
   10.3996    9.3894    8.2229 O   0  0  0  0  0  0  0  0  0  0  0  0
    7.1892    9.6245    9.1412 C   0  0  2  0  0  0  0  0  0  0  0  0
    8.0173    8.4520    8.8792 O   0  0  0  0  0  0  0  0  0  0  0  0
    9.6018    8.4092    6.2151 C   0  0  0  0  0  0  0  0  0  0  0  0
   10.5943    8.4334    5.2985 N   0  0  0  0  0  0  0  0  0  0  0  0
    5.9177    9.6116    8.2233 C   0  0  1  0  0  0  0  0  0  0  0  0
    5.1645    8.4651    8.4598 O   0  0  0  0  0  0  0  0  0  0  0  0
  1  2  1  6  0  0  0
  1  5  1  0  0  0  0
  1 29  1  0  0  0  0
  3  4  1  6  0  0  0
  3  7  1  0  0  0  0
  3 34  1  0  0  0  0
  5  6  1  1  0  0  0
  5 16  1  0  0  0  0
  7 19  1  0  0  0  0
  8  4  1  0  0  0  0
  8 24  2  0  0  0  0
  9  8  1  6  0  0  0
  9 10  1  0  0  0  0
  9 13  1  0  0  0  0
 10 11  1  0  0  0  0
 11 12  1  0  0  0  0
 14 15  1  0  0  0  0
 14 35  1  0  0  0  0
 15 17  1  0  0  0  0
 16 18  1  6  0  0  0
 16 25  1  0  0  0  0
 19 20  1  6  0  0  0
 19 27  1  0  0  0  0
 21 22  1  0  0  0  0
 21 23  1  0  0  0  0
 23 17  1  0  0  0  0
 25 26  1  6  0  0  0
 25 28  1  0  0  0  0
 27  2  1  1  0  0  0
 27 30  1  0  0  0  0
 28 29  1  0  0  0  0
 28 32  1  6  0  0  0
 30 31  1  6  0  0  0
 30 34  1  0  0  0  0
 32 33  2  0  0  0  0
 34 35  1  1  0  0  0
M  END
>  <CHROM.1>
87.21809827,81.35734286,109.46722637,68.65902169,64.96227493,164.91323019
-179.91170989,-94.67698039,73.38412769,-163.62291096,-142.53710517,27.89796876
-56.55196954,6.66994415,9.64259924,7.45619647,-0.55585184,0.36735874,2.62868948

>  <Name>
2f4t_lig

>  <RI>
0

>  <Rbt.Current_Directory>
/home/itssahil/PROJECTS/Mol_Feturizer/New_Systems/rnas/2f4t

>  <Rbt.Executable>
rbdock ($Id: //depot/dev/client3/rdock/2013.1/src/exe/rbdock.cxx#4 $)

>  <Rbt.Library>
libRbt.so (2013.1, Build901 2013/11/27)

>  <Rbt.Parameter_File>
/export/apps/rDock/src/rDock_2013.1_src/data/scripts/dock_solv.prm

>  <Rbt.Receptor>
prm/blind_docking_20.prm

>  <SCORE>
3.97147

>  <SCORE.INTER>
-1.66657

>  <SCORE.INTER.CONST>
1

>  <SCORE.INTER.POLAR>
-0.646504

>  <SCORE.INTER.ROT>
13

>  <SCORE.INTER.SOLV>
8.83447

>  <SCORE.INTER.VDW>
-14.1675

>  <SCORE.INTER.norm>
-0.0476162

>  <SCORE.INTRA>
2.81769

>  <SCORE.INTRA.DIHEDRAL>
-9.13021

>  <SCORE.INTRA.DIHEDRAL.0>
23.8882

>  <SCORE.INTRA.POLAR>
0

>  <SCORE.INTRA.POLAR.0>
0

>  <SCORE.INTRA.REPUL>
0

>  <SCORE.INTRA.REPUL.0>
0

>  <SCORE.INTRA.SOLV>
8.19506

>  <SCORE.INTRA.SOLV.lig_0>
-97.6888

>  <SCORE.INTRA.VDW>
3.28527

>  <SCORE.INTRA.VDW.0>
-3.9206

>  <SCORE.INTRA.norm>
0.0805056

>  <SCORE.RESTR>
2.82034

>  <SCORE.RESTR.CAVITY>
2.82034

>  <SCORE.RESTR.norm>
0.0805812

>  <SCORE.SYSTEM>
0

>  <SCORE.SYSTEM.CONST>
0

>  <SCORE.SYSTEM.DIHEDRAL>
0

>  <SCORE.SYSTEM.SOLV>
0

>  <SCORE.SYSTEM.norm>
0

>  <SCORE.heavy>
35

>  <SCORE.norm>
0.113471

>  <RMSD>
29.004

$$$$
2f4t_lig
 OpenBabel11021811433D
libRbt.so/2013.1/901 2013/11/27
 35 36  0  0  0  0  0  0  0  0999 V2000
    9.9412   10.4190    9.5468 C   0  0  2  0  0  0  0  0  0  0  0  0
    8.7200   11.1956    9.7765 O   0  0  0  0  0  0  0  0  0  0  0  0
    4.6176   10.8359    8.4735 C   0  0  2  0  0  0  0  0  0  0  0  0
    3.4472   10.8070    7.5834 N   0  0  0  0  0  0  0  0  0  0  0  0
   11.1023   11.4575    9.4937 C   0  0  2  0  0  0  0  0  0  0  0  0
   11.1361   12.2465   10.7028 N   0  0  0  0  0  0  0  0  0  0  0  0
    5.4271   12.1609    8.2234 C   0  0  0  0  0  0  0  0  0  0  0  0
    3.9640   10.4168    5.9404 C   0  0  0  0  0  0  0  0  0  0  0  0
    2.5005   10.5172    5.5711 C   0  0  1  0  0  0  0  0  0  0  0  0
    2.4075   10.4969    4.0437 C   0  0  0  0  0  0  0  0  0  0  0  0
    3.0895   11.6697    3.3195 C   0  0  0  0  0  0  0  0  0  0  0  0
    2.9221   11.4821    1.8753 N   0  0  0  0  0  0  0  0  0  0  0  0
    1.7926    9.3891    6.0144 O   0  0  0  0  0  0  0  0  0  0  0  0
    4.0256    7.4824    9.0936 C   0  0  0  0  0  0  0  0  0  0  0  0
    4.0100    6.1972    8.2803 C   0  0  0  0  0  0  0  0  0  0  0  0
   10.9428   12.3790    8.2376 C   0  0  1  0  0  0  0  0  0  0  0  0
    3.4307    5.0454    9.0059 N   0  0  0  0  0  0  0  0  0  0  0  0
   11.9904   13.3267    8.1680 O   0  0  0  0  0  0  0  0  0  0  0  0
    6.6720   12.2483    9.1172 C   0  0  2  0  0  0  0  0  0  0  0  0
    7.4277   13.4655    8.8383 N   0  0  0  0  0  0  0  0  0  0  0  0
    4.8074    2.9900    8.6717 C   0  0  0  0  0  0  0  0  0  0  0  0
    4.9331    1.5731    8.0249 N   0  0  0  0  0  0  0  0  0  0  0  0
    3.4454    3.6895    8.3872 C   0  0  0  0  0  0  0  0  0  0  0  0
    4.9047   10.2125    5.4795 O   0  0  0  0  0  0  0  0  0  0  0  0
   10.9349   11.4870    6.9919 C   0  0  2  0  0  0  0  0  0  0  0  0
   10.8052   12.2634    5.8119 O   0  0  0  0  0  0  0  0  0  0  0  0
    7.5644   11.0527    8.8955 C   0  0  2  0  0  0  0  0  0  0  0  0
    9.7771   10.4520    7.0880 C   0  0  2  0  0  0  0  0  0  0  0  0
    9.8945    9.6503    8.2818 O   0  0  0  0  0  0  0  0  0  0  0  0
    6.7617    9.7105    9.1768 C   0  0  2  0  0  0  0  0  0  0  0  0
    7.6559    8.5783    8.9587 O   0  0  0  0  0  0  0  0  0  0  0  0
    9.7461    9.5447    5.9163 C   0  0  0  0  0  0  0  0  0  0  0  0
    8.9908    8.4623    6.2051 N   0  0  0  0  0  0  0  0  0  0  0  0
    5.5387    9.6373    8.1979 C   0  0  1  0  0  0  0  0  0  0  0  0
    4.8296    8.4566    8.4004 O   0  0  0  0  0  0  0  0  0  0  0  0
  1  2  1  6  0  0  0
  1  5  1  0  0  0  0
  1 29  1  0  0  0  0
  3  4  1  6  0  0  0
  3  7  1  0  0  0  0
  3 34  1  0  0  0  0
  5  6  1  1  0  0  0
  5 16  1  0  0  0  0
  7 19  1  0  0  0  0
  8  4  1  0  0  0  0
  8 24  2  0  0  0  0
  9  8  1  6  0  0  0
  9 10  1  0  0  0  0
  9 13  1  0  0  0  0
 10 11  1  0  0  0  0
 11 12  1  0  0  0  0
 14 15  1  0  0  0  0
 14 35  1  0  0  0  0
 15 17  1  0  0  0  0
 16 18  1  6  0  0  0
 16 25  1  0  0  0  0
 19 20  1  6  0  0  0
 19 27  1  0  0  0  0
 21 22  1  0  0  0  0
 21 23  1  0  0  0  0
 23 17  1  0  0  0  0
 25 26  1  6  0  0  0
 25 28  1  0  0  0  0
 27  2  1  1  0  0  0
 27 30  1  0  0  0  0
 28 29  1  0  0  0  0
 28 32  1  6  0  0  0
 30 31  1  6  0  0  0
 30 34  1  0  0  0  0
 32 33  2  0  0  0  0
 34 35  1  1  0  0  0
M  END
>  <CHROM.1>
126.75506304,75.49735801,169.45723844,-62.71077512,179.16179050,169.16473216
-169.18321330,-174.99991371,-178.33275058,84.77588242,-162.70797792,163.28512519
-55.48404003,6.58355027,9.73456274,7.59002898,-0.47600649,0.44812624,2.70467604

>  <Name>
2f4t_lig

>  <RI>
0

>  <Rbt.Current_Directory>
/home/itssahil/PROJECTS/Mol_Feturizer/New_Systems/rnas/2f4t

>  <Rbt.Executable>
rbdock ($Id: //depot/dev/client3/rdock/2013.1/src/exe/rbdock.cxx#4 $)

>  <Rbt.Library>
libRbt.so (2013.1, Build901 2013/11/27)

>  <Rbt.Parameter_File>
/export/apps/rDock/src/rDock_2013.1_src/data/scripts/dock_solv.prm

>  <Rbt.Receptor>
prm/blind_docking_20.prm

>  <SCORE>
2.36967

>  <SCORE.INTER>
2.64285

>  <SCORE.INTER.CONST>
1

>  <SCORE.INTER.POLAR>
0

>  <SCORE.INTER.ROT>
13

>  <SCORE.INTER.SOLV>
12.7635

>  <SCORE.INTER.VDW>
-14.7593

>  <SCORE.INTER.norm>
0.07551

>  <SCORE.INTRA>
-4.10583

>  <SCORE.INTRA.DIHEDRAL>
-11.1933

>  <SCORE.INTRA.DIHEDRAL.0>
23.8882

>  <SCORE.INTRA.POLAR>
0

>  <SCORE.INTRA.POLAR.0>
0

>  <SCORE.INTRA.REPUL>
0

>  <SCORE.INTRA.REPUL.0>
0

>  <SCORE.INTRA.SOLV>
1.16995

>  <SCORE.INTRA.SOLV.lig_0>
-97.6888

>  <SCORE.INTRA.VDW>
0.905844

>  <SCORE.INTRA.VDW.0>
-3.9206

>  <SCORE.INTRA.norm>
-0.117309

>  <SCORE.RESTR>
3.83265

>  <SCORE.RESTR.CAVITY>
3.83265

>  <SCORE.RESTR.norm>
0.109504

>  <SCORE.SYSTEM>
0

>  <SCORE.SYSTEM.CONST>
0

>  <SCORE.SYSTEM.DIHEDRAL>
0

>  <SCORE.SYSTEM.SOLV>
0

>  <SCORE.SYSTEM.norm>
0

>  <SCORE.heavy>
35

>  <SCORE.norm>
0.0677049

>  <RMSD>
29.021

$$$$
2f4t_lig
 OpenBabel11021811433D
libRbt.so/2013.1/901 2013/11/27
 35 36  0  0  0  0  0  0  0  0999 V2000
    9.8637   10.2680    6.5681 C   0  0  2  0  0  0  0  0  0  0  0  0
    9.1773    9.4379    7.5616 O   0  0  0  0  0  0  0  0  0  0  0  0
    5.1700    9.4264    9.1735 C   0  0  2  0  0  0  0  0  0  0  0  0
    3.9813    9.8547    9.9261 N   0  0  0  0  0  0  0  0  0  0  0  0
   11.3807    9.9414    6.7155 C   0  0  2  0  0  0  0  0  0  0  0  0
   11.6157    8.5261    6.5502 N   0  0  0  0  0  0  0  0  0  0  0  0
    6.4201    9.4373   10.1278 C   0  0  0  0  0  0  0  0  0  0  0  0
    3.4511    8.5467   10.9876 C   0  0  0  0  0  0  0  0  0  0  0  0
    2.3559    9.4925   11.4283 C   0  0  1  0  0  0  0  0  0  0  0  0
    1.2551    9.4511   10.3661 C   0  0  0  0  0  0  0  0  0  0  0  0
    0.7526    8.0491    9.9824 C   0  0  0  0  0  0  0  0  0  0  0  0
    1.8406    7.3367    9.3060 N   0  0  0  0  0  0  0  0  0  0  0  0
    1.7586    9.0488   12.6185 O   0  0  0  0  0  0  0  0  0  0  0  0
    2.9738   10.6158    6.7347 C   0  0  0  0  0  0  0  0  0  0  0  0
    2.7536    9.9200    5.4002 C   0  0  0  0  0  0  0  0  0  0  0  0
   11.9029   10.4285    8.1092 C   0  0  1  0  0  0  0  0  0  0  0  0
    3.1392   10.7436    4.2334 N   0  0  0  0  0  0  0  0  0  0  0  0
   13.2802   10.1455    8.2614 O   0  0  0  0  0  0  0  0  0  0  0  0
    7.7008    9.0085    9.3981 C   0  0  2  0  0  0  0  0  0  0  0  0
    8.8526    9.0657   10.2927 N   0  0  0  0  0  0  0  0  0  0  0  0
    3.0028   11.4966    1.8573 C   0  0  0  0  0  0  0  0  0  0  0  0
    2.6027   11.1616    0.3843 N   0  0  0  0  0  0  0  0  0  0  0  0
    2.7093   10.3445    2.8632 C   0  0  0  0  0  0  0  0  0  0  0  0
    3.7941    7.5552   11.1836 O   0  0  0  0  0  0  0  0  0  0  0  0
   11.6441   11.9350    8.2135 C   0  0  2  0  0  0  0  0  0  0  0  0
   12.1070   12.4454    9.4533 O   0  0  0  0  0  0  0  0  0  0  0  0
    7.9546    9.9029    8.2103 C   0  0  2  0  0  0  0  0  0  0  0  0
   10.1249   12.2253    8.0428 C   0  0  2  0  0  0  0  0  0  0  0  0
    9.6366   11.7154    6.7846 O   0  0  0  0  0  0  0  0  0  0  0  0
    6.7078    9.8726    7.2256 C   0  0  2  0  0  0  0  0  0  0  0  0
    6.9909   10.7421    6.0885 O   0  0  0  0  0  0  0  0  0  0  0  0
    9.8272   13.6758    8.1071 C   0  0  0  0  0  0  0  0  0  0  0  0
   10.1147   14.2475    6.9170 N   0  0  0  0  0  0  0  0  0  0  0  0
    5.4402   10.3783    7.9980 C   0  0  1  0  0  0  0  0  0  0  0  0
    4.3341   10.3905    7.1528 O   0  0  0  0  0  0  0  0  0  0  0  0
  1  2  1  1  0  0  0
  1  5  1  0  0  0  0
  1 29  1  0  0  0  0
  3  4  1  1  0  0  0
  3  7  1  0  0  0  0
  3 34  1  0  0  0  0
  5  6  1  1  0  0  0
  5 16  1  0  0  0  0
  7 19  1  0  0  0  0
  8  4  1  0  0  0  0
  8 24  2  0  0  0  0
  9  8  1  6  0  0  0
  9 10  1  0  0  0  0
  9 13  1  0  0  0  0
 10 11  1  0  0  0  0
 11 12  1  0  0  0  0
 14 15  1  0  0  0  0
 14 35  1  0  0  0  0
 15 17  1  0  0  0  0
 16 18  1  6  0  0  0
 16 25  1  0  0  0  0
 19 20  1  1  0  0  0
 19 27  1  0  0  0  0
 21 22  1  0  0  0  0
 21 23  1  0  0  0  0
 23 17  1  0  0  0  0
 25 26  1  1  0  0  0
 25 28  1  0  0  0  0
 27  2  1  6  0  0  0
 27 30  1  0  0  0  0
 28 29  1  0  0  0  0
 28 32  1  6  0  0  0
 30 31  1  6  0  0  0
 30 34  1  0  0  0  0
 32 33  2  0  0  0  0
 34 35  1  6  0  0  0
M  END
>  <CHROM.1>
147.91301020,-74.93087469,80.32330734,51.35887603,-66.79282663,-86.17202686
-168.86237239,-166.24159664,179.18197380,169.32471189,-165.91748990,79.67977342
64.19087028,6.47866000,10.19305490,7.83749836,0.09860967,-0.18125670,-1.28767793

>  <Name>
2f4t_lig

>  <RI>
0

>  <Rbt.Current_Directory>
/home/itssahil/PROJECTS/Mol_Feturizer/New_Systems/rnas/2f4t

>  <Rbt.Executable>
rbdock ($Id: //depot/dev/client3/rdock/2013.1/src/exe/rbdock.cxx#4 $)

>  <Rbt.Library>
libRbt.so (2013.1, Build901 2013/11/27)

>  <Rbt.Parameter_File>
/export/apps/rDock/src/rDock_2013.1_src/data/scripts/dock_solv.prm

>  <Rbt.Receptor>
prm/blind_docking_20.prm

>  <SCORE>
4.16924

>  <SCORE.INTER>
1.50971

>  <SCORE.INTER.CONST>
1

>  <SCORE.INTER.POLAR>
0

>  <SCORE.INTER.ROT>
13

>  <SCORE.INTER.SOLV>
13.1927

>  <SCORE.INTER.VDW>
-15.6578

>  <SCORE.INTER.norm>
0.0431345

>  <SCORE.INTRA>
-2.7352

>  <SCORE.INTRA.DIHEDRAL>
-12.3248

>  <SCORE.INTRA.DIHEDRAL.0>
23.8882

>  <SCORE.INTRA.POLAR>
0

>  <SCORE.INTRA.POLAR.0>
0

>  <SCORE.INTRA.REPUL>
0

>  <SCORE.INTRA.REPUL.0>
0

>  <SCORE.INTRA.SOLV>
4.67281

>  <SCORE.INTRA.SOLV.lig_0>
-97.6888

>  <SCORE.INTRA.VDW>
1.09081

>  <SCORE.INTRA.VDW.0>
-3.9206

>  <SCORE.INTRA.norm>
-0.0781486

>  <SCORE.RESTR>
5.39473

>  <SCORE.RESTR.CAVITY>
5.39473

>  <SCORE.RESTR.norm>
0.154135

>  <SCORE.SYSTEM>
0

>  <SCORE.SYSTEM.CONST>
0

>  <SCORE.SYSTEM.DIHEDRAL>
0

>  <SCORE.SYSTEM.SOLV>
0

>  <SCORE.SYSTEM.norm>
0

>  <SCORE.heavy>
35

>  <SCORE.norm>
0.119121

>  <RMSD>
29.023

$$$$
2f4t_lig
 OpenBabel11021811433D
libRbt.so/2013.1/901 2013/11/27
 35 36  0  0  0  0  0  0  0  0999 V2000
   12.5140    9.6500    8.4469 C   0  0  2  0  0  0  0  0  0  0  0  0
   11.4810   10.5046    9.0382 O   0  0  0  0  0  0  0  0  0  0  0  0
    7.3368   11.5876    8.4811 C   0  0  2  0  0  0  0  0  0  0  0  0
    6.0328   11.7754    7.8277 N   0  0  0  0  0  0  0  0  0  0  0  0
   12.9320   10.3461    7.1163 C   0  0  2  0  0  0  0  0  0  0  0  0
   13.3715   11.6990    7.3652 N   0  0  0  0  0  0  0  0  0  0  0  0
    8.4619   12.2274    7.5876 C   0  0  0  0  0  0  0  0  0  0  0  0
    5.6419   10.3458    6.8674 C   0  0  0  0  0  0  0  0  0  0  0  0
    4.3597   11.0660    6.5135 C   0  0  1  0  0  0  0  0  0  0  0  0
    3.6150   10.2066    5.4894 C   0  0  0  0  0  0  0  0  0  0  0  0
    2.4705   10.9076    4.7385 C   0  0  0  0  0  0  0  0  0  0  0  0
    3.0279   11.5586    3.5492 N   0  0  0  0  0  0  0  0  0  0  0  0
    3.5115   11.1574    7.6281 O   0  0  0  0  0  0  0  0  0  0  0  0
    5.3134    9.1511    9.8544 C   0  0  0  0  0  0  0  0  0  0  0  0
    4.6194   10.3943   10.3896 C   0  0  0  0  0  0  0  0  0  0  0  0
   11.7378   10.3313    6.1033 C   0  0  1  0  0  0  0  0  0  0  0  0
    3.1959   10.4912    9.9988 N   0  0  0  0  0  0  0  0  0  0  0  0
   12.0982   10.9548    4.8860 O   0  0  0  0  0  0  0  0  0  0  0  0
    9.8544   12.0557    8.2105 C   0  0  2  0  0  0  0  0  0  0  0  0
   10.8844   12.6208    7.3446 N   0  0  0  0  0  0  0  0  0  0  0  0
    2.4387    8.5344   11.3513 C   0  0  0  0  0  0  0  0  0  0  0  0
    3.6823    7.5962   11.4737 N   0  0  0  0  0  0  0  0  0  0  0  0
    2.3416    9.2699    9.9821 C   0  0  0  0  0  0  0  0  0  0  0  0
    6.1339    9.4200    6.6675 O   0  0  0  0  0  0  0  0  0  0  0  0
   11.3337    8.8724    5.8665 C   0  0  2  0  0  0  0  0  0  0  0  0
   10.2597    8.7861    4.9441 O   0  0  0  0  0  0  0  0  0  0  0  0
   10.1515   10.5951    8.4414 C   0  0  2  0  0  0  0  0  0  0  0  0
   10.9421    8.2048    7.2163 C   0  0  2  0  0  0  0  0  0  0  0  0
   12.0248    8.2804    8.1670 O   0  0  0  0  0  0  0  0  0  0  0  0
    9.0352    9.9491    9.3695 C   0  0  2  0  0  0  0  0  0  0  0  0
    9.3579    8.5410    9.5754 O   0  0  0  0  0  0  0  0  0  0  0  0
   10.5705    6.7805    7.0428 C   0  0  0  0  0  0  0  0  0  0  0  0
   11.5471    6.1401    6.3632 N   0  0  0  0  0  0  0  0  0  0  0  0
    7.6430   10.0928    8.6621 C   0  0  1  0  0  0  0  0  0  0  0  0
    6.6455    9.5100    9.4388 O   0  0  0  0  0  0  0  0  0  0  0  0
  1  2  1  6  0  0  0
  1  5  1  0  0  0  0
  1 29  1  0  0  0  0
  3  4  1  6  0  0  0
  3  7  1  0  0  0  0
  3 34  1  0  0  0  0
  5  6  1  1  0  0  0
  5 16  1  0  0  0  0
  7 19  1  0  0  0  0
  8  4  1  0  0  0  0
  8 24  2  0  0  0  0
  9  8  1  1  0  0  0
  9 10  1  0  0  0  0
  9 13  1  0  0  0  0
 10 11  1  0  0  0  0
 11 12  1  0  0  0  0
 14 15  1  0  0  0  0
 14 35  1  0  0  0  0
 15 17  1  0  0  0  0
 16 18  1  6  0  0  0
 16 25  1  0  0  0  0
 19 20  1  6  0  0  0
 19 27  1  0  0  0  0
 21 22  1  0  0  0  0
 21 23  1  0  0  0  0
 23 17  1  0  0  0  0
 25 26  1  6  0  0  0
 25 28  1  0  0  0  0
 27  2  1  1  0  0  0
 27 30  1  0  0  0  0
 28 29  1  0  0  0  0
 28 32  1  6  0  0  0
 30 31  1  6  0  0  0
 30 34  1  0  0  0  0
 32 33  2  0  0  0  0
 34 35  1  1  0  0  0
M  END
>  <CHROM.1>
70.72107302,94.40348346,175.06974952,-165.34945669,88.11006294,140.41143635
-70.94784215,39.49658895,-83.17579420,52.59978336,-126.51908227,51.91991982
52.56679951,7.89628346,9.97678874,7.77143577,-0.12277650,-0.09853311,1.98597428

>  <Name>
2f4t_lig

>  <RI>
0

>  <Rbt.Current_Directory>
/home/itssahil/PROJECTS/Mol_Feturizer/New_Systems/rnas/2f4t

>  <Rbt.Executable>
rbdock ($Id: //depot/dev/client3/rdock/2013.1/src/exe/rbdock.cxx#4 $)

>  <Rbt.Library>
libRbt.so (2013.1, Build901 2013/11/27)

>  <Rbt.Parameter_File>
/export/apps/rDock/src/rDock_2013.1_src/data/scripts/dock_solv.prm

>  <Rbt.Receptor>
prm/blind_docking_20.prm

>  <SCORE>
16.7853

>  <SCORE.INTER>
1.48189

>  <SCORE.INTER.CONST>
1

>  <SCORE.INTER.POLAR>
-1.08424

>  <SCORE.INTER.ROT>
13

>  <SCORE.INTER.SOLV>
18.4664

>  <SCORE.INTER.VDW>
-13.8201

>  <SCORE.INTER.norm>
0.0423397

>  <SCORE.INTRA>
11.5754

>  <SCORE.INTRA.DIHEDRAL>
-2.69755

>  <SCORE.INTRA.DIHEDRAL.0>
23.8882

>  <SCORE.INTRA.POLAR>
0

>  <SCORE.INTRA.POLAR.0>
0

>  <SCORE.INTRA.REPUL>
0

>  <SCORE.INTRA.REPUL.0>
0

>  <SCORE.INTRA.SOLV>
13.4076

>  <SCORE.INTRA.SOLV.lig_0>
-97.6888

>  <SCORE.INTRA.VDW>
6.22039

>  <SCORE.INTRA.VDW.0>
-3.9206

>  <SCORE.INTRA.norm>
0.330727

>  <SCORE.RESTR>
3.72801

>  <SCORE.RESTR.CAVITY>
3.72801

>  <SCORE.RESTR.norm>
0.106515

>  <SCORE.SYSTEM>
0

>  <SCORE.SYSTEM.CONST>
0

>  <SCORE.SYSTEM.DIHEDRAL>
0

>  <SCORE.SYSTEM.SOLV>
0

>  <SCORE.SYSTEM.norm>
0

>  <SCORE.heavy>
35

>  <SCORE.norm>
0.479581

>  <RMSD>
29.078

$$$$
2f4t_lig
 OpenBabel11021811433D
libRbt.so/2013.1/901 2013/11/27
 35 36  0  0  0  0  0  0  0  0999 V2000
    4.9313    9.9757    7.2516 C   0  0  2  0  0  0  0  0  0  0  0  0
    4.7047   10.8144    8.4316 O   0  0  0  0  0  0  0  0  0  0  0  0
    8.6407   12.4000    9.2386 C   0  0  2  0  0  0  0  0  0  0  0  0
    9.7326   13.1058    9.9258 N   0  0  0  0  0  0  0  0  0  0  0  0
    3.6920   10.1921    6.3313 C   0  0  2  0  0  0  0  0  0  0  0  0
    3.5245   11.5929    6.0231 N   0  0  0  0  0  0  0  0  0  0  0  0
    7.3975   13.3561    9.1213 C   0  0  0  0  0  0  0  0  0  0  0  0
   10.8105   13.8329    8.7307 C   0  0  0  0  0  0  0  0  0  0  0  0
   11.6015   14.3454    9.9138 C   0  0  1  0  0  0  0  0  0  0  0  0
   12.9102   14.9287    9.3763 C   0  0  0  0  0  0  0  0  0  0  0  0
   12.8103   16.3366    8.7654 C   0  0  0  0  0  0  0  0  0  0  0  0
   12.0036   16.2550    7.5442 N   0  0  0  0  0  0  0  0  0  0  0  0
   10.9346   15.4101   10.5399 O   0  0  0  0  0  0  0  0  0  0  0  0
   10.6847    9.9033   10.3970 C   0  0  0  0  0  0  0  0  0  0  0  0
   11.5384   10.3362    9.2150 C   0  0  0  0  0  0  0  0  0  0  0  0
    2.4058    9.6203    7.0177 C   0  0  1  0  0  0  0  0  0  0  0  0
   11.1471    9.6992    7.9384 N   0  0  0  0  0  0  0  0  0  0  0  0
    1.2692    9.8026    6.1960 O   0  0  0  0  0  0  0  0  0  0  0  0
    6.2146   12.6737    8.4202 C   0  0  2  0  0  0  0  0  0  0  0  0
    5.0611   13.5658    8.3598 N   0  0  0  0  0  0  0  0  0  0  0  0
    9.7653    9.3727    5.8852 C   0  0  0  0  0  0  0  0  0  0  0  0
   11.0458    9.0894    5.0355 N   0  0  0  0  0  0  0  0  0  0  0  0
   10.0275   10.2656    7.1340 C   0  0  0  0  0  0  0  0  0  0  0  0
   10.8364   13.8610    7.6641 O   0  0  0  0  0  0  0  0  0  0  0  0
    2.6388    8.1322    7.2987 C   0  0  2  0  0  0  0  0  0  0  0  0
    1.5016    7.5469    7.9119 O   0  0  0  0  0  0  0  0  0  0  0  0
    5.8250   11.4133    9.1514 C   0  0  2  0  0  0  0  0  0  0  0  0
    3.8927    7.9531    8.2025 C   0  0  2  0  0  0  0  0  0  0  0  0
    5.0610    8.5404    7.5928 O   0  0  0  0  0  0  0  0  0  0  0  0
    7.0685   10.4286    9.2464 C   0  0  2  0  0  0  0  0  0  0  0  0
    6.6537    9.2210    9.9528 O   0  0  0  0  0  0  0  0  0  0  0  0
    4.1770    6.5250    8.4791 C   0  0  0  0  0  0  0  0  0  0  0  0
    3.6970    6.1986    9.6992 N   0  0  0  0  0  0  0  0  0  0  0  0
    8.2250   11.1468   10.0247 C   0  0  1  0  0  0  0  0  0  0  0  0
    9.3212   10.2980   10.1497 O   0  0  0  0  0  0  0  0  0  0  0  0
  1  2  1  1  0  0  0
  1  5  1  0  0  0  0
  1 29  1  0  0  0  0
  3  4  1  1  0  0  0
  3  7  1  0  0  0  0
  3 34  1  0  0  0  0
  5  6  1  1  0  0  0
  5 16  1  0  0  0  0
  7 19  1  0  0  0  0
  8  4  1  0  0  0  0
  8 24  2  0  0  0  0
  9  8  1  6  0  0  0
  9 10  1  0  0  0  0
  9 13  1  0  0  0  0
 10 11  1  0  0  0  0
 11 12  1  0  0  0  0
 14 15  1  0  0  0  0
 14 35  1  0  0  0  0
 15 17  1  0  0  0  0
 16 18  1  6  0  0  0
 16 25  1  0  0  0  0
 19 20  1  1  0  0  0
 19 27  1  0  0  0  0
 21 22  1  0  0  0  0
 21 23  1  0  0  0  0
 23 17  1  0  0  0  0
 25 26  1  1  0  0  0
 25 28  1  0  0  0  0
 27  2  1  6  0  0  0
 27 30  1  0  0  0  0
 28 29  1  0  0  0  0
 28 32  1  6  0  0  0
 30 31  1  1  0  0  0
 30 34  1  0  0  0  0
 32 33  2  0  0  0  0
 34 35  1  6  0  0  0
M  END
>  <CHROM.1>
-148.50332282,-94.59860600,170.45946765,78.93396844,-66.88118707,-61.96639756
-73.92639041,83.18526365,-52.14037519,-176.88801615,82.48316061,-99.30967592
44.58484618,7.46839150,11.08241179,8.35199734,2.58124828,0.12931755,-3.10232136

>  <Name>
2f4t_lig

>  <RI>
0

>  <Rbt.Current_Directory>
/home/itssahil/PROJECTS/Mol_Feturizer/New_Systems/rnas/2f4t

>  <Rbt.Executable>
rbdock ($Id: //depot/dev/client3/rdock/2013.1/src/exe/rbdock.cxx#4 $)

>  <Rbt.Library>
libRbt.so (2013.1, Build901 2013/11/27)

>  <Rbt.Parameter_File>
/export/apps/rDock/src/rDock_2013.1_src/data/scripts/dock_solv.prm

>  <Rbt.Receptor>
prm/blind_docking_40.prm

>  <SCORE>
-2.53483

>  <SCORE.INTER>
-1.16529

>  <SCORE.INTER.CONST>
1

>  <SCORE.INTER.POLAR>
-0.916515

>  <SCORE.INTER.ROT>
13

>  <SCORE.INTER.SOLV>
12.8024

>  <SCORE.INTER.VDW>
-14.256

>  <SCORE.INTER.norm>
-0.033294

>  <SCORE.INTRA>
-2.54365

>  <SCORE.INTRA.DIHEDRAL>
-11.1117

>  <SCORE.INTRA.DIHEDRAL.0>
23.8882

>  <SCORE.INTRA.POLAR>
0

>  <SCORE.INTRA.POLAR.0>
0

>  <SCORE.INTRA.REPUL>
0

>  <SCORE.INTRA.REPUL.0>
0

>  <SCORE.INTRA.SOLV>
7.90207

>  <SCORE.INTRA.SOLV.lig_0>
-97.6888

>  <SCORE.INTRA.VDW>
-0.938851

>  <SCORE.INTRA.VDW.0>
-3.9206

>  <SCORE.INTRA.norm>
-0.0726756

>  <SCORE.RESTR>
1.17411

>  <SCORE.RESTR.CAVITY>
1.17411

>  <SCORE.RESTR.norm>
0.033546

>  <SCORE.SYSTEM>
0

>  <SCORE.SYSTEM.CONST>
0

>  <SCORE.SYSTEM.DIHEDRAL>
0

>  <SCORE.SYSTEM.SOLV>
0

>  <SCORE.SYSTEM.norm>
0

>  <SCORE.heavy>
35

>  <SCORE.norm>
-0.0724236

>  <RMSD>
29.137

$$$$
2f4t_lig
 OpenBabel11021811433D
libRbt.so/2013.1/901 2013/11/27
 35 36  0  0  0  0  0  0  0  0999 V2000
    4.5396   10.6467    9.8217 C   0  0  2  0  0  0  0  0  0  0  0  0
    5.6231   10.4737   10.7930 O   0  0  0  0  0  0  0  0  0  0  0  0
    8.5423   13.3236    9.3740 C   0  0  2  0  0  0  0  0  0  0  0  0
    9.6642   14.2744    9.3833 N   0  0  0  0  0  0  0  0  0  0  0  0
    3.7668    9.2932    9.8005 C   0  0  2  0  0  0  0  0  0  0  0  0
    3.3077    8.9478   11.1254 N   0  0  0  0  0  0  0  0  0  0  0  0
    7.5218   13.7140   10.5052 C   0  0  0  0  0  0  0  0  0  0  0  0
   10.2672   14.4928    7.7379 C   0  0  0  0  0  0  0  0  0  0  0  0
   11.2627   15.4563    8.3452 C   0  0  1  0  0  0  0  0  0  0  0  0
   12.2768   14.6316    9.1409 C   0  0  0  0  0  0  0  0  0  0  0  0
   12.9626   13.4930    8.3672 C   0  0  0  0  0  0  0  0  0  0  0  0
   13.7429   12.6932    9.3160 N   0  0  0  0  0  0  0  0  0  0  0  0
   11.9995   16.1123    7.3467 O   0  0  0  0  0  0  0  0  0  0  0  0
   10.4334   11.0866    7.3651 C   0  0  0  0  0  0  0  0  0  0  0  0
   10.3327    9.5697    7.3180 C   0  0  0  0  0  0  0  0  0  0  0  0
    4.6802    8.1613    9.2203 C   0  0  1  0  0  0  0  0  0  0  0  0
   11.4263    8.8819    8.0387 N   0  0  0  0  0  0  0  0  0  0  0  0
    3.9954    6.9242    9.1880 O   0  0  0  0  0  0  0  0  0  0  0  0
    6.3277   12.7506   10.5562 C   0  0  2  0  0  0  0  0  0  0  0  0
    5.4166   13.1090   11.6385 N   0  0  0  0  0  0  0  0  0  0  0  0
   13.1101    8.5099    6.2338 C   0  0  0  0  0  0  0  0  0  0  0  0
   12.1056    8.9971    5.1404 N   0  0  0  0  0  0  0  0  0  0  0  0
   12.8441    9.1164    7.6433 C   0  0  0  0  0  0  0  0  0  0  0  0
   10.0031   14.0936    6.7840 O   0  0  0  0  0  0  0  0  0  0  0  0
    5.1152    8.5772    7.8113 C   0  0  2  0  0  0  0  0  0  0  0  0
    5.9390    7.5852    7.2204 O   0  0  0  0  0  0  0  0  0  0  0  0
    6.8026   11.3337   10.7607 C   0  0  2  0  0  0  0  0  0  0  0  0
    5.8651    9.9393    7.8681 C   0  0  2  0  0  0  0  0  0  0  0  0
    5.0405   10.9622    8.4641 O   0  0  0  0  0  0  0  0  0  0  0  0
    7.8105   10.9214    9.6034 C   0  0  2  0  0  0  0  0  0  0  0  0
    8.2432    9.5465    9.8302 O   0  0  0  0  0  0  0  0  0  0  0  0
    6.2816   10.3993    6.5221 C   0  0  0  0  0  0  0  0  0  0  0  0
    7.6119   10.2141    6.3748 N   0  0  0  0  0  0  0  0  0  0  0  0
    9.0408   11.8934    9.6333 C   0  0  1  0  0  0  0  0  0  0  0  0
    9.9577   11.5404    8.6472 O   0  0  0  0  0  0  0  0  0  0  0  0
  1  2  1  1  0  0  0
  1  5  1  0  0  0  0
  1 29  1  0  0  0  0
  3  4  1  1  0  0  0
  3  7  1  0  0  0  0
  3 34  1  0  0  0  0
  5  6  1  1  0  0  0
  5 16  1  0  0  0  0
  7 19  1  0  0  0  0
  8  4  1  0  0  0  0
  8 24  2  0  0  0  0
  9  8  1  6  0  0  0
  9 10  1  0  0  0  0
  9 13  1  0  0  0  0
 10 11  1  0  0  0  0
 11 12  1  0  0  0  0
 14 15  1  0  0  0  0
 14 35  1  0  0  0  0
 15 17  1  0  0  0  0
 16 18  1  6  0  0  0
 16 25  1  0  0  0  0
 19 20  1  1  0  0  0
 19 27  1  0  0  0  0
 21 22  1  0  0  0  0
 21 23  1  0  0  0  0
 23 17  1  0  0  0  0
 25 26  1  1  0  0  0
 25 28  1  0  0  0  0
 27  2  1  6  0  0  0
 27 30  1  0  0  0  0
 28 29  1  0  0  0  0
 28 32  1  6  0  0  0
 30 31  1  1  0  0  0
 30 34  1  0  0  0  0
 32 33  2  0  0  0  0
 34 35  1  6  0  0  0
M  END
>  <CHROM.1>
159.13617625,-147.54075480,71.38676933,53.54629768,-171.85652194,-78.65617922
-79.35023494,-58.73190818,53.32640013,-68.01698882,44.00802756,-104.98224753
-80.80761951,8.40505664,11.17107125,8.64352465,2.78763622,-0.37143041,-2.75566466

>  <Name>
2f4t_lig

>  <RI>
0

>  <Rbt.Current_Directory>
/home/itssahil/PROJECTS/Mol_Feturizer/New_Systems/rnas/2f4t

>  <Rbt.Executable>
rbdock ($Id: //depot/dev/client3/rdock/2013.1/src/exe/rbdock.cxx#4 $)

>  <Rbt.Library>
libRbt.so (2013.1, Build901 2013/11/27)

>  <Rbt.Parameter_File>
/export/apps/rDock/src/rDock_2013.1_src/data/scripts/dock_solv.prm

>  <Rbt.Receptor>
prm/blind_docking_60.prm

>  <SCORE>
1.33571

>  <SCORE.INTER>
-1.51942

>  <SCORE.INTER.CONST>
1

>  <SCORE.INTER.POLAR>
-0.913936

>  <SCORE.INTER.ROT>
13

>  <SCORE.INTER.SOLV>
17.3383

>  <SCORE.INTER.VDW>
-16.0126

>  <SCORE.INTER.norm>
-0.043412

>  <SCORE.INTRA>
-1.25373

>  <SCORE.INTRA.DIHEDRAL>
-12.7609

>  <SCORE.INTRA.DIHEDRAL.0>
23.8882

>  <SCORE.INTRA.POLAR>
0

>  <SCORE.INTRA.POLAR.0>
0

>  <SCORE.INTRA.REPUL>
0

>  <SCORE.INTRA.REPUL.0>
0

>  <SCORE.INTRA.SOLV>
7.00739

>  <SCORE.INTRA.SOLV.lig_0>
-97.6888

>  <SCORE.INTRA.VDW>
1.62304

>  <SCORE.INTRA.VDW.0>
-3.9206

>  <SCORE.INTRA.norm>
-0.0358208

>  <SCORE.RESTR>
4.10886

>  <SCORE.RESTR.CAVITY>
4.10886

>  <SCORE.RESTR.norm>
0.117396

>  <SCORE.SYSTEM>
0

>  <SCORE.SYSTEM.CONST>
0

>  <SCORE.SYSTEM.DIHEDRAL>
0

>  <SCORE.SYSTEM.SOLV>
0

>  <SCORE.SYSTEM.norm>
0

>  <SCORE.heavy>
35

>  <SCORE.norm>
0.0381631

>  <RMSD>
29.146

$$$$
2f4t_lig
 OpenBabel11021811433D
libRbt.so/2013.1/901 2013/11/27
 35 36  0  0  0  0  0  0  0  0999 V2000
   12.4077    9.9991    6.3546 C   0  0  2  0  0  0  0  0  0  0  0  0
   11.0675   10.0494    5.7642 O   0  0  0  0  0  0  0  0  0  0  0  0
    6.9383   10.4151    6.9779 C   0  0  2  0  0  0  0  0  0  0  0  0
    5.7219   10.2950    7.7956 N   0  0  0  0  0  0  0  0  0  0  0  0
   12.5974    8.5355    6.8560 C   0  0  2  0  0  0  0  0  0  0  0  0
   12.4049    7.5975    5.7750 N   0  0  0  0  0  0  0  0  0  0  0  0
    7.6140    9.0014    6.8422 C   0  0  0  0  0  0  0  0  0  0  0  0
    6.1546    9.7670    9.4243 C   0  0  0  0  0  0  0  0  0  0  0  0
    4.6738    9.8382    9.7250 C   0  0  1  0  0  0  0  0  0  0  0  0
    4.2188    8.4369   10.1387 C   0  0  0  0  0  0  0  0  0  0  0  0
    4.0525    7.4254    8.9922 C   0  0  0  0  0  0  0  0  0  0  0  0
    3.0550    7.9490    8.0542 N   0  0  0  0  0  0  0  0  0  0  0  0
    4.4257   10.6653   10.8316 O   0  0  0  0  0  0  0  0  0  0  0  0
    6.4373   13.6303    8.2698 C   0  0  0  0  0  0  0  0  0  0  0  0
    6.9423   15.0013    7.8472 C   0  0  0  0  0  0  0  0  0  0  0  0
   11.6050    8.2362    8.0299 C   0  0  1  0  0  0  0  0  0  0  0  0
    8.4114   15.1459    7.9442 N   0  0  0  0  0  0  0  0  0  0  0  0
   11.7643    6.9129    8.5031 O   0  0  0  0  0  0  0  0  0  0  0  0
    8.8999    9.0595    6.0057 C   0  0  2  0  0  0  0  0  0  0  0  0
    9.5294    7.7450    5.9283 N   0  0  0  0  0  0  0  0  0  0  0  0
   10.6818   14.7414    8.8998 C   0  0  0  0  0  0  0  0  0  0  0  0
   11.1735   14.6262    7.4210 N   0  0  0  0  0  0  0  0  0  0  0  0
    9.1514   14.5094    9.0706 C   0  0  0  0  0  0  0  0  0  0  0  0
    7.0709    9.5233    9.9142 O   0  0  0  0  0  0  0  0  0  0  0  0
   11.8733    9.2481    9.1486 C   0  0  2  0  0  0  0  0  0  0  0  0
   11.0123    9.0242   10.2534 O   0  0  0  0  0  0  0  0  0  0  0  0
    9.8761   10.0387    6.6083 C   0  0  2  0  0  0  0  0  0  0  0  0
   11.6939   10.6962    8.6082 C   0  0  2  0  0  0  0  0  0  0  0  0
   12.5649   10.9433    7.4848 O   0  0  0  0  0  0  0  0  0  0  0  0
    9.2106   11.4773    6.7197 C   0  0  2  0  0  0  0  0  0  0  0  0
   10.1836   12.3972    7.2996 O   0  0  0  0  0  0  0  0  0  0  0  0
   11.9719   11.7145    9.6487 C   0  0  0  0  0  0  0  0  0  0  0  0
   13.2963   11.7350    9.9158 N   0  0  0  0  0  0  0  0  0  0  0  0
    7.9401   11.3782    7.6336 C   0  0  1  0  0  0  0  0  0  0  0  0
    7.3490   12.6306    7.7743 O   0  0  0  0  0  0  0  0  0  0  0  0
  1  2  1  1  0  0  0
  1  5  1  0  0  0  0
  1 29  1  0  0  0  0
  3  4  1  1  0  0  0
  3  7  1  0  0  0  0
  3 34  1  0  0  0  0
  5  6  1  6  0  0  0
  5 16  1  0  0  0  0
  7 19  1  0  0  0  0
  8  4  1  0  0  0  0
  8 24  2  0  0  0  0
  9  8  1  1  0  0  0
  9 10  1  0  0  0  0
  9 13  1  0  0  0  0
 10 11  1  0  0  0  0
 11 12  1  0  0  0  0
 14 15  1  0  0  0  0
 14 35  1  0  0  0  0
 15 17  1  0  0  0  0
 16 18  1  1  0  0  0
 16 25  1  0  0  0  0
 19 20  1  1  0  0  0
 19 27  1  0  0  0  0
 21 22  1  0  0  0  0
 21 23  1  0  0  0  0
 23 17  1  0  0  0  0
 25 26  1  1  0  0  0
 25 28  1  0  0  0  0
 27  2  1  6  0  0  0
 27 30  1  0  0  0  0
 28 29  1  0  0  0  0
 28 32  1  1  0  0  0
 30 31  1  1  0  0  0
 30 34  1  0  0  0  0
 32 33  2  0  0  0  0
 34 35  1  6  0  0  0
M  END
>  <CHROM.1>
73.56526825,62.93123747,119.72767182,-76.28213986,-59.47464849,-39.95383230
167.40833133,-37.41713712,-39.42869974,176.83375541,-134.71921657,70.49236417
67.08658580,8.97217756,10.58878858,8.08724792,-0.05892298,-0.18495215,-3.05764203

>  <Name>
2f4t_lig

>  <RI>
0

>  <Rbt.Current_Directory>
/home/itssahil/PROJECTS/Mol_Feturizer/New_Systems/rnas/2f4t

>  <Rbt.Executable>
rbdock ($Id: //depot/dev/client3/rdock/2013.1/src/exe/rbdock.cxx#4 $)

>  <Rbt.Library>
libRbt.so (2013.1, Build901 2013/11/27)

>  <Rbt.Parameter_File>
/export/apps/rDock/src/rDock_2013.1_src/data/scripts/dock_solv.prm

>  <Rbt.Receptor>
prm/blind_docking_20.prm

>  <SCORE>
18.9372

>  <SCORE.INTER>
6.82169

>  <SCORE.INTER.CONST>
1

>  <SCORE.INTER.POLAR>
-1.11651

>  <SCORE.INTER.ROT>
13

>  <SCORE.INTER.SOLV>
15.4176

>  <SCORE.INTER.VDW>
-9.13637

>  <SCORE.INTER.norm>
0.194905

>  <SCORE.INTRA>
5.65562

>  <SCORE.INTRA.DIHEDRAL>
-7.45248

>  <SCORE.INTRA.DIHEDRAL.0>
23.8882

>  <SCORE.INTRA.POLAR>
0

>  <SCORE.INTRA.POLAR.0>
0

>  <SCORE.INTRA.REPUL>
0.0150414

>  <SCORE.INTRA.REPUL.0>
0

>  <SCORE.INTRA.SOLV>
13.875

>  <SCORE.INTRA.SOLV.lig_0>
-97.6888

>  <SCORE.INTRA.VDW>
2.36913

>  <SCORE.INTRA.VDW.0>
-3.9206

>  <SCORE.INTRA.norm>
0.161589

>  <SCORE.RESTR>
6.45994

>  <SCORE.RESTR.CAVITY>
6.45994

>  <SCORE.RESTR.norm>
0.18457

>  <SCORE.SYSTEM>
0

>  <SCORE.SYSTEM.CONST>
0

>  <SCORE.SYSTEM.DIHEDRAL>
0

>  <SCORE.SYSTEM.SOLV>
0

>  <SCORE.SYSTEM.norm>
0

>  <SCORE.heavy>
35

>  <SCORE.norm>
0.541064

>  <RMSD>
29.163

$$$$
2f4t_lig
 OpenBabel11021811433D
libRbt.so/2013.1/901 2013/11/27
 35 36  0  0  0  0  0  0  0  0999 V2000
    5.0011   12.5161    9.3166 C   0  0  2  0  0  0  0  0  0  0  0  0
    5.9158   12.4326   10.4583 O   0  0  0  0  0  0  0  0  0  0  0  0
    9.7635   12.8359    8.5374 C   0  0  2  0  0  0  0  0  0  0  0  0
   11.1878   13.1488    8.3475 N   0  0  0  0  0  0  0  0  0  0  0  0
    3.6834   11.8211    9.7751 C   0  0  2  0  0  0  0  0  0  0  0  0
    3.1711   12.4410   10.9746 N   0  0  0  0  0  0  0  0  0  0  0  0
    9.0335   14.0892    9.1457 C   0  0  0  0  0  0  0  0  0  0  0  0
   11.9806   13.2715    9.9208 C   0  0  0  0  0  0  0  0  0  0  0  0
   13.2451   13.5574    9.1413 C   0  0  1  0  0  0  0  0  0  0  0  0
   13.5275   15.0573    9.2538 C   0  0  0  0  0  0  0  0  0  0  0  0
   14.7417   15.5675    8.4598 C   0  0  0  0  0  0  0  0  0  0  0  0
   15.9535   14.9805    9.0395 N   0  0  0  0  0  0  0  0  0  0  0  0
   14.3490   12.9138    9.7223 O   0  0  0  0  0  0  0  0  0  0  0  0
   10.7119    9.1764    8.9034 C   0  0  0  0  0  0  0  0  0  0  0  0
   11.4956    9.0035    7.6113 C   0  0  0  0  0  0  0  0  0  0  0  0
    3.9339   10.2928   10.0074 C   0  0  1  0  0  0  0  0  0  0  0  0
   11.8004    7.5921    7.2892 N   0  0  0  0  0  0  0  0  0  0  0  0
    2.7480    9.6419   10.4199 O   0  0  0  0  0  0  0  0  0  0  0  0
    7.5397   13.8239    9.3793 C   0  0  2  0  0  0  0  0  0  0  0  0
    6.8933   14.9859    9.9812 N   0  0  0  0  0  0  0  0  0  0  0  0
    9.9389    6.5013    6.0337 C   0  0  0  0  0  0  0  0  0  0  0  0
    8.8984    7.5935    6.4416 N   0  0  0  0  0  0  0  0  0  0  0  0
   11.4040    7.0254    5.9690 C   0  0  0  0  0  0  0  0  0  0  0  0
   11.6558   13.1757   10.9329 O   0  0  0  0  0  0  0  0  0  0  0  0
    4.4546    9.6923    8.6974 C   0  0  2  0  0  0  0  0  0  0  0  0
    4.6914    8.3006    8.8354 O   0  0  0  0  0  0  0  0  0  0  0  0
    7.3518   12.6318   10.2841 C   0  0  2  0  0  0  0  0  0  0  0  0
    5.7576   10.4217    8.2605 C   0  0  2  0  0  0  0  0  0  0  0  0
    5.5349   11.8395    8.1121 O   0  0  0  0  0  0  0  0  0  0  0  0
    8.0604   11.3537    9.6603 C   0  0  2  0  0  0  0  0  0  0  0  0
    7.8531   10.2216   10.5574 O   0  0  0  0  0  0  0  0  0  0  0  0
    6.2852    9.8944    6.9797 C   0  0  0  0  0  0  0  0  0  0  0  0
    5.3931   10.1327    5.9933 N   0  0  0  0  0  0  0  0  0  0  0  0
    9.5919   11.6511    9.5007 C   0  0  1  0  0  0  0  0  0  0  0  0
   10.2472   10.5381    8.9816 O   0  0  0  0  0  0  0  0  0  0  0  0
  1  2  1  1  0  0  0
  1  5  1  0  0  0  0
  1 29  1  0  0  0  0
  3  4  1  1  0  0  0
  3  7  1  0  0  0  0
  3 34  1  0  0  0  0
  5  6  1  1  0  0  0
  5 16  1  0  0  0  0
  7 19  1  0  0  0  0
  8  4  1  0  0  0  0
  8 24  2  0  0  0  0
  9  8  1  1  0  0  0
  9 10  1  0  0  0  0
  9 13  1  0  0  0  0
 10 11  1  0  0  0  0
 11 12  1  0  0  0  0
 14 15  1  0  0  0  0
 14 35  1  0  0  0  0
 15 17  1  0  0  0  0
 16 18  1  6  0  0  0
 16 25  1  0  0  0  0
 19 20  1  1  0  0  0
 19 27  1  0  0  0  0
 21 22  1  0  0  0  0
 21 23  1  0  0  0  0
 23 17  1  0  0  0  0
 25 26  1  1  0  0  0
 25 28  1  0  0  0  0
 27  2  1  6  0  0  0
 27 30  1  0  0  0  0
 28 29  1  0  0  0  0
 28 32  1  6  0  0  0
 30 31  1  1  0  0  0
 30 34  1  0  0  0  0
 32 33  2  0  0  0  0
 34 35  1  6  0  0  0
M  END
>  <CHROM.1>
162.43537967,70.16054691,104.47238253,-176.85066487,-66.02833799,-168.81094020
178.30410784,125.30583582,57.91738357,-86.27844851,43.90071078,63.53178456
-178.41936480,8.68030971,11.40815080,8.90130733,2.88000990,-0.14969547,-2.70839108

>  <Name>
2f4t_lig

>  <RI>
0

>  <Rbt.Current_Directory>
/home/itssahil/PROJECTS/Mol_Feturizer/New_Systems/rnas/2f4t

>  <Rbt.Executable>
rbdock ($Id: //depot/dev/client3/rdock/2013.1/src/exe/rbdock.cxx#4 $)

>  <Rbt.Library>
libRbt.so (2013.1, Build901 2013/11/27)

>  <Rbt.Parameter_File>
/export/apps/rDock/src/rDock_2013.1_src/data/scripts/dock_solv.prm

>  <Rbt.Receptor>
prm/blind_docking_40.prm

>  <SCORE>
-1.04472

>  <SCORE.INTER>
1.28648

>  <SCORE.INTER.CONST>
1

>  <SCORE.INTER.POLAR>
0

>  <SCORE.INTER.ROT>
13

>  <SCORE.INTER.SOLV>
12.1332

>  <SCORE.INTER.VDW>
-15.4534

>  <SCORE.INTER.norm>
0.0367565

>  <SCORE.INTRA>
-3.723

>  <SCORE.INTRA.DIHEDRAL>
-14.7762

>  <SCORE.INTRA.DIHEDRAL.0>
23.8882

>  <SCORE.INTRA.POLAR>
0

>  <SCORE.INTRA.POLAR.0>
0

>  <SCORE.INTRA.REPUL>
0

>  <SCORE.INTRA.REPUL.0>
0

>  <SCORE.INTRA.SOLV>
6.40788

>  <SCORE.INTRA.SOLV.lig_0>
-97.6888

>  <SCORE.INTRA.VDW>
0.461176

>  <SCORE.INTRA.VDW.0>
-3.9206

>  <SCORE.INTRA.norm>
-0.106371

>  <SCORE.RESTR>
1.3918

>  <SCORE.RESTR.CAVITY>
1.3918

>  <SCORE.RESTR.norm>
0.0397657

>  <SCORE.SYSTEM>
0

>  <SCORE.SYSTEM.CONST>
0

>  <SCORE.SYSTEM.DIHEDRAL>
0

>  <SCORE.SYSTEM.SOLV>
0

>  <SCORE.SYSTEM.norm>
0

>  <SCORE.heavy>
35

>  <SCORE.norm>
-0.0298491

>  <RMSD>
29.192

$$$$
2f4t_lig
 OpenBabel11021811433D
libRbt.so/2013.1/901 2013/11/27
 35 36  0  0  0  0  0  0  0  0999 V2000
   10.4047   13.8046    9.8704 C   0  0  2  0  0  0  0  0  0  0  0  0
    9.9110   13.9776    8.5016 O   0  0  0  0  0  0  0  0  0  0  0  0
    7.2201   10.6280    8.0573 C   0  0  2  0  0  0  0  0  0  0  0  0
    6.0707    9.8283    7.6080 N   0  0  0  0  0  0  0  0  0  0  0  0
   11.7283   14.6238    9.9522 C   0  0  2  0  0  0  0  0  0  0  0  0
   11.4976   16.0024    9.5892 N   0  0  0  0  0  0  0  0  0  0  0  0
    6.7063   12.0021    8.6243 C   0  0  0  0  0  0  0  0  0  0  0  0
    5.0323    9.4590    8.9879 C   0  0  0  0  0  0  0  0  0  0  0  0
    4.1533    8.7312    7.9949 C   0  0  1  0  0  0  0  0  0  0  0  0
    3.3902    7.6483    8.7610 C   0  0  0  0  0  0  0  0  0  0  0  0
    2.7898    6.5228    7.9020 C   0  0  0  0  0  0  0  0  0  0  0  0
    2.1069    5.5771    8.7898 N   0  0  0  0  0  0  0  0  0  0  0  0
    3.1762    9.5893    7.4665 O   0  0  0  0  0  0  0  0  0  0  0  0
    9.3395    8.8012    5.4891 C   0  0  0  0  0  0  0  0  0  0  0  0
    9.3109    7.4050    6.0917 C   0  0  0  0  0  0  0  0  0  0  0  0
   12.8154   13.9834    9.0247 C   0  0  1  0  0  0  0  0  0  0  0  0
   10.6484    6.7835    6.2072 N   0  0  0  0  0  0  0  0  0  0  0  0
   14.0273   14.7099    9.0880 O   0  0  0  0  0  0  0  0  0  0  0  0
    7.8621   12.8921    9.1024 C   0  0  2  0  0  0  0  0  0  0  0  0
    7.3638   14.1760    9.5858 N   0  0  0  0  0  0  0  0  0  0  0  0
   12.3015    8.6540    6.2086 C   0  0  0  0  0  0  0  0  0  0  0  0
   13.0885    9.6716    7.0957 N   0  0  0  0  0  0  0  0  0  0  0  0
   11.7154    7.4511    7.0055 C   0  0  0  0  0  0  0  0  0  0  0  0
    5.0662    9.6803   10.0314 O   0  0  0  0  0  0  0  0  0  0  0  0
   13.0282   12.5337    9.4728 C   0  0  2  0  0  0  0  0  0  0  0  0
   14.0149   11.8959    8.6781 O   0  0  0  0  0  0  0  0  0  0  0  0
    8.8395   13.1341    7.9794 C   0  0  2  0  0  0  0  0  0  0  0  0
   11.6848   11.7525    9.3969 C   0  0  2  0  0  0  0  0  0  0  0  0
   10.6690   12.3856   10.2025 O   0  0  0  0  0  0  0  0  0  0  0  0
    9.3870   11.7504    7.4220 C   0  0  2  0  0  0  0  0  0  0  0  0
   10.3317   12.0233    6.3441 O   0  0  0  0  0  0  0  0  0  0  0  0
   11.8335   10.3489    9.8495 C   0  0  0  0  0  0  0  0  0  0  0  0
   10.9440    9.5689    9.1968 N   0  0  0  0  0  0  0  0  0  0  0  0
    8.1783   10.9056    6.8885 C   0  0  1  0  0  0  0  0  0  0  0  0
    8.6289    9.6964    6.3665 O   0  0  0  0  0  0  0  0  0  0  0  0
  1  2  1  6  0  0  0
  1  5  1  0  0  0  0
  1 29  1  0  0  0  0
  3  4  1  6  0  0  0
  3  7  1  0  0  0  0
  3 34  1  0  0  0  0
  5  6  1  6  0  0  0
  5 16  1  0  0  0  0
  7 19  1  0  0  0  0
  8  4  1  0  0  0  0
  8 24  2  0  0  0  0
  9  8  1  1  0  0  0
  9 10  1  0  0  0  0
  9 13  1  0  0  0  0
 10 11  1  0  0  0  0
 11 12  1  0  0  0  0
 14 15  1  0  0  0  0
 14 35  1  0  0  0  0
 15 17  1  0  0  0  0
 16 18  1  1  0  0  0
 16 25  1  0  0  0  0
 19 20  1  6  0  0  0
 19 27  1  0  0  0  0
 21 22  1  0  0  0  0
 21 23  1  0  0  0  0
 23 17  1  0  0  0  0
 25 26  1  6  0  0  0
 25 28  1  0  0  0  0
 27  2  1  1  0  0  0
 27 30  1  0  0  0  0
 28 29  1  0  0  0  0
 28 32  1  1  0  0  0
 30 31  1  6  0  0  0
 30 34  1  0  0  0  0
 32 33  2  0  0  0  0
 34 35  1  1  0  0  0
M  END
>  <CHROM.1>
167.24048915,-63.17099168,153.84207972,-161.49636178,179.68645316,-127.73802416
168.03285357,58.66755443,162.12434802,-76.12162953,37.29633869,-149.99473600
177.74923014,9.02050306,10.82125849,8.23971724,0.54581686,0.15122988,0.40755456

>  <Name>
2f4t_lig

>  <RI>
0

>  <Rbt.Current_Directory>
/home/itssahil/PROJECTS/Mol_Feturizer/New_Systems/rnas/2f4t

>  <Rbt.Executable>
rbdock ($Id: //depot/dev/client3/rdock/2013.1/src/exe/rbdock.cxx#4 $)

>  <Rbt.Library>
libRbt.so (2013.1, Build901 2013/11/27)

>  <Rbt.Parameter_File>
/export/apps/rDock/src/rDock_2013.1_src/data/scripts/dock_solv.prm

>  <Rbt.Receptor>
prm/blind_docking_40.prm

>  <SCORE>
-2.94324

>  <SCORE.INTER>
-1.39409

>  <SCORE.INTER.CONST>
1

>  <SCORE.INTER.POLAR>
0

>  <SCORE.INTER.ROT>
13

>  <SCORE.INTER.SOLV>
8.80357

>  <SCORE.INTER.VDW>
-16.1306

>  <SCORE.INTER.norm>
-0.0398313

>  <SCORE.INTRA>
-1.58889

>  <SCORE.INTRA.DIHEDRAL>
-9.55303

>  <SCORE.INTRA.DIHEDRAL.0>
23.8882

>  <SCORE.INTRA.POLAR>
0

>  <SCORE.INTRA.POLAR.0>
0

>  <SCORE.INTRA.REPUL>
0

>  <SCORE.INTRA.REPUL.0>
0

>  <SCORE.INTRA.SOLV>
6.36887

>  <SCORE.INTRA.SOLV.lig_0>
-97.6888

>  <SCORE.INTRA.VDW>
0.00318328

>  <SCORE.INTRA.VDW.0>
-3.9206

>  <SCORE.INTRA.norm>
-0.045397

>  <SCORE.RESTR>
0.0397506

>  <SCORE.RESTR.CAVITY>
0.0397506

>  <SCORE.RESTR.norm>
0.00113573

>  <SCORE.SYSTEM>
0

>  <SCORE.SYSTEM.CONST>
0

>  <SCORE.SYSTEM.DIHEDRAL>
0

>  <SCORE.SYSTEM.SOLV>
0

>  <SCORE.SYSTEM.norm>
0

>  <SCORE.heavy>
35

>  <SCORE.norm>
-0.0840925

>  <RMSD>
29.224

$$$$
2f4t_lig
 OpenBabel11021811433D
libRbt.so/2013.1/901 2013/11/27
 35 36  0  0  0  0  0  0  0  0999 V2000
   12.9465   10.6383    6.5246 C   0  0  2  0  0  0  0  0  0  0  0  0
   11.6775   10.8815    5.8334 O   0  0  0  0  0  0  0  0  0  0  0  0
    7.4218   10.4489    6.4332 C   0  0  2  0  0  0  0  0  0  0  0  0
    6.1453    9.9840    6.9961 N   0  0  0  0  0  0  0  0  0  0  0  0
   13.0420    9.0934    6.7080 C   0  0  2  0  0  0  0  0  0  0  0  0
   12.9380    8.4215    5.4339 N   0  0  0  0  0  0  0  0  0  0  0  0
    8.3131    9.2047    6.0711 C   0  0  0  0  0  0  0  0  0  0  0  0
    6.3973    9.4306    8.6541 C   0  0  0  0  0  0  0  0  0  0  0  0
    4.9138    9.1353    8.6673 C   0  0  1  0  0  0  0  0  0  0  0  0
    4.1765   10.4760    8.6966 C   0  0  0  0  0  0  0  0  0  0  0  0
    2.8625   10.4959    9.4954 C   0  0  0  0  0  0  0  0  0  0  0  0
    3.1302    9.9758   10.8396 N   0  0  0  0  0  0  0  0  0  0  0  0
    4.5172    8.5044    7.4779 O   0  0  0  0  0  0  0  0  0  0  0  0
    6.3149   13.1482    8.4026 C   0  0  0  0  0  0  0  0  0  0  0  0
    6.4815   13.0897    9.9134 C   0  0  0  0  0  0  0  0  0  0  0  0
   11.9240    8.5977    7.6862 C   0  0  1  0  0  0  0  0  0  0  0  0
    7.8282   12.6536   10.3432 N   0  0  0  0  0  0  0  0  0  0  0  0
   11.9962    7.1972    7.8702 O   0  0  0  0  0  0  0  0  0  0  0  0
    9.6694    9.6229    5.4863 C   0  0  2  0  0  0  0  0  0  0  0  0
   10.4933    8.4536    5.1965 N   0  0  0  0  0  0  0  0  0  0  0  0
    8.5709   14.8811    9.4956 C   0  0  0  0  0  0  0  0  0  0  0  0
    8.5001   14.9792    7.9376 N   0  0  0  0  0  0  0  0  0  0  0  0
    9.0217   13.4839   10.0151 C   0  0  0  0  0  0  0  0  0  0  0  0
    7.2439    9.3616    9.3004 O   0  0  0  0  0  0  0  0  0  0  0  0
   12.1014    9.3297    9.0205 C   0  0  2  0  0  0  0  0  0  0  0  0
   11.1235    8.9159    9.9609 O   0  0  0  0  0  0  0  0  0  0  0  0
   10.4058   10.5176    6.4518 C   0  0  2  0  0  0  0  0  0  0  0  0
   12.0198   10.8674    8.7968 C   0  0  2  0  0  0  0  0  0  0  0  0
   13.0103   11.3073    7.8444 O   0  0  0  0  0  0  0  0  0  0  0  0
    9.5238   11.7932    6.7982 C   0  0  2  0  0  0  0  0  0  0  0  0
   10.2686   12.6364    7.7273 O   0  0  0  0  0  0  0  0  0  0  0  0
   12.2152   11.6220   10.0574 C   0  0  0  0  0  0  0  0  0  0  0  0
   11.1382   11.4517   10.8554 N   0  0  0  0  0  0  0  0  0  0  0  0
    8.1791   11.3173    7.4498 C   0  0  1  0  0  0  0  0  0  0  0  0
    7.3943   12.4151    7.7914 O   0  0  0  0  0  0  0  0  0  0  0  0
  1  2  1  1  0  0  0
  1  5  1  0  0  0  0
  1 29  1  0  0  0  0
  3  4  1  1  0  0  0
  3  7  1  0  0  0  0
  3 34  1  0  0  0  0
  5  6  1  6  0  0  0
  5 16  1  0  0  0  0
  7 19  1  0  0  0  0
  8  4  1  0  0  0  0
  8 24  2  0  0  0  0
  9  8  1  6  0  0  0
  9 10  1  0  0  0  0
  9 13  1  0  0  0  0
 10 11  1  0  0  0  0
 11 12  1  0  0  0  0
 14 15  1  0  0  0  0
 14 35  1  0  0  0  0
 15 17  1  0  0  0  0
 16 18  1  1  0  0  0
 16 25  1  0  0  0  0
 19 20  1  1  0  0  0
 19 27  1  0  0  0  0
 21 22  1  0  0  0  0
 21 23  1  0  0  0  0
 23 17  1  0  0  0  0
 25 26  1  1  0  0  0
 25 28  1  0  0  0  0
 27  2  1  6  0  0  0
 27 30  1  0  0  0  0
 28 29  1  0  0  0  0
 28 32  1  1  0  0  0
 30 31  1  1  0  0  0
 30 34  1  0  0  0  0
 32 33  2  0  0  0  0
 34 35  1  6  0  0  0
M  END
>  <CHROM.1>
62.31742840,75.48005299,-71.35578018,-145.63003039,52.73914184,15.63095115
65.81097032,63.62553614,-95.39685708,11.96612064,-125.17468614,-70.47953101
72.27758348,8.96707092,10.69392535,8.07217754,-0.24363146,0.13886187,0.47501594

>  <Name>
2f4t_lig

>  <RI>
0

>  <Rbt.Current_Directory>
/home/itssahil/PROJECTS/Mol_Feturizer/New_Systems/rnas/2f4t

>  <Rbt.Executable>
rbdock ($Id: //depot/dev/client3/rdock/2013.1/src/exe/rbdock.cxx#4 $)

>  <Rbt.Library>
libRbt.so (2013.1, Build901 2013/11/27)

>  <Rbt.Parameter_File>
/export/apps/rDock/src/rDock_2013.1_src/data/scripts/dock_solv.prm

>  <Rbt.Receptor>
prm/blind_docking_20.prm

>  <SCORE>
31.1803

>  <SCORE.INTER>
8.3667

>  <SCORE.INTER.CONST>
1

>  <SCORE.INTER.POLAR>
-1.09718

>  <SCORE.INTER.ROT>
13

>  <SCORE.INTER.SOLV>
16.7263

>  <SCORE.INTER.VDW>
-8.60701

>  <SCORE.INTER.norm>
0.239049

>  <SCORE.INTRA>
18.7378

>  <SCORE.INTRA.DIHEDRAL>
-0.418413

>  <SCORE.INTRA.DIHEDRAL.0>
23.8882

>  <SCORE.INTRA.POLAR>
0

>  <SCORE.INTRA.POLAR.0>
0

>  <SCORE.INTRA.REPUL>
0.0368261

>  <SCORE.INTRA.REPUL.0>
0

>  <SCORE.INTRA.SOLV>
17.8646

>  <SCORE.INTRA.SOLV.lig_0>
-97.6888

>  <SCORE.INTRA.VDW>
9.8306

>  <SCORE.INTRA.VDW.0>
-3.9206

>  <SCORE.INTRA.norm>
0.535366

>  <SCORE.RESTR>
4.07583

>  <SCORE.RESTR.CAVITY>
4.07583

>  <SCORE.RESTR.norm>
0.116452

>  <SCORE.SYSTEM>
0

>  <SCORE.SYSTEM.CONST>
0

>  <SCORE.SYSTEM.DIHEDRAL>
0

>  <SCORE.SYSTEM.SOLV>
0

>  <SCORE.SYSTEM.norm>
0

>  <SCORE.heavy>
35

>  <SCORE.norm>
0.890867

>  <RMSD>
29.251

$$$$
2f4t_lig
 OpenBabel11021811433D
libRbt.so/2013.1/901 2013/11/27
 35 36  0  0  0  0  0  0  0  0999 V2000
   11.2764   12.2502    9.2711 C   0  0  2  0  0  0  0  0  0  0  0  0
    9.9745   12.5779    9.8583 O   0  0  0  0  0  0  0  0  0  0  0  0
    5.7647   11.8997    9.1693 C   0  0  2  0  0  0  0  0  0  0  0  0
    4.5054   11.6347    8.4574 N   0  0  0  0  0  0  0  0  0  0  0  0
   11.4251   13.1729    8.0236 C   0  0  2  0  0  0  0  0  0  0  0  0
   11.2911   14.5612    8.3978 N   0  0  0  0  0  0  0  0  0  0  0  0
    6.5093   13.0999    8.4774 C   0  0  0  0  0  0  0  0  0  0  0  0
    4.8490   10.7977    6.9407 C   0  0  0  0  0  0  0  0  0  0  0  0
    3.3522   10.8045    6.7223 C   0  0  1  0  0  0  0  0  0  0  0  0
    3.0863   11.4679    5.3691 C   0  0  0  0  0  0  0  0  0  0  0  0
    3.3003   10.5741    4.1360 C   0  0  0  0  0  0  0  0  0  0  0  0
    2.7857   11.2794    2.9583 N   0  0  0  0  0  0  0  0  0  0  0  0
    2.8551    9.4964    6.6135 O   0  0  0  0  0  0  0  0  0  0  0  0
    5.7463    8.2189   10.0683 C   0  0  0  0  0  0  0  0  0  0  0  0
    5.3452    7.4754    8.8035 C   0  0  0  0  0  0  0  0  0  0  0  0
   10.3619   12.7882    6.9402 C   0  0  1  0  0  0  0  0  0  0  0  0
    3.8904    7.5051    8.5366 N   0  0  0  0  0  0  0  0  0  0  0  0
   10.4830   13.6115    5.7966 O   0  0  0  0  0  0  0  0  0  0  0  0
    7.8416   13.4217    9.1685 C   0  0  2  0  0  0  0  0  0  0  0  0
    8.5322   14.5106    8.4846 N   0  0  0  0  0  0  0  0  0  0  0  0
    3.4848    5.0860    9.0006 C   0  0  0  0  0  0  0  0  0  0  0  0
    2.5036    3.9948    9.5375 N   0  0  0  0  0  0  0  0  0  0  0  0
    2.9850    6.5435    9.2272 C   0  0  0  0  0  0  0  0  0  0  0  0
    5.7383   10.4646    6.4536 O   0  0  0  0  0  0  0  0  0  0  0  0
   10.5698   11.3154    6.5724 C   0  0  2  0  0  0  0  0  0  0  0  0
    9.6425   10.9035    5.5813 O   0  0  0  0  0  0  0  0  0  0  0  0
    8.7337   12.2056    9.1846 C   0  0  2  0  0  0  0  0  0  0  0  0
   10.4336   10.4272    7.8427 C   0  0  2  0  0  0  0  0  0  0  0  0
   11.3722   10.8301    8.8617 O   0  0  0  0  0  0  0  0  0  0  0  0
    7.9997   10.9975    9.9102 C   0  0  2  0  0  0  0  0  0  0  0  0
    8.8925    9.8433    9.9122 O   0  0  0  0  0  0  0  0  0  0  0  0
   10.6560    8.9928    7.5425 C   0  0  0  0  0  0  0  0  0  0  0  0
   11.9585    8.6894    7.7350 N   0  0  0  0  0  0  0  0  0  0  0  0
    6.6796   10.6657    9.1315 C   0  0  1  0  0  0  0  0  0  0  0  0
    6.0260    9.5906    9.7272 O   0  0  0  0  0  0  0  0  0  0  0  0
  1  2  1  6  0  0  0
  1  5  1  0  0  0  0
  1 29  1  0  0  0  0
  3  4  1  6  0  0  0
  3  7  1  0  0  0  0
  3 34  1  0  0  0  0
  5  6  1  1  0  0  0
  5 16  1  0  0  0  0
  7 19  1  0  0  0  0
  8  4  1  0  0  0  0
  8 24  2  0  0  0  0
  9  8  1  6  0  0  0
  9 10  1  0  0  0  0
  9 13  1  0  0  0  0
 10 11  1  0  0  0  0
 11 12  1  0  0  0  0
 14 15  1  0  0  0  0
 14 35  1  0  0  0  0
 15 17  1  0  0  0  0
 16 18  1  6  0  0  0
 16 25  1  0  0  0  0
 19 20  1  6  0  0  0
 19 27  1  0  0  0  0
 21 22  1  0  0  0  0
 21 23  1  0  0  0  0
 23 17  1  0  0  0  0
 25 26  1  6  0  0  0
 25 28  1  0  0  0  0
 27  2  1  1  0  0  0
 27 30  1  0  0  0  0
 28 29  1  0  0  0  0
 28 32  1  6  0  0  0
 30 31  1  6  0  0  0
 30 34  1  0  0  0  0
 32 33  2  0  0  0  0
 34 35  1  1  0  0  0
M  END
>  <CHROM.1>
70.37246138,75.77077942,124.70367121,79.60126642,170.34022240,-90.08642689
-64.71633204,-82.04289575,-172.86557281,-53.92244680,-131.91272766,92.33345120
162.85784872,7.16843580,10.60520707,7.94729696,-0.41596913,0.35986788,2.55691602

>  <Name>
2f4t_lig

>  <RI>
0

>  <Rbt.Current_Directory>
/home/itssahil/PROJECTS/Mol_Feturizer/New_Systems/rnas/2f4t

>  <Rbt.Executable>
rbdock ($Id: //depot/dev/client3/rdock/2013.1/src/exe/rbdock.cxx#4 $)

>  <Rbt.Library>
libRbt.so (2013.1, Build901 2013/11/27)

>  <Rbt.Parameter_File>
/export/apps/rDock/src/rDock_2013.1_src/data/scripts/dock_solv.prm

>  <Rbt.Receptor>
prm/blind_docking_20.prm

>  <SCORE>
8.98417

>  <SCORE.INTER>
1.88269

>  <SCORE.INTER.CONST>
1

>  <SCORE.INTER.POLAR>
0

>  <SCORE.INTER.ROT>
13

>  <SCORE.INTER.SOLV>
11.023

>  <SCORE.INTER.VDW>
-14.6859

>  <SCORE.INTER.norm>
0.0537912

>  <SCORE.INTRA>
3.7111

>  <SCORE.INTRA.DIHEDRAL>
-6.51444

>  <SCORE.INTRA.DIHEDRAL.0>
23.8882

>  <SCORE.INTRA.POLAR>
0

>  <SCORE.INTRA.POLAR.0>
0

>  <SCORE.INTRA.REPUL>
0.0141248

>  <SCORE.INTRA.REPUL.0>
0

>  <SCORE.INTRA.SOLV>
7.98734

>  <SCORE.INTRA.SOLV.lig_0>
-97.6888

>  <SCORE.INTRA.VDW>
2.90403

>  <SCORE.INTRA.VDW.0>
-3.9206

>  <SCORE.INTRA.norm>
0.106031

>  <SCORE.RESTR>
3.39038

>  <SCORE.RESTR.CAVITY>
3.39038

>  <SCORE.RESTR.norm>
0.0968679

>  <SCORE.SYSTEM>
0

>  <SCORE.SYSTEM.CONST>
0

>  <SCORE.SYSTEM.DIHEDRAL>
0

>  <SCORE.SYSTEM.SOLV>
0

>  <SCORE.SYSTEM.norm>
0

>  <SCORE.heavy>
35

>  <SCORE.norm>
0.256691

>  <RMSD>
29.251

$$$$
2f4t_lig
 OpenBabel11021811433D
libRbt.so/2013.1/901 2013/11/27
 35 36  0  0  0  0  0  0  0  0999 V2000
    5.3888   12.0761    8.3830 C   0  0  2  0  0  0  0  0  0  0  0  0
    5.9202   12.0236    9.7476 O   0  0  0  0  0  0  0  0  0  0  0  0
    9.9931   13.3711    9.2451 C   0  0  2  0  0  0  0  0  0  0  0  0
   11.2757   14.0319    9.5296 N   0  0  0  0  0  0  0  0  0  0  0  0
    4.1533   11.1259    8.3705 C   0  0  2  0  0  0  0  0  0  0  0  0
    3.1981   11.5186    9.3799 N   0  0  0  0  0  0  0  0  0  0  0  0
    8.8230   14.4039    9.4389 C   0  0  0  0  0  0  0  0  0  0  0  0
   12.5265   13.3755    8.4696 C   0  0  0  0  0  0  0  0  0  0  0  0
   13.4657   14.3410    9.1579 C   0  0  1  0  0  0  0  0  0  0  0  0
   14.8707   13.7369    9.1025 C   0  0  0  0  0  0  0  0  0  0  0  0
   15.0778   12.4563    9.9285 C   0  0  0  0  0  0  0  0  0  0  0  0
   16.2055   11.7143    9.3568 N   0  0  0  0  0  0  0  0  0  0  0  0
   13.5409   15.5543    8.4561 O   0  0  0  0  0  0  0  0  0  0  0  0
   11.5687   10.0692   10.2649 C   0  0  0  0  0  0  0  0  0  0  0  0
   10.8624    8.9155    9.5696 C   0  0  0  0  0  0  0  0  0  0  0  0
    4.6115    9.6447    8.5909 C   0  0  1  0  0  0  0  0  0  0  0  0
   11.1421    8.8393    8.1189 N   0  0  0  0  0  0  0  0  0  0  0  0
    3.5045    8.7646    8.5782 O   0  0  0  0  0  0  0  0  0  0  0  0
    7.4508   13.7719    9.1666 C   0  0  2  0  0  0  0  0  0  0  0  0
    6.3798   14.7374    9.3922 N   0  0  0  0  0  0  0  0  0  0  0  0
   10.7959    7.2630    6.2144 C   0  0  0  0  0  0  0  0  0  0  0  0
   11.2523    5.9658    5.4721 N   0  0  0  0  0  0  0  0  0  0  0  0
   11.6023    7.5572    7.5139 C   0  0  0  0  0  0  0  0  0  0  0  0
   12.5458   12.6307    7.7054 O   0  0  0  0  0  0  0  0  0  0  0  0
    5.6037    9.2841    7.4804 C   0  0  2  0  0  0  0  0  0  0  0  0
    6.0509    7.9447    7.6140 O   0  0  0  0  0  0  0  0  0  0  0  0
    7.2342   12.5775   10.0618 C   0  0  2  0  0  0  0  0  0  0  0  0
    6.8125   10.2634    7.5106 C   0  0  2  0  0  0  0  0  0  0  0  0
    6.3764   11.6318    7.3727 O   0  0  0  0  0  0  0  0  0  0  0  0
    8.3964   11.5151    9.8486 C   0  0  2  0  0  0  0  0  0  0  0  0
    8.1510   10.3739   10.7241 O   0  0  0  0  0  0  0  0  0  0  0  0
    7.7884    9.9725    6.4336 C   0  0  0  0  0  0  0  0  0  0  0  0
    8.7493    9.1492    6.9073 N   0  0  0  0  0  0  0  0  0  0  0  0
    9.7685   12.1882   10.1998 C   0  0  1  0  0  0  0  0  0  0  0  0
   10.8065   11.2729   10.0499 O   0  0  0  0  0  0  0  0  0  0  0  0
  1  2  1  1  0  0  0
  1  5  1  0  0  0  0
  1 29  1  0  0  0  0
  3  4  1  1  0  0  0
  3  7  1  0  0  0  0
  3 34  1  0  0  0  0
  5  6  1  1  0  0  0
  5 16  1  0  0  0  0
  7 19  1  0  0  0  0
  8  4  1  0  0  0  0
  8 24  2  0  0  0  0
  9  8  1  6  0  0  0
  9 10  1  0  0  0  0
  9 13  1  0  0  0  0
 10 11  1  0  0  0  0
 11 12  1  0  0  0  0
 14 15  1  0  0  0  0
 14 35  1  0  0  0  0
 15 17  1  0  0  0  0
 16 18  1  6  0  0  0
 16 25  1  0  0  0  0
 19 20  1  1  0  0  0
 19 27  1  0  0  0  0
 21 22  1  0  0  0  0
 21 23  1  0  0  0  0
 23 17  1  0  0  0  0
 25 26  1  1  0  0  0
 25 28  1  0  0  0  0
 27  2  1  6  0  0  0
 27 30  1  0  0  0  0
 28 29  1  0  0  0  0
 28 32  1  6  0  0  0
 30 31  1  1  0  0  0
 30 34  1  0  0  0  0
 32 33  2  0  0  0  0
 34 35  1  6  0  0  0
M  END
>  <CHROM.1>
167.51488330,-145.66917500,152.03312753,-67.12916599,156.34854214,81.32150340
74.43959561,128.55293476,177.45912014,133.40806113,33.29265662,-93.36425060
-177.74412710,9.19672366,11.24058035,8.67096250,2.86169050,-0.02574878,-2.79305136

>  <Name>
2f4t_lig

>  <RI>
0

>  <Rbt.Current_Directory>
/home/itssahil/PROJECTS/Mol_Feturizer/New_Systems/rnas/2f4t

>  <Rbt.Executable>
rbdock ($Id: //depot/dev/client3/rdock/2013.1/src/exe/rbdock.cxx#4 $)

>  <Rbt.Library>
libRbt.so (2013.1, Build901 2013/11/27)

>  <Rbt.Parameter_File>
/export/apps/rDock/src/rDock_2013.1_src/data/scripts/dock_solv.prm

>  <Rbt.Receptor>
prm/blind_docking_80.prm

>  <SCORE>
-2.25564

>  <SCORE.INTER>
-0.666256

>  <SCORE.INTER.CONST>
1

>  <SCORE.INTER.POLAR>
-1.07703

>  <SCORE.INTER.ROT>
13

>  <SCORE.INTER.SOLV>
22.0118

>  <SCORE.INTER.VDW>
-16.458

>  <SCORE.INTER.norm>
-0.0190359

>  <SCORE.INTRA>
-4.31681

>  <SCORE.INTRA.DIHEDRAL>
-9.89011

>  <SCORE.INTRA.DIHEDRAL.0>
23.8882

>  <SCORE.INTRA.POLAR>
0

>  <SCORE.INTRA.POLAR.0>
0

>  <SCORE.INTRA.REPUL>
0.0510738

>  <SCORE.INTRA.REPUL.0>
0

>  <SCORE.INTRA.SOLV>
2.75183

>  <SCORE.INTRA.SOLV.lig_0>
-97.6888

>  <SCORE.INTRA.VDW>
-1.00304

>  <SCORE.INTRA.VDW.0>
-3.9206

>  <SCORE.INTRA.norm>
-0.123337

>  <SCORE.RESTR>
2.72742

>  <SCORE.RESTR.CAVITY>
2.72742

>  <SCORE.RESTR.norm>
0.0779264

>  <SCORE.SYSTEM>
0

>  <SCORE.SYSTEM.CONST>
0

>  <SCORE.SYSTEM.DIHEDRAL>
0

>  <SCORE.SYSTEM.SOLV>
0

>  <SCORE.SYSTEM.norm>
0

>  <SCORE.heavy>
35

>  <SCORE.norm>
-0.0644469

>  <RMSD>
29.259

$$$$
2f4t_lig
 OpenBabel11021811433D
libRbt.so/2013.1/901 2013/11/27
 35 36  0  0  0  0  0  0  0  0999 V2000
   11.7362    9.5634    8.9350 C   0  0  2  0  0  0  0  0  0  0  0  0
   10.8848   10.5774    8.3070 O   0  0  0  0  0  0  0  0  0  0  0  0
    6.6973   11.3286    7.5604 C   0  0  2  0  0  0  0  0  0  0  0  0
    5.2839   11.0797    7.2392 N   0  0  0  0  0  0  0  0  0  0  0  0
   13.1815    9.8451    8.4236 C   0  0  2  0  0  0  0  0  0  0  0  0
   13.5744   11.2010    8.7279 N   0  0  0  0  0  0  0  0  0  0  0  0
    7.6041   10.6670    6.4588 C   0  0  0  0  0  0  0  0  0  0  0  0
    4.9037    9.3789    7.5248 C   0  0  0  0  0  0  0  0  0  0  0  0
    3.5006    9.7290    7.0810 C   0  0  1  0  0  0  0  0  0  0  0  0
    3.5619   10.0830    5.5934 C   0  0  0  0  0  0  0  0  0  0  0  0
    2.3940   10.9308    5.0622 C   0  0  0  0  0  0  0  0  0  0  0  0
    2.5046   11.0080    3.6024 N   0  0  0  0  0  0  0  0  0  0  0  0
    2.6516    8.6153    7.1764 O   0  0  0  0  0  0  0  0  0  0  0  0
    5.0392   11.6964   10.5698 C   0  0  0  0  0  0  0  0  0  0  0  0
    5.3110   12.9860   11.3292 C   0  0  0  0  0  0  0  0  0  0  0  0
   13.2687    9.5777    6.8831 C   0  0  1  0  0  0  0  0  0  0  0  0
    6.0725   13.9838   10.5463 N   0  0  0  0  0  0  0  0  0  0  0  0
   14.5749    9.8232    6.3993 O   0  0  0  0  0  0  0  0  0  0  0  0
    9.0974   10.8819    6.7419 C   0  0  2  0  0  0  0  0  0  0  0  0
    9.9182   10.2251    5.7294 N   0  0  0  0  0  0  0  0  0  0  0  0
    7.9650   14.5828    9.0327 C   0  0  0  0  0  0  0  0  0  0  0  0
    9.4695   14.3903    8.6567 N   0  0  0  0  0  0  0  0  0  0  0  0
    7.5278   13.7829   10.2953 C   0  0  0  0  0  0  0  0  0  0  0  0
    5.4608    8.5329    7.8610 O   0  0  0  0  0  0  0  0  0  0  0  0
   12.8612    8.1226    6.6297 C   0  0  2  0  0  0  0  0  0  0  0  0
   12.9306    7.8088    5.2482 O   0  0  0  0  0  0  0  0  0  0  0  0
    9.4598   10.3355    8.1003 C   0  0  2  0  0  0  0  0  0  0  0  0
   11.4232    7.8729    7.1692 C   0  0  2  0  0  0  0  0  0  0  0  0
   11.3343    8.1841    8.5752 O   0  0  0  0  0  0  0  0  0  0  0  0
    8.5688   11.0224    9.2224 C   0  0  2  0  0  0  0  0  0  0  0  0
    8.9502   10.4752   10.5202 O   0  0  0  0  0  0  0  0  0  0  0  0
   10.9939    6.4678    6.9730 C   0  0  0  0  0  0  0  0  0  0  0  0
   11.3120    6.0707    5.7212 N   0  0  0  0  0  0  0  0  0  0  0  0
    7.0588   10.7213    8.9249 C   0  0  1  0  0  0  0  0  0  0  0  0
    6.2519   11.2871    9.9081 O   0  0  0  0  0  0  0  0  0  0  0  0
  1  2  1  6  0  0  0
  1  5  1  0  0  0  0
  1 29  1  0  0  0  0
  3  4  1  6  0  0  0
  3  7  1  0  0  0  0
  3 34  1  0  0  0  0
  5  6  1  6  0  0  0
  5 16  1  0  0  0  0
  7 19  1  0  0  0  0
  8  4  1  0  0  0  0
  8 24  2  0  0  0  0
  9  8  1  6  0  0  0
  9 10  1  0  0  0  0
  9 13  1  0  0  0  0
 10 11  1  0  0  0  0
 11 12  1  0  0  0  0
 14 15  1  0  0  0  0
 14 35  1  0  0  0  0
 15 17  1  0  0  0  0
 16 18  1  1  0  0  0
 16 25  1  0  0  0  0
 19 20  1  6  0  0  0
 19 27  1  0  0  0  0
 21 22  1  0  0  0  0
 21 23  1  0  0  0  0
 23 17  1  0  0  0  0
 25 26  1  6  0  0  0
 25 28  1  0  0  0  0
 27  2  1  1  0  0  0
 27 30  1  0  0  0  0
 28 29  1  0  0  0  0
 28 32  1  1  0  0  0
 30 31  1  1  0  0  0
 30 34  1  0  0  0  0
 32 33  2  0  0  0  0
 34 35  1  1  0  0  0
M  END
>  <CHROM.1>
154.99500970,71.78707030,67.27962808,-159.07375914,-171.73649177,45.15812519
-147.09428767,-73.60163837,-177.80052256,157.03562041,-139.39480499,-45.20593310
53.68245082,8.38370970,10.35836531,7.80193196,-0.21342378,-0.13432601,0.74086615

>  <Name>
2f4t_lig

>  <RI>
0

>  <Rbt.Current_Directory>
/home/itssahil/PROJECTS/Mol_Feturizer/New_Systems/rnas/2f4t

>  <Rbt.Executable>
rbdock ($Id: //depot/dev/client3/rdock/2013.1/src/exe/rbdock.cxx#4 $)

>  <Rbt.Library>
libRbt.so (2013.1, Build901 2013/11/27)

>  <Rbt.Parameter_File>
/export/apps/rDock/src/rDock_2013.1_src/data/scripts/dock_solv.prm

>  <Rbt.Receptor>
prm/blind_docking_20.prm

>  <SCORE>
3.40138

>  <SCORE.INTER>
-3.7212

>  <SCORE.INTER.CONST>
1

>  <SCORE.INTER.POLAR>
-1.47688

>  <SCORE.INTER.ROT>
13

>  <SCORE.INTER.SOLV>
13.7029

>  <SCORE.INTER.VDW>
-14.3922

>  <SCORE.INTER.norm>
-0.10632

>  <SCORE.INTRA>
2.09572

>  <SCORE.INTRA.DIHEDRAL>
-5.67394

>  <SCORE.INTRA.DIHEDRAL.0>
23.8882

>  <SCORE.INTRA.POLAR>
0

>  <SCORE.INTRA.POLAR.0>
0

>  <SCORE.INTRA.REPUL>
0

>  <SCORE.INTRA.REPUL.0>
0

>  <SCORE.INTRA.SOLV>
5.98243

>  <SCORE.INTRA.SOLV.lig_0>
-97.6888

>  <SCORE.INTRA.VDW>
1.94147

>  <SCORE.INTRA.VDW.0>
-3.9206

>  <SCORE.INTRA.norm>
0.0598776

>  <SCORE.RESTR>
5.02686

>  <SCORE.RESTR.CAVITY>
5.02686

>  <SCORE.RESTR.norm>
0.143625

>  <SCORE.SYSTEM>
0

>  <SCORE.SYSTEM.CONST>
0

>  <SCORE.SYSTEM.DIHEDRAL>
0

>  <SCORE.SYSTEM.SOLV>
0

>  <SCORE.SYSTEM.norm>
0

>  <SCORE.heavy>
35

>  <SCORE.norm>
0.0971824

>  <RMSD>
29.277

$$$$
2f4t_lig
 OpenBabel11021811433D
libRbt.so/2013.1/901 2013/11/27
 35 36  0  0  0  0  0  0  0  0999 V2000
    6.6502   11.2593    8.7989 C   0  0  2  0  0  0  0  0  0  0  0  0
    7.2014   11.3713   10.1520 O   0  0  0  0  0  0  0  0  0  0  0  0
   11.2830   12.5093    9.3137 C   0  0  2  0  0  0  0  0  0  0  0  0
   12.6676   12.9532    9.5343 N   0  0  0  0  0  0  0  0  0  0  0  0
    5.2543   11.9510    8.8494 C   0  0  2  0  0  0  0  0  0  0  0  0
    5.3768   13.3127    9.3144 N   0  0  0  0  0  0  0  0  0  0  0  0
   10.2979   13.5117   10.0196 C   0  0  0  0  0  0  0  0  0  0  0  0
   12.9802   14.4081    8.5834 C   0  0  0  0  0  0  0  0  0  0  0  0
   14.3707   14.3680    9.1774 C   0  0  1  0  0  0  0  0  0  0  0  0
   15.2103   13.4156    8.3231 C   0  0  0  0  0  0  0  0  0  0  0  0
   15.3984   11.9999    8.8937 C   0  0  0  0  0  0  0  0  0  0  0  0
   16.0113   12.1134   10.2205 N   0  0  0  0  0  0  0  0  0  0  0  0
   14.9940   15.6219    9.0807 O   0  0  0  0  0  0  0  0  0  0  0  0
   12.5898    9.4897    8.2320 C   0  0  0  0  0  0  0  0  0  0  0  0
   11.5467    8.6598    7.4995 C   0  0  0  0  0  0  0  0  0  0  0  0
    4.2841   11.1381    9.7716 C   0  0  1  0  0  0  0  0  0  0  0  0
   10.2887    9.3916    7.2343 N   0  0  0  0  0  0  0  0  0  0  0  0
    3.0088   11.7471    9.8274 O   0  0  0  0  0  0  0  0  0  0  0  0
    8.8312   13.0978    9.8357 C   0  0  2  0  0  0  0  0  0  0  0  0
    7.9397   14.0193   10.5330 N   0  0  0  0  0  0  0  0  0  0  0  0
   10.2027   10.0079    4.8168 C   0  0  0  0  0  0  0  0  0  0  0  0
   11.6282    9.5138    4.4101 N   0  0  0  0  0  0  0  0  0  0  0  0
    9.5518    9.1712    5.9576 C   0  0  0  0  0  0  0  0  0  0  0  0
   12.4027   15.0013    7.9097 O   0  0  0  0  0  0  0  0  0  0  0  0
    4.1812    9.7143    9.2150 C   0  0  2  0  0  0  0  0  0  0  0  0
    3.3034    8.9240   10.0003 O   0  0  0  0  0  0  0  0  0  0  0  0
    8.6078   11.7024   10.3630 C   0  0  2  0  0  0  0  0  0  0  0  0
    5.5931    9.0626    9.1608 C   0  0  2  0  0  0  0  0  0  0  0  0
    6.4996    9.8519    8.3628 O   0  0  0  0  0  0  0  0  0  0  0  0
    9.5784   10.6786    9.6316 C   0  0  2  0  0  0  0  0  0  0  0  0
    9.3304    9.3418   10.1615 O   0  0  0  0  0  0  0  0  0  0  0  0
    5.5494    7.6911    8.6005 C   0  0  0  0  0  0  0  0  0  0  0  0
    4.9412    7.7170    7.3942 N   0  0  0  0  0  0  0  0  0  0  0  0
   11.0626   11.1068    9.9016 C   0  0  1  0  0  0  0  0  0  0  0  0
   11.9400   10.2115    9.2963 O   0  0  0  0  0  0  0  0  0  0  0  0
  1  2  1  1  0  0  0
  1  5  1  0  0  0  0
  1 29  1  0  0  0  0
  3  4  1  1  0  0  0
  3  7  1  0  0  0  0
  3 34  1  0  0  0  0
  5  6  1  1  0  0  0
  5 16  1  0  0  0  0
  7 19  1  0  0  0  0
  8  4  1  0  0  0  0
  8 24  2  0  0  0  0
  9  8  1  6  0  0  0
  9 10  1  0  0  0  0
  9 13  1  0  0  0  0
 10 11  1  0  0  0  0
 11 12  1  0  0  0  0
 14 15  1  0  0  0  0
 14 35  1  0  0  0  0
 15 17  1  0  0  0  0
 16 18  1  6  0  0  0
 16 25  1  0  0  0  0
 19 20  1  1  0  0  0
 19 27  1  0  0  0  0
 21 22  1  0  0  0  0
 21 23  1  0  0  0  0
 23 17  1  0  0  0  0
 25 26  1  1  0  0  0
 25 28  1  0  0  0  0
 27  2  1  6  0  0  0
 27 30  1  0  0  0  0
 28 29  1  0  0  0  0
 28 32  1  6  0  0  0
 30 31  1  1  0  0  0
 30 34  1  0  0  0  0
 32 33  2  0  0  0  0
 34 35  1  6  0  0  0
M  END
>  <CHROM.1>
-138.36554039,-71.45728487,84.34496661,-100.18285671,-57.41287804,43.81901449
-61.54568135,142.81616287,68.27720711,-80.86278651,64.57456459,54.33031631
-56.13740205,9.43940175,11.31191349,8.81495824,2.89220681,-0.19538576,-2.61727763

>  <Name>
2f4t_lig

>  <RI>
0

>  <Rbt.Current_Directory>
/home/itssahil/PROJECTS/Mol_Feturizer/New_Systems/rnas/2f4t

>  <Rbt.Executable>
rbdock ($Id: //depot/dev/client3/rdock/2013.1/src/exe/rbdock.cxx#4 $)

>  <Rbt.Library>
libRbt.so (2013.1, Build901 2013/11/27)

>  <Rbt.Parameter_File>
/export/apps/rDock/src/rDock_2013.1_src/data/scripts/dock_solv.prm

>  <Rbt.Receptor>
prm/blind_docking_80.prm

>  <SCORE>
1.57563

>  <SCORE.INTER>
-0.710575

>  <SCORE.INTER.CONST>
1

>  <SCORE.INTER.POLAR>
-0.916515

>  <SCORE.INTER.ROT>
13

>  <SCORE.INTER.SOLV>
18.7506

>  <SCORE.INTER.VDW>
-15.9355

>  <SCORE.INTER.norm>
-0.0203021

>  <SCORE.INTRA>
-0.272561

>  <SCORE.INTRA.DIHEDRAL>
-8.48544

>  <SCORE.INTRA.DIHEDRAL.0>
23.8882

>  <SCORE.INTRA.POLAR>
0

>  <SCORE.INTRA.POLAR.0>
0

>  <SCORE.INTRA.REPUL>
0.0708685

>  <SCORE.INTRA.REPUL.0>
0

>  <SCORE.INTRA.SOLV>
9.1504

>  <SCORE.INTRA.SOLV.lig_0>
-97.6888

>  <SCORE.INTRA.VDW>
-0.959385

>  <SCORE.INTRA.VDW.0>
-3.9206

>  <SCORE.INTRA.norm>
-0.00778745

>  <SCORE.RESTR>
2.55876

>  <SCORE.RESTR.CAVITY>
2.55876

>  <SCORE.RESTR.norm>
0.0731075

>  <SCORE.SYSTEM>
0

>  <SCORE.SYSTEM.CONST>
0

>  <SCORE.SYSTEM.DIHEDRAL>
0

>  <SCORE.SYSTEM.SOLV>
0

>  <SCORE.SYSTEM.norm>
0

>  <SCORE.heavy>
35

>  <SCORE.norm>
0.0450179

>  <RMSD>
29.278

$$$$
2f4t_lig
 OpenBabel11021811433D
libRbt.so/2013.1/901 2013/11/27
 35 36  0  0  0  0  0  0  0  0999 V2000
    9.8210   13.9147    9.7336 C   0  0  2  0  0  0  0  0  0  0  0  0
    9.3135   13.8772    8.3595 O   0  0  0  0  0  0  0  0  0  0  0  0
    7.3167   10.0478    8.2840 C   0  0  2  0  0  0  0  0  0  0  0  0
    6.3980    8.9756    7.8728 N   0  0  0  0  0  0  0  0  0  0  0  0
   10.7340   15.1753    9.8159 C   0  0  2  0  0  0  0  0  0  0  0  0
   10.0017   16.3606    9.4362 N   0  0  0  0  0  0  0  0  0  0  0  0
    6.5014   11.3753    8.5000 C   0  0  0  0  0  0  0  0  0  0  0  0
    5.1866    8.7202    9.1323 C   0  0  0  0  0  0  0  0  0  0  0  0
    4.6210    7.6527    8.2219 C   0  0  1  0  0  0  0  0  0  0  0  0
    3.6516    6.8062    9.0499 C   0  0  0  0  0  0  0  0  0  0  0  0
    2.2803    7.4447    9.3277 C   0  0  0  0  0  0  0  0  0  0  0  0
    1.5250    7.4834    8.0719 N   0  0  0  0  0  0  0  0  0  0  0  0
    3.8524    8.2241    7.1957 O   0  0  0  0  0  0  0  0  0  0  0  0
    9.9177    7.9788    7.3093 C   0  0  0  0  0  0  0  0  0  0  0  0
   10.3258    7.2963    6.0127 C   0  0  0  0  0  0  0  0  0  0  0  0
   11.9929   14.9883    8.9034 C   0  0  1  0  0  0  0  0  0  0  0  0
   11.7856    7.0927    5.8859 N   0  0  0  0  0  0  0  0  0  0  0  0
   12.8379   16.1206    8.9675 O   0  0  0  0  0  0  0  0  0  0  0  0
    7.4069   12.5409    8.9218 C   0  0  2  0  0  0  0  0  0  0  0  0
    6.6344   13.7696    9.0763 N   0  0  0  0  0  0  0  0  0  0  0  0
   12.1703    9.5581    5.8127 C   0  0  0  0  0  0  0  0  0  0  0  0
   11.6706    9.5680    4.3321 N   0  0  0  0  0  0  0  0  0  0  0  0
   12.7276    8.1797    6.2762 C   0  0  0  0  0  0  0  0  0  0  0  0
    4.9945    9.1575   10.0867 O   0  0  0  0  0  0  0  0  0  0  0  0
   12.7347   13.7311    9.3690 C   0  0  2  0  0  0  0  0  0  0  0  0
   13.8981   13.5093    8.5885 O   0  0  0  0  0  0  0  0  0  0  0  0
    8.4891   12.7651    7.8953 C   0  0  2  0  0  0  0  0  0  0  0  0
   11.7887   12.4981    9.2920 C   0  0  2  0  0  0  0  0  0  0  0  0
   10.6001   12.7046   10.0832 O   0  0  0  0  0  0  0  0  0  0  0  0
    9.3373   11.4364    7.6945 C   0  0  2  0  0  0  0  0  0  0  0  0
   10.3756   11.6920    6.7018 O   0  0  0  0  0  0  0  0  0  0  0  0
   12.4537   11.2592    9.7611 C   0  0  0  0  0  0  0  0  0  0  0  0
   12.8520   10.5309    8.6950 N   0  0  0  0  0  0  0  0  0  0  0  0
    8.3811   10.2946    7.2036 C   0  0  1  0  0  0  0  0  0  0  0  0
    9.1005    9.1220    6.9909 O   0  0  0  0  0  0  0  0  0  0  0  0
  1  2  1  6  0  0  0
  1  5  1  0  0  0  0
  1 29  1  0  0  0  0
  3  4  1  6  0  0  0
  3  7  1  0  0  0  0
  3 34  1  0  0  0  0
  5  6  1  6  0  0  0
  5 16  1  0  0  0  0
  7 19  1  0  0  0  0
  8  4  1  0  0  0  0
  8 24  2  0  0  0  0
  9  8  1  1  0  0  0
  9 10  1  0  0  0  0
  9 13  1  0  0  0  0
 10 11  1  0  0  0  0
 11 12  1  0  0  0  0
 14 15  1  0  0  0  0
 14 35  1  0  0  0  0
 15 17  1  0  0  0  0
 16 18  1  1  0  0  0
 16 25  1  0  0  0  0
 19 20  1  6  0  0  0
 19 27  1  0  0  0  0
 21 22  1  0  0  0  0
 21 23  1  0  0  0  0
 23 17  1  0  0  0  0
 25 26  1  6  0  0  0
 25 28  1  0  0  0  0
 27  2  1  1  0  0  0
 27 30  1  0  0  0  0
 28 29  1  0  0  0  0
 28 32  1  1  0  0  0
 30 31  1  6  0  0  0
 30 34  1  0  0  0  0
 32 33  2  0  0  0  0
 34 35  1  1  0  0  0
M  END
>  <CHROM.1>
175.74150326,-60.21951087,165.72041792,76.62375560,70.29719360,126.95267642
-171.86940001,-42.92142377,-47.37093668,-40.30466938,48.63134277,-100.71083574
-56.16417807,8.97547358,10.91617885,8.18419102,0.57525628,0.24852845,0.42189476

>  <Name>
2f4t_lig

>  <RI>
0

>  <Rbt.Current_Directory>
/home/itssahil/PROJECTS/Mol_Feturizer/New_Systems/rnas/2f4t

>  <Rbt.Executable>
rbdock ($Id: //depot/dev/client3/rdock/2013.1/src/exe/rbdock.cxx#4 $)

>  <Rbt.Library>
libRbt.so (2013.1, Build901 2013/11/27)

>  <Rbt.Parameter_File>
/export/apps/rDock/src/rDock_2013.1_src/data/scripts/dock_solv.prm

>  <Rbt.Receptor>
prm/blind_docking_40.prm

>  <SCORE>
-4.30577

>  <SCORE.INTER>
-5.45788

>  <SCORE.INTER.CONST>
1

>  <SCORE.INTER.POLAR>
-1.80543

>  <SCORE.INTER.ROT>
13

>  <SCORE.INTER.SOLV>
12.8631

>  <SCORE.INTER.VDW>
-14.1749

>  <SCORE.INTER.norm>
-0.155939

>  <SCORE.INTRA>
0.0950698

>  <SCORE.INTRA.DIHEDRAL>
-13.0294

>  <SCORE.INTRA.DIHEDRAL.0>
23.8882

>  <SCORE.INTRA.POLAR>
0

>  <SCORE.INTRA.POLAR.0>
0

>  <SCORE.INTRA.REPUL>
0

>  <SCORE.INTRA.REPUL.0>
0

>  <SCORE.INTRA.SOLV>
7.37363

>  <SCORE.INTRA.SOLV.lig_0>
-97.6888

>  <SCORE.INTRA.VDW>
2.92294

>  <SCORE.INTRA.VDW.0>
-3.9206

>  <SCORE.INTRA.norm>
0.00271628

>  <SCORE.RESTR>
1.05704

>  <SCORE.RESTR.CAVITY>
1.05704

>  <SCORE.RESTR.norm>
0.0302011

>  <SCORE.SYSTEM>
0

>  <SCORE.SYSTEM.CONST>
0

>  <SCORE.SYSTEM.DIHEDRAL>
0

>  <SCORE.SYSTEM.SOLV>
0

>  <SCORE.SYSTEM.norm>
0

>  <SCORE.heavy>
35

>  <SCORE.norm>
-0.123022

>  <RMSD>
29.279

$$$$
2f4t_lig
 OpenBabel11021811433D
libRbt.so/2013.1/901 2013/11/27
 35 36  0  0  0  0  0  0  0  0999 V2000
   10.3980   14.5613    9.6431 C   0  0  2  0  0  0  0  0  0  0  0  0
    9.8640   14.1132    8.3542 O   0  0  0  0  0  0  0  0  0  0  0  0
    7.5006   10.6040    9.2239 C   0  0  2  0  0  0  0  0  0  0  0  0
    6.3610    9.6747    9.2433 N   0  0  0  0  0  0  0  0  0  0  0  0
   11.7586   15.2514    9.3235 C   0  0  2  0  0  0  0  0  0  0  0  0
   11.5765   16.3194    8.3688 N   0  0  0  0  0  0  0  0  0  0  0  0
    7.0137   12.0316    9.6693 C   0  0  0  0  0  0  0  0  0  0  0  0
    5.3878    9.9028    7.7873 C   0  0  0  0  0  0  0  0  0  0  0  0
    4.5068    8.8010    8.3331 C   0  0  1  0  0  0  0  0  0  0  0  0
    3.3808    9.4627    9.1307 C   0  0  0  0  0  0  0  0  0  0  0  0
    3.8298   10.4134   10.2531 C   0  0  0  0  0  0  0  0  0  0  0  0
    2.6349   10.9350   10.9234 N   0  0  0  0  0  0  0  0  0  0  0  0
    3.8792    8.0984    7.2925 O   0  0  0  0  0  0  0  0  0  0  0  0
    8.4416    8.0292    7.1380 C   0  0  0  0  0  0  0  0  0  0  0  0
    9.6799    7.6121    6.3596 C   0  0  0  0  0  0  0  0  0  0  0  0
   12.7827   14.1969    8.7833 C   0  0  1  0  0  0  0  0  0  0  0  0
   10.9419    7.8105    7.1057 N   0  0  0  0  0  0  0  0  0  0  0  0
   14.0270   14.8024    8.4912 O   0  0  0  0  0  0  0  0  0  0  0  0
    8.1577   13.0551    9.6603 C   0  0  2  0  0  0  0  0  0  0  0  0
    7.6734   14.3793   10.0373 N   0  0  0  0  0  0  0  0  0  0  0  0
   13.0109    9.0196    7.8048 C   0  0  0  0  0  0  0  0  0  0  0  0
   13.9333   10.2696    7.6356 N   0  0  0  0  0  0  0  0  0  0  0  0
   11.7361    9.0566    6.9110 C   0  0  0  0  0  0  0  0  0  0  0  0
    5.4485   10.5477    6.9390 O   0  0  0  0  0  0  0  0  0  0  0  0
   12.9468   13.1060    9.8465 C   0  0  2  0  0  0  0  0  0  0  0  0
   13.8753   12.1205    9.4241 O   0  0  0  0  0  0  0  0  0  0  0  0
    8.7851   13.1314    8.2908 C   0  0  2  0  0  0  0  0  0  0  0  0
   11.5682   12.4534   10.1541 C   0  0  2  0  0  0  0  0  0  0  0  0
   10.6109   13.4414   10.5887 O   0  0  0  0  0  0  0  0  0  0  0  0
    9.3078   11.6980    7.8470 C   0  0  2  0  0  0  0  0  0  0  0  0
    9.9122   11.8114    6.5238 O   0  0  0  0  0  0  0  0  0  0  0  0
   11.6706   11.4090   11.2008 C   0  0  0  0  0  0  0  0  0  0  0  0
   11.3061   10.2154   10.6828 N   0  0  0  0  0  0  0  0  0  0  0  0
    8.0941   10.7055    7.8102 C   0  0  1  0  0  0  0  0  0  0  0  0
    8.5152    9.4447    7.3968 O   0  0  0  0  0  0  0  0  0  0  0  0
  1  2  1  6  0  0  0
  1  5  1  0  0  0  0
  1 29  1  0  0  0  0
  3  4  1  6  0  0  0
  3  7  1  0  0  0  0
  3 34  1  0  0  0  0
  5  6  1  6  0  0  0
  5 16  1  0  0  0  0
  7 19  1  0  0  0  0
  8  4  1  0  0  0  0
  8 24  2  0  0  0  0
  9  8  1  6  0  0  0
  9 10  1  0  0  0  0
  9 13  1  0  0  0  0
 10 11  1  0  0  0  0
 11 12  1  0  0  0  0
 14 15  1  0  0  0  0
 14 35  1  0  0  0  0
 15 17  1  0  0  0  0
 16 18  1  1  0  0  0
 16 25  1  0  0  0  0
 19 20  1  6  0  0  0
 19 27  1  0  0  0  0
 21 22  1  0  0  0  0
 21 23  1  0  0  0  0
 23 17  1  0  0  0  0
 25 26  1  6  0  0  0
 25 28  1  0  0  0  0
 27  2  1  1  0  0  0
 27 30  1  0  0  0  0
 28 29  1  0  0  0  0
 28 32  1  1  0  0  0
 30 31  1  6  0  0  0
 30 34  1  0  0  0  0
 32 33  2  0  0  0  0
 34 35  1  1  0  0  0
M  END
>  <CHROM.1>
163.98004282,79.32485142,93.19048783,-55.44087930,-178.98886435,63.04489821
171.60648931,-95.15895797,178.22574741,-179.98119610,16.01230789,-117.89623852
50.18312134,9.16902252,11.37929249,8.66434393,0.42037099,0.13100574,0.39934977

>  <Name>
2f4t_lig

>  <RI>
0

>  <Rbt.Current_Directory>
/home/itssahil/PROJECTS/Mol_Feturizer/New_Systems/rnas/2f4t

>  <Rbt.Executable>
rbdock ($Id: //depot/dev/client3/rdock/2013.1/src/exe/rbdock.cxx#4 $)

>  <Rbt.Library>
libRbt.so (2013.1, Build901 2013/11/27)

>  <Rbt.Parameter_File>
/export/apps/rDock/src/rDock_2013.1_src/data/scripts/dock_solv.prm

>  <Rbt.Receptor>
prm/blind_docking_80.prm

>  <SCORE>
2.13236

>  <SCORE.INTER>
1.19041

>  <SCORE.INTER.CONST>
1

>  <SCORE.INTER.POLAR>
0

>  <SCORE.INTER.ROT>
13

>  <SCORE.INTER.SOLV>
11.6139

>  <SCORE.INTER.VDW>
-15.3444

>  <SCORE.INTER.norm>
0.0340118

>  <SCORE.INTRA>
-1.39105

>  <SCORE.INTRA.DIHEDRAL>
-12.1617

>  <SCORE.INTRA.DIHEDRAL.0>
23.8882

>  <SCORE.INTRA.POLAR>
0

>  <SCORE.INTRA.POLAR.0>
0

>  <SCORE.INTRA.REPUL>
0

>  <SCORE.INTRA.REPUL.0>
0

>  <SCORE.INTRA.SOLV>
6.03767

>  <SCORE.INTRA.SOLV.lig_0>
-97.6888

>  <SCORE.INTRA.VDW>
1.67095

>  <SCORE.INTRA.VDW.0>
-3.9206

>  <SCORE.INTRA.norm>
-0.0397444

>  <SCORE.RESTR>
2.333

>  <SCORE.RESTR.CAVITY>
2.333

>  <SCORE.RESTR.norm>
0.0666573

>  <SCORE.SYSTEM>
0

>  <SCORE.SYSTEM.CONST>
0

>  <SCORE.SYSTEM.DIHEDRAL>
0

>  <SCORE.SYSTEM.SOLV>
0

>  <SCORE.SYSTEM.norm>
0

>  <SCORE.heavy>
35

>  <SCORE.norm>
0.0609247

>  <RMSD>
29.303

$$$$
2f4t_lig
 OpenBabel11021811433D
libRbt.so/2013.1/901 2013/11/27
 35 36  0  0  0  0  0  0  0  0999 V2000
   12.3716   10.8563    6.7697 C   0  0  2  0  0  0  0  0  0  0  0  0
   11.0487   11.1552    6.2148 O   0  0  0  0  0  0  0  0  0  0  0  0
    6.9133   10.0046    6.6956 C   0  0  2  0  0  0  0  0  0  0  0  0
    5.7344    9.1902    7.0269 N   0  0  0  0  0  0  0  0  0  0  0  0
   12.7710    9.4649    6.1918 C   0  0  2  0  0  0  0  0  0  0  0  0
   12.7391    9.4844    4.7482 N   0  0  0  0  0  0  0  0  0  0  0  0
    7.8776    9.1711    5.7742 C   0  0  0  0  0  0  0  0  0  0  0  0
    4.2669   10.1270    6.7308 C   0  0  0  0  0  0  0  0  0  0  0  0
    3.5170    8.8960    7.1896 C   0  0  1  0  0  0  0  0  0  0  0  0
    3.0540    9.1464    8.6265 C   0  0  0  0  0  0  0  0  0  0  0  0
    2.5642    7.9067    9.3937 C   0  0  0  0  0  0  0  0  0  0  0  0
    1.8802    8.3557   10.6101 N   0  0  0  0  0  0  0  0  0  0  0  0
    2.3477    8.7107    6.4355 O   0  0  0  0  0  0  0  0  0  0  0  0
    5.9171   12.1730    9.2025 C   0  0  0  0  0  0  0  0  0  0  0  0
    6.6304   13.5109    9.0820 C   0  0  0  0  0  0  0  0  0  0  0  0
   11.8162    8.3563    6.7500 C   0  0  1  0  0  0  0  0  0  0  0  0
    7.3065   13.7053    7.7806 N   0  0  0  0  0  0  0  0  0  0  0  0
   12.1650    7.0837    6.2409 O   0  0  0  0  0  0  0  0  0  0  0  0
    9.1378    9.9634    5.3994 C   0  0  2  0  0  0  0  0  0  0  0  0
   10.0347    9.1556    4.5789 N   0  0  0  0  0  0  0  0  0  0  0  0
    9.5597   14.4547    8.5507 C   0  0  0  0  0  0  0  0  0  0  0  0
   10.7248   15.4883    8.4228 N   0  0  0  0  0  0  0  0  0  0  0  0
    8.3433   14.7652    7.6290 C   0  0  0  0  0  0  0  0  0  0  0  0
    4.0669   11.1160    6.3830 O   0  0  0  0  0  0  0  0  0  0  0  0
   11.9112    8.3732    8.2792 C   0  0  2  0  0  0  0  0  0  0  0  0
   11.0761    7.3796    8.8511 O   0  0  0  0  0  0  0  0  0  0  0  0
    9.8704   10.4057    6.6414 C   0  0  2  0  0  0  0  0  0  0  0  0
   11.5249    9.7805    8.8190 C   0  0  2  0  0  0  0  0  0  0  0  0
   12.3668   10.8046    8.2499 O   0  0  0  0  0  0  0  0  0  0  0  0
    8.9113   11.2752    7.5628 C   0  0  2  0  0  0  0  0  0  0  0  0
    9.6538   11.6894    8.7486 O   0  0  0  0  0  0  0  0  0  0  0  0
   11.6299    9.8556   10.2956 C   0  0  0  0  0  0  0  0  0  0  0  0
   10.5059   10.4115   10.7990 N   0  0  0  0  0  0  0  0  0  0  0  0
    7.6732   10.4031    7.9702 C   0  0  1  0  0  0  0  0  0  0  0  0
    6.8258   11.1287    8.8027 O   0  0  0  0  0  0  0  0  0  0  0  0
  1  2  1  6  0  0  0
  1  5  1  0  0  0  0
  1 29  1  0  0  0  0
  3  4  1  1  0  0  0
  3  7  1  0  0  0  0
  3 34  1  0  0  0  0
  5  6  1  6  0  0  0
  5 16  1  0  0  0  0
  7 19  1  0  0  0  0
  8  4  1  0  0  0  0
  8 24  2  0  0  0  0
  9  8  1  6  0  0  0
  9 10  1  0  0  0  0
  9 13  1  0  0  0  0
 10 11  1  0  0  0  0
 11 12  1  0  0  0  0
 14 15  1  0  0  0  0
 14 35  1  0  0  0  0
 15 17  1  0  0  0  0
 16 18  1  6  0  0  0
 16 25  1  0  0  0  0
 19 20  1  6  0  0  0
 19 27  1  0  0  0  0
 21 22  1  0  0  0  0
 21 23  1  0  0  0  0
 23 17  1  0  0  0  0
 25 26  1  1  0  0  0
 25 28  1  0  0  0  0
 27  2  1  6  0  0  0
 27 30  1  0  0  0  0
 28 29  1  0  0  0  0
 28 32  1  1  0  0  0
 30 31  1  1  0  0  0
 30 34  1  0  0  0  0
 32 33  2  0  0  0  0
 34 35  1  1  0  0  0
M  END
>  <CHROM.1>
69.94331480,-130.86393543,102.27008930,-166.17411191,-167.09857648,49.43159067
-61.10434585,-163.23903426,177.96005001,63.67340369,-130.88512990,-131.84235317
-55.39766938,8.41203135,10.39194666,7.64662944,0.02132412,0.10861241,0.27617518

>  <Name>
2f4t_lig

>  <RI>
0

>  <Rbt.Current_Directory>
/home/itssahil/PROJECTS/Mol_Feturizer/New_Systems/rnas/2f4t

>  <Rbt.Executable>
rbdock ($Id: //depot/dev/client3/rdock/2013.1/src/exe/rbdock.cxx#4 $)

>  <Rbt.Library>
libRbt.so (2013.1, Build901 2013/11/27)

>  <Rbt.Parameter_File>
/export/apps/rDock/src/rDock_2013.1_src/data/scripts/dock_solv.prm

>  <Rbt.Receptor>
prm/blind_docking_20.prm

>  <SCORE>
17.5752

>  <SCORE.INTER>
13.4079

>  <SCORE.INTER.CONST>
1

>  <SCORE.INTER.POLAR>
-2.23151

>  <SCORE.INTER.ROT>
13

>  <SCORE.INTER.SOLV>
17.669

>  <SCORE.INTER.VDW>
-1.77935

>  <SCORE.INTER.norm>
0.383084

>  <SCORE.INTRA>
-0.595519

>  <SCORE.INTRA.DIHEDRAL>
-10.6165

>  <SCORE.INTRA.DIHEDRAL.0>
23.8882

>  <SCORE.INTRA.POLAR>
0

>  <SCORE.INTRA.POLAR.0>
0

>  <SCORE.INTRA.REPUL>
0.0105384

>  <SCORE.INTRA.REPUL.0>
0

>  <SCORE.INTRA.SOLV>
8.4321

>  <SCORE.INTRA.SOLV.lig_0>
-97.6888

>  <SCORE.INTRA.VDW>
0.444001

>  <SCORE.INTRA.VDW.0>
-3.9206

>  <SCORE.INTRA.norm>
-0.0170148

>  <SCORE.RESTR>
4.76275

>  <SCORE.RESTR.CAVITY>
4.76275

>  <SCORE.RESTR.norm>
0.136078

>  <SCORE.SYSTEM>
0

>  <SCORE.SYSTEM.CONST>
0

>  <SCORE.SYSTEM.DIHEDRAL>
0

>  <SCORE.SYSTEM.SOLV>
0

>  <SCORE.SYSTEM.norm>
0

>  <SCORE.heavy>
35

>  <SCORE.norm>
0.502148

>  <RMSD>
29.304

$$$$
2f4t_lig
 OpenBabel11021811433D
libRbt.so/2013.1/901 2013/11/27
 35 36  0  0  0  0  0  0  0  0999 V2000
   11.1784    9.1552    9.0681 C   0  0  2  0  0  0  0  0  0  0  0  0
   10.0524   10.0661    8.8454 O   0  0  0  0  0  0  0  0  0  0  0  0
    6.1515   10.1528    6.9926 C   0  0  2  0  0  0  0  0  0  0  0  0
    5.0105    9.7570    6.1535 N   0  0  0  0  0  0  0  0  0  0  0  0
   12.4607    9.9710    8.7222 C   0  0  2  0  0  0  0  0  0  0  0  0
   12.5261   11.1775    9.5132 N   0  0  0  0  0  0  0  0  0  0  0  0
    7.4578   10.1715    6.1169 C   0  0  0  0  0  0  0  0  0  0  0  0
    3.7663   11.0086    6.2195 C   0  0  0  0  0  0  0  0  0  0  0  0
    2.9810   10.1271    5.2738 C   0  0  1  0  0  0  0  0  0  0  0  0
    1.7329   10.9036    4.8482 C   0  0  0  0  0  0  0  0  0  0  0  0
    1.9859   12.1422    3.9724 C   0  0  0  0  0  0  0  0  0  0  0  0
    0.6978   12.6147    3.4559 N   0  0  0  0  0  0  0  0  0  0  0  0
    3.7043    9.8861    4.0953 O   0  0  0  0  0  0  0  0  0  0  0  0
    4.2913    8.6830    9.9588 C   0  0  0  0  0  0  0  0  0  0  0  0
    3.1550    9.6879   10.0710 C   0  0  0  0  0  0  0  0  0  0  0  0
   12.4859   10.3111    7.1938 C   0  0  1  0  0  0  0  0  0  0  0  0
    3.5811   11.0065   10.5889 N   0  0  0  0  0  0  0  0  0  0  0  0
   13.6453   11.0481    6.8576 O   0  0  0  0  0  0  0  0  0  0  0  0
    8.6922   10.5681    6.9389 C   0  0  2  0  0  0  0  0  0  0  0  0
    9.8966   10.5388    6.1150 N   0  0  0  0  0  0  0  0  0  0  0  0
    5.0746   12.4368    9.1906 C   0  0  0  0  0  0  0  0  0  0  0  0
    6.4876   13.0760    8.9984 N   0  0  0  0  0  0  0  0  0  0  0  0
    4.9877   11.4626   10.4026 C   0  0  0  0  0  0  0  0  0  0  0  0
    3.6721   11.9456    6.7219 O   0  0  0  0  0  0  0  0  0  0  0  0
   12.4354    8.9937    6.4130 C   0  0  2  0  0  0  0  0  0  0  0  0
   12.4680    9.2302    5.0149 O   0  0  0  0  0  0  0  0  0  0  0  0
    8.8709    9.6301    8.1065 C   0  0  2  0  0  0  0  0  0  0  0  0
   11.1545    8.1982    6.7971 C   0  0  2  0  0  0  0  0  0  0  0  0
   11.1058    7.9455    8.2168 O   0  0  0  0  0  0  0  0  0  0  0  0
    7.5661    9.6296    9.0134 C   0  0  2  0  0  0  0  0  0  0  0  0
    7.7773    8.7182   10.1331 O   0  0  0  0  0  0  0  0  0  0  0  0
   11.0752    6.8993    6.0876 C   0  0  0  0  0  0  0  0  0  0  0  0
   10.6430    5.9457    6.9417 N   0  0  0  0  0  0  0  0  0  0  0  0
    6.3473    9.1576    8.1469 C   0  0  1  0  0  0  0  0  0  0  0  0
    5.1915    9.1193    8.9217 O   0  0  0  0  0  0  0  0  0  0  0  0
  1  2  1  6  0  0  0
  1  5  1  0  0  0  0
  1 29  1  0  0  0  0
  3  4  1  6  0  0  0
  3  7  1  0  0  0  0
  3 34  1  0  0  0  0
  5  6  1  1  0  0  0
  5 16  1  0  0  0  0
  7 19  1  0  0  0  0
  8  4  1  0  0  0  0
  8 24  2  0  0  0  0
  9  8  1  1  0  0  0
  9 10  1  0  0  0  0
  9 13  1  0  0  0  0
 10 11  1  0  0  0  0
 11 12  1  0  0  0  0
 14 15  1  0  0  0  0
 14 35  1  0  0  0  0
 15 17  1  0  0  0  0
 16 18  1  1  0  0  0
 16 25  1  0  0  0  0
 19 20  1  6  0  0  0
 19 27  1  0  0  0  0
 21 22  1  0  0  0  0
 21 23  1  0  0  0  0
 23 17  1  0  0  0  0
 25 26  1  6  0  0  0
 25 28  1  0  0  0  0
 27  2  1  1  0  0  0
 27 30  1  0  0  0  0
 28 29  1  0  0  0  0
 28 32  1  6  0  0  0
 30 31  1  1  0  0  0
 30 34  1  0  0  0  0
 32 33  2  0  0  0  0
 34 35  1  1  0  0  0
M  END
>  <CHROM.1>
133.61033321,-123.20411140,-173.58404607,67.47649975,169.66546591,-67.98071433
168.38326334,26.15686348,174.50630216,99.21236447,-122.55986425,138.56909906
174.61233558,7.43976457,10.04115922,7.43488795,0.11278656,-0.20102476,1.58268949

>  <Name>
2f4t_lig

>  <RI>
0

>  <Rbt.Current_Directory>
/home/itssahil/PROJECTS/Mol_Feturizer/New_Systems/rnas/2f4t

>  <Rbt.Executable>
rbdock ($Id: //depot/dev/client3/rdock/2013.1/src/exe/rbdock.cxx#4 $)

>  <Rbt.Library>
libRbt.so (2013.1, Build901 2013/11/27)

>  <Rbt.Parameter_File>
/export/apps/rDock/src/rDock_2013.1_src/data/scripts/dock_solv.prm

>  <Rbt.Receptor>
prm/blind_docking_20.prm

>  <SCORE>
7.13328

>  <SCORE.INTER>
-6.07827

>  <SCORE.INTER.CONST>
1

>  <SCORE.INTER.POLAR>
-1.55989

>  <SCORE.INTER.ROT>
13

>  <SCORE.INTER.SOLV>
12.6387

>  <SCORE.INTER.VDW>
-15.3321

>  <SCORE.INTER.norm>
-0.173665

>  <SCORE.INTRA>
5.632

>  <SCORE.INTRA.DIHEDRAL>
-4.05841

>  <SCORE.INTRA.DIHEDRAL.0>
23.8882

>  <SCORE.INTRA.POLAR>
0

>  <SCORE.INTRA.POLAR.0>
0

>  <SCORE.INTRA.REPUL>
0

>  <SCORE.INTRA.REPUL.0>
0

>  <SCORE.INTRA.SOLV>
9.85291

>  <SCORE.INTRA.SOLV.lig_0>
-97.6888

>  <SCORE.INTRA.VDW>
2.73475

>  <SCORE.INTRA.VDW.0>
-3.9206

>  <SCORE.INTRA.norm>
0.160914

>  <SCORE.RESTR>
7.57954

>  <SCORE.RESTR.CAVITY>
7.57954

>  <SCORE.RESTR.norm>
0.216558

>  <SCORE.SYSTEM>
0

>  <SCORE.SYSTEM.CONST>
0

>  <SCORE.SYSTEM.DIHEDRAL>
0

>  <SCORE.SYSTEM.SOLV>
0

>  <SCORE.SYSTEM.norm>
0

>  <SCORE.heavy>
35

>  <SCORE.norm>
0.203808

>  <RMSD>
29.328

$$$$
2f4t_lig
 OpenBabel11021811433D
libRbt.so/2013.1/901 2013/11/27
 35 36  0  0  0  0  0  0  0  0999 V2000
    4.1539   11.4014    9.3726 C   0  0  2  0  0  0  0  0  0  0  0  0
    5.2741   10.7184   10.0252 O   0  0  0  0  0  0  0  0  0  0  0  0
    8.6425   12.4094    7.9151 C   0  0  2  0  0  0  0  0  0  0  0  0
   10.0264   12.8003    7.6077 N   0  0  0  0  0  0  0  0  0  0  0  0
    2.8708   10.6384    9.8209 C   0  0  2  0  0  0  0  0  0  0  0  0
    2.7721   10.6097   11.2614 N   0  0  0  0  0  0  0  0  0  0  0  0
    8.2755   12.8962    9.3649 C   0  0  0  0  0  0  0  0  0  0  0  0
   11.1180   12.1019    8.8074 C   0  0  0  0  0  0  0  0  0  0  0  0
   12.2288   12.7732    8.0304 C   0  0  1  0  0  0  0  0  0  0  0  0
   12.4438   14.1611    8.6382 C   0  0  0  0  0  0  0  0  0  0  0  0
   13.3542   15.1056    7.8356 C   0  0  0  0  0  0  0  0  0  0  0  0
   13.4119   16.3947    8.5313 N   0  0  0  0  0  0  0  0  0  0  0  0
   13.4426   12.0883    8.1970 O   0  0  0  0  0  0  0  0  0  0  0  0
    8.9056    9.5355    5.4576 C   0  0  0  0  0  0  0  0  0  0  0  0
    9.9571   10.0600    4.4918 C   0  0  0  0  0  0  0  0  0  0  0  0
    2.8785    9.1845    9.2391 C   0  0  1  0  0  0  0  0  0  0  0  0
   11.3284    9.6015    4.8049 N   0  0  0  0  0  0  0  0  0  0  0  0
    1.7189    8.4758    9.6308 O   0  0  0  0  0  0  0  0  0  0  0  0
    6.8418   12.5088    9.7531 C   0  0  2  0  0  0  0  0  0  0  0  0
    6.5390   12.9351   11.1157 N   0  0  0  0  0  0  0  0  0  0  0  0
   12.4362    8.7771    6.8844 C   0  0  0  0  0  0  0  0  0  0  0  0
   11.2659    7.8039    7.2384 N   0  0  0  0  0  0  0  0  0  0  0  0
   11.9867   10.0276    6.0724 C   0  0  0  0  0  0  0  0  0  0  0  0
   10.9883   11.4886    9.6713 O   0  0  0  0  0  0  0  0  0  0  0  0
    2.9634    9.2841    7.7125 C   0  0  2  0  0  0  0  0  0  0  0  0
    2.9619    7.9961    7.1186 O   0  0  0  0  0  0  0  0  0  0  0  0
    6.6537   11.0158    9.6506 C   0  0  2  0  0  0  0  0  0  0  0  0
    4.2440   10.0671    7.3025 C   0  0  2  0  0  0  0  0  0  0  0  0
    4.2613   11.3822    7.8955 O   0  0  0  0  0  0  0  0  0  0  0  0
    6.9927   10.5207    8.1792 C   0  0  2  0  0  0  0  0  0  0  0  0
    6.7943    9.0765    8.1162 O   0  0  0  0  0  0  0  0  0  0  0  0
    4.3558   10.2154    5.8320 C   0  0  0  0  0  0  0  0  0  0  0  0
    3.3932   11.0542    5.3898 N   0  0  0  0  0  0  0  0  0  0  0  0
    8.4836   10.8822    7.8542 C   0  0  1  0  0  0  0  0  0  0  0  0
    8.8207   10.4356    6.5795 O   0  0  0  0  0  0  0  0  0  0  0  0
  1  2  1  1  0  0  0
  1  5  1  0  0  0  0
  1 29  1  0  0  0  0
  3  4  1  1  0  0  0
  3  7  1  0  0  0  0
  3 34  1  0  0  0  0
  5  6  1  1  0  0  0
  5 16  1  0  0  0  0
  7 19  1  0  0  0  0
  8  4  1  0  0  0  0
  8 24  2  0  0  0  0
  9  8  1  1  0  0  0
  9 10  1  0  0  0  0
  9 13  1  0  0  0  0
 10 11  1  0  0  0  0
 11 12  1  0  0  0  0
 14 15  1  0  0  0  0
 14 35  1  0  0  0  0
 15 17  1  0  0  0  0
 16 18  1  6  0  0  0
 16 25  1  0  0  0  0
 19 20  1  1  0  0  0
 19 27  1  0  0  0  0
 21 22  1  0  0  0  0
 21 23  1  0  0  0  0
 23 17  1  0  0  0  0
 25 26  1  6  0  0  0
 25 28  1  0  0  0  0
 27  2  1  6  0  0  0
 27 30  1  0  0  0  0
 28 29  1  0  0  0  0
 28 32  1  6  0  0  0
 30 31  1  1  0  0  0
 30 34  1  0  0  0  0
 32 33  2  0  0  0  0
 34 35  1  6  0  0  0
M  END
>  <CHROM.1>
169.22805819,58.10675092,91.16317691,-169.38813227,178.04805538,87.06919219
-164.88857387,-64.93548946,-58.20487877,124.06971406,53.15250695,69.08461393
-164.31811834,7.79316929,11.01282062,8.03991608,3.01404551,-0.26777120,-2.40540255

>  <Name>
2f4t_lig

>  <RI>
0

>  <Rbt.Current_Directory>
/home/itssahil/PROJECTS/Mol_Feturizer/New_Systems/rnas/2f4t

>  <Rbt.Executable>
rbdock ($Id: //depot/dev/client3/rdock/2013.1/src/exe/rbdock.cxx#4 $)

>  <Rbt.Library>
libRbt.so (2013.1, Build901 2013/11/27)

>  <Rbt.Parameter_File>
/export/apps/rDock/src/rDock_2013.1_src/data/scripts/dock_solv.prm

>  <Rbt.Receptor>
prm/blind_docking_40.prm

>  <SCORE>
-6.54231

>  <SCORE.INTER>
-3.31662

>  <SCORE.INTER.CONST>
1

>  <SCORE.INTER.POLAR>
-0.916515

>  <SCORE.INTER.ROT>
13

>  <SCORE.INTER.SOLV>
11.4903

>  <SCORE.INTER.VDW>
-15.2528

>  <SCORE.INTER.norm>
-0.0947605

>  <SCORE.INTRA>
-5.10495

>  <SCORE.INTRA.DIHEDRAL>
-13.409

>  <SCORE.INTRA.DIHEDRAL.0>
23.8882

>  <SCORE.INTRA.POLAR>
0

>  <SCORE.INTRA.POLAR.0>
0

>  <SCORE.INTRA.REPUL>
0

>  <SCORE.INTRA.REPUL.0>
0

>  <SCORE.INTRA.SOLV>
4.65154

>  <SCORE.INTRA.SOLV.lig_0>
-97.6888

>  <SCORE.INTRA.VDW>
-0.72621

>  <SCORE.INTRA.VDW.0>
-3.9206

>  <SCORE.INTRA.norm>
-0.145856

>  <SCORE.RESTR>
1.87926

>  <SCORE.RESTR.CAVITY>
1.87926

>  <SCORE.RESTR.norm>
0.0536932

>  <SCORE.SYSTEM>
0

>  <SCORE.SYSTEM.CONST>
0

>  <SCORE.SYSTEM.DIHEDRAL>
0

>  <SCORE.SYSTEM.SOLV>
0

>  <SCORE.SYSTEM.norm>
0

>  <SCORE.heavy>
35

>  <SCORE.norm>
-0.186923

>  <RMSD>
29.340

$$$$
2f4t_lig
 OpenBabel11021811433D
libRbt.so/2013.1/901 2013/11/27
 35 36  0  0  0  0  0  0  0  0999 V2000
    4.5485   10.7305    8.3628 C   0  0  2  0  0  0  0  0  0  0  0  0
    5.7111   10.5130    7.4978 O   0  0  0  0  0  0  0  0  0  0  0  0
    9.2357   13.0056    7.3527 C   0  0  2  0  0  0  0  0  0  0  0  0
   10.4944   13.6454    7.7640 N   0  0  0  0  0  0  0  0  0  0  0  0
    4.5010    9.5072    9.3276 C   0  0  2  0  0  0  0  0  0  0  0  0
    5.7449    9.3792   10.0499 N   0  0  0  0  0  0  0  0  0  0  0  0
    8.1617   13.1974    8.4856 C   0  0  0  0  0  0  0  0  0  0  0  0
   11.2001   12.7488    9.1119 C   0  0  0  0  0  0  0  0  0  0  0  0
   12.3189   13.7656    9.0626 C   0  0  1  0  0  0  0  0  0  0  0  0
   12.0487   14.8024   10.1553 C   0  0  0  0  0  0  0  0  0  0  0  0
   10.6824   15.5048   10.0834 C   0  0  0  0  0  0  0  0  0  0  0  0
    9.6662   14.5963   10.6227 N   0  0  0  0  0  0  0  0  0  0  0  0
   13.5491   13.1742    9.3896 O   0  0  0  0  0  0  0  0  0  0  0  0
   11.7036   11.0786    5.5571 C   0  0  0  0  0  0  0  0  0  0  0  0
   12.2174    9.7370    6.0569 C   0  0  0  0  0  0  0  0  0  0  0  0
    4.1928    8.1994    8.5232 C   0  0  1  0  0  0  0  0  0  0  0  0
   11.3861    8.5898    5.6311 N   0  0  0  0  0  0  0  0  0  0  0  0
    4.1405    7.0768    9.3819 O   0  0  0  0  0  0  0  0  0  0  0  0
    6.8227   12.5408    8.1218 C   0  0  2  0  0  0  0  0  0  0  0  0
    5.8563   12.6968    9.2044 N   0  0  0  0  0  0  0  0  0  0  0  0
   10.2213    6.4222    6.0509 C   0  0  0  0  0  0  0  0  0  0  0  0
    8.9106    6.9517    6.7168 N   0  0  0  0  0  0  0  0  0  0  0  0
   11.4757    7.2922    6.3589 C   0  0  0  0  0  0  0  0  0  0  0  0
   10.9143   11.8834    9.6674 O   0  0  0  0  0  0  0  0  0  0  0  0
    2.8561    8.3909    7.7991 C   0  0  2  0  0  0  0  0  0  0  0  0
    2.5095    7.2324    7.0577 O   0  0  0  0  0  0  0  0  0  0  0  0
    7.0157   11.0714    7.8416 C   0  0  2  0  0  0  0  0  0  0  0  0
    2.9338    9.6299    6.8611 C   0  0  2  0  0  0  0  0  0  0  0  0
    3.2826   10.8195    7.5992 O   0  0  0  0  0  0  0  0  0  0  0  0
    8.0769   10.8708    6.6760 C   0  0  2  0  0  0  0  0  0  0  0  0
    8.2330    9.4412    6.4289 O   0  0  0  0  0  0  0  0  0  0  0  0
    1.6518    9.8743    6.1585 C   0  0  0  0  0  0  0  0  0  0  0  0
    1.8718    9.9286    4.8265 N   0  0  0  0  0  0  0  0  0  0  0  0
    9.4424   11.5008    7.1205 C   0  0  1  0  0  0  0  0  0  0  0  0
   10.4031   11.3163    6.1301 O   0  0  0  0  0  0  0  0  0  0  0  0
  1  2  1  6  0  0  0
  1  5  1  0  0  0  0
  1 29  1  0  0  0  0
  3  4  1  1  0  0  0
  3  7  1  0  0  0  0
  3 34  1  0  0  0  0
  5  6  1  6  0  0  0
  5 16  1  0  0  0  0
  7 19  1  0  0  0  0
  8  4  1  0  0  0  0
  8 24  2  0  0  0  0
  9  8  1  1  0  0  0
  9 10  1  0  0  0  0
  9 13  1  0  0  0  0
 10 11  1  0  0  0  0
 11 12  1  0  0  0  0
 14 15  1  0  0  0  0
 14 35  1  0  0  0  0
 15 17  1  0  0  0  0
 16 18  1  1  0  0  0
 16 25  1  0  0  0  0
 19 20  1  1  0  0  0
 19 27  1  0  0  0  0
 21 22  1  0  0  0  0
 21 23  1  0  0  0  0
 23 17  1  0  0  0  0
 25 26  1  6  0  0  0
 25 28  1  0  0  0  0
 27  2  1  6  0  0  0
 27 30  1  0  0  0  0
 28 29  1  0  0  0  0
 28 32  1  1  0  0  0
 30 31  1  1  0  0  0
 30 34  1  0  0  0  0
 32 33  2  0  0  0  0
 34 35  1  6  0  0  0
M  END
>  <CHROM.1>
-92.87918869,68.54536993,99.17828110,-56.12016028,78.44079254,63.13524976
59.34573567,-160.62145955,-71.39365682,161.56421487,-51.37815018,-125.66142554
95.99765781,7.84033959,10.74806217,7.79944746,2.70841561,-0.10643944,-2.65437601

>  <Name>
2f4t_lig

>  <RI>
0

>  <Rbt.Current_Directory>
/home/itssahil/PROJECTS/Mol_Feturizer/New_Systems/rnas/2f4t

>  <Rbt.Executable>
rbdock ($Id: //depot/dev/client3/rdock/2013.1/src/exe/rbdock.cxx#4 $)

>  <Rbt.Library>
libRbt.so (2013.1, Build901 2013/11/27)

>  <Rbt.Parameter_File>
/export/apps/rDock/src/rDock_2013.1_src/data/scripts/dock_solv.prm

>  <Rbt.Receptor>
prm/blind_docking_40.prm

>  <SCORE>
2.54055

>  <SCORE.INTER>
-1.91556

>  <SCORE.INTER.CONST>
1

>  <SCORE.INTER.POLAR>
-0.786198

>  <SCORE.INTER.ROT>
13

>  <SCORE.INTER.SOLV>
10.415

>  <SCORE.INTER.VDW>
-14.3947

>  <SCORE.INTER.norm>
-0.0547303

>  <SCORE.INTRA>
3.36469

>  <SCORE.INTRA.DIHEDRAL>
-9.46779

>  <SCORE.INTRA.DIHEDRAL.0>
23.8882

>  <SCORE.INTRA.POLAR>
0

>  <SCORE.INTRA.POLAR.0>
0

>  <SCORE.INTRA.REPUL>
0

>  <SCORE.INTRA.REPUL.0>
0

>  <SCORE.INTRA.SOLV>
12.742

>  <SCORE.INTRA.SOLV.lig_0>
-97.6888

>  <SCORE.INTRA.VDW>
1.72759

>  <SCORE.INTRA.VDW.0>
-3.9206

>  <SCORE.INTRA.norm>
0.096134

>  <SCORE.RESTR>
1.09142

>  <SCORE.RESTR.CAVITY>
1.09142

>  <SCORE.RESTR.norm>
0.0311836

>  <SCORE.SYSTEM>
0

>  <SCORE.SYSTEM.CONST>
0

>  <SCORE.SYSTEM.DIHEDRAL>
0

>  <SCORE.SYSTEM.SOLV>
0

>  <SCORE.SYSTEM.norm>
0

>  <SCORE.heavy>
35

>  <SCORE.norm>
0.0725873

>  <RMSD>
29.342

$$$$
2f4t_lig
 OpenBabel11021811433D
libRbt.so/2013.1/901 2013/11/27
 35 36  0  0  0  0  0  0  0  0999 V2000
    4.8832   11.9378    9.3614 C   0  0  2  0  0  0  0  0  0  0  0  0
    5.8225   11.9970   10.4846 O   0  0  0  0  0  0  0  0  0  0  0  0
    9.4646   13.1660    8.4783 C   0  0  2  0  0  0  0  0  0  0  0  0
   10.8314   13.6700    8.2768 N   0  0  0  0  0  0  0  0  0  0  0  0
    3.5424   11.4093    9.9552 C   0  0  2  0  0  0  0  0  0  0  0  0
    3.0972   12.2535   11.0390 N   0  0  0  0  0  0  0  0  0  0  0  0
    8.6496   14.2039    9.3339 C   0  0  0  0  0  0  0  0  0  0  0  0
   11.7733   13.4290    9.7511 C   0  0  0  0  0  0  0  0  0  0  0  0
   12.9216   14.0562    8.9920 C   0  0  1  0  0  0  0  0  0  0  0  0
   13.0136   15.5219    9.4223 C   0  0  0  0  0  0  0  0  0  0  0  0
   13.7720   16.4517    8.4604 C   0  0  0  0  0  0  0  0  0  0  0  0
   13.0618   16.4699    7.1780 N   0  0  0  0  0  0  0  0  0  0  0  0
   14.1439   13.4708    9.3576 O   0  0  0  0  0  0  0  0  0  0  0  0
   10.8370    9.6393    8.1549 C   0  0  0  0  0  0  0  0  0  0  0  0
    9.7471    8.6406    7.7969 C   0  0  0  0  0  0  0  0  0  0  0  0
    3.7154    9.9311   10.4423 C   0  0  1  0  0  0  0  0  0  0  0  0
    9.3175    8.7158    6.3832 N   0  0  0  0  0  0  0  0  0  0  0  0
    2.5073    9.4303   10.9809 O   0  0  0  0  0  0  0  0  0  0  0  0
    7.2119   13.7309    9.5902 C   0  0  2  0  0  0  0  0  0  0  0  0
    6.4891   14.6903   10.4192 N   0  0  0  0  0  0  0  0  0  0  0  0
   10.1166   10.7043    5.1031 C   0  0  0  0  0  0  0  0  0  0  0  0
   11.0356    9.7087    4.3245 N   0  0  0  0  0  0  0  0  0  0  0  0
    8.9014   10.0218    5.7980 C   0  0  0  0  0  0  0  0  0  0  0  0
   11.5657   13.0181   10.7140 O   0  0  0  0  0  0  0  0  0  0  0  0
    4.1670    9.0865    9.2462 C   0  0  2  0  0  0  0  0  0  0  0  0
    4.3312    7.7274    9.6171 O   0  0  0  0  0  0  0  0  0  0  0  0
    7.2139   12.3885   10.2779 C   0  0  2  0  0  0  0  0  0  0  0  0
    5.4957    9.6535    8.6681 C   0  0  2  0  0  0  0  0  0  0  0  0
    5.3466   11.0357    8.2821 O   0  0  0  0  0  0  0  0  0  0  0  0
    8.0093   11.3264    9.4037 C   0  0  2  0  0  0  0  0  0  0  0  0
    7.9852   10.0419   10.0954 O   0  0  0  0  0  0  0  0  0  0  0  0
    5.9589    8.8855    7.4880 C   0  0  0  0  0  0  0  0  0  0  0  0
    5.0380    7.9490    7.1707 N   0  0  0  0  0  0  0  0  0  0  0  0
    9.4860   11.8226    9.2240 C   0  0  1  0  0  0  0  0  0  0  0  0
   10.2183   10.8981    8.4846 O   0  0  0  0  0  0  0  0  0  0  0  0
  1  2  1  1  0  0  0
  1  5  1  0  0  0  0
  1 29  1  0  0  0  0
  3  4  1  1  0  0  0
  3  7  1  0  0  0  0
  3 34  1  0  0  0  0
  5  6  1  1  0  0  0
  5 16  1  0  0  0  0
  7 19  1  0  0  0  0
  8  4  1  0  0  0  0
  8 24  2  0  0  0  0
  9  8  1  1  0  0  0
  9 10  1  0  0  0  0
  9 13  1  0  0  0  0
 10 11  1  0  0  0  0
 11 12  1  0  0  0  0
 14 15  1  0  0  0  0
 14 35  1  0  0  0  0
 15 17  1  0  0  0  0
 16 18  1  6  0  0  0
 16 25  1  0  0  0  0
 19 20  1  1  0  0  0
 19 27  1  0  0  0  0
 21 22  1  0  0  0  0
 21 23  1  0  0  0  0
 23 17  1  0  0  0  0
 25 26  1  1  0  0  0
 25 28  1  0  0  0  0
 27  2  1  6  0  0  0
 27 30  1  0  0  0  0
 28 29  1  0  0  0  0
 28 32  1  6  0  0  0
 30 31  1  1  0  0  0
 30 34  1  0  0  0  0
 32 33  2  0  0  0  0
 34 35  1  6  0  0  0
M  END
>  <CHROM.1>
176.81273081,77.13267411,99.52107600,-160.14385002,62.13426084,84.83583911
71.46187144,-52.50472384,39.50332875,93.60449612,55.00454190,4.51719085,179.15073501
8.28009971,11.60622141,8.80862625,2.81827709,-0.37576382,-2.55545573

>  <Name>
2f4t_lig

>  <RI>
0

>  <Rbt.Current_Directory>
/home/itssahil/PROJECTS/Mol_Feturizer/New_Systems/rnas/2f4t

>  <Rbt.Executable>
rbdock ($Id: //depot/dev/client3/rdock/2013.1/src/exe/rbdock.cxx#4 $)

>  <Rbt.Library>
libRbt.so (2013.1, Build901 2013/11/27)

>  <Rbt.Parameter_File>
/export/apps/rDock/src/rDock_2013.1_src/data/scripts/dock_solv.prm

>  <Rbt.Receptor>
prm/blind_docking_40.prm

>  <SCORE>
-1.13285

>  <SCORE.INTER>
-0.404624

>  <SCORE.INTER.CONST>
1

>  <SCORE.INTER.POLAR>
-0.916515

>  <SCORE.INTER.ROT>
13

>  <SCORE.INTER.SOLV>
13.3226

>  <SCORE.INTER.VDW>
-13.9222

>  <SCORE.INTER.norm>
-0.0115607

>  <SCORE.INTRA>
-2.71706

>  <SCORE.INTRA.DIHEDRAL>
-14.5346

>  <SCORE.INTRA.DIHEDRAL.0>
23.8882

>  <SCORE.INTRA.POLAR>
0

>  <SCORE.INTRA.POLAR.0>
0

>  <SCORE.INTRA.REPUL>
0

>  <SCORE.INTRA.REPUL.0>
0

>  <SCORE.INTRA.SOLV>
6.0916

>  <SCORE.INTRA.SOLV.lig_0>
-97.6888

>  <SCORE.INTRA.VDW>
1.50444

>  <SCORE.INTRA.VDW.0>
-3.9206

>  <SCORE.INTRA.norm>
-0.0776302

>  <SCORE.RESTR>
1.98883

>  <SCORE.RESTR.CAVITY>
1.98883

>  <SCORE.RESTR.norm>
0.0568237

>  <SCORE.SYSTEM>
0

>  <SCORE.SYSTEM.CONST>
0

>  <SCORE.SYSTEM.DIHEDRAL>
0

>  <SCORE.SYSTEM.SOLV>
0

>  <SCORE.SYSTEM.norm>
0

>  <SCORE.heavy>
35

>  <SCORE.norm>
-0.0323672

>  <RMSD>
29.366

$$$$
2f4t_lig
 OpenBabel11021811433D
libRbt.so/2013.1/901 2013/11/27
 35 36  0  0  0  0  0  0  0  0999 V2000
   10.6021    8.4680    6.9361 C   0  0  2  0  0  0  0  0  0  0  0  0
    9.9111    9.3768    7.8547 O   0  0  0  0  0  0  0  0  0  0  0  0
    5.9511   11.0928    7.6789 C   0  0  2  0  0  0  0  0  0  0  0  0
    4.4878   11.1840    7.5645 N   0  0  0  0  0  0  0  0  0  0  0  0
   11.9149    8.0455    7.6626 C   0  0  2  0  0  0  0  0  0  0  0  0
   11.6193    7.4563    8.9475 N   0  0  0  0  0  0  0  0  0  0  0  0
    6.5135   10.2447    6.4798 C   0  0  0  0  0  0  0  0  0  0  0  0
    3.7937    9.5602    7.5528 C   0  0  0  0  0  0  0  0  0  0  0  0
    2.4522   10.2505    7.4428 C   0  0  1  0  0  0  0  0  0  0  0  0
    1.9406   10.0403    6.0159 C   0  0  0  0  0  0  0  0  0  0  0  0
    2.6006   10.9146    4.9364 C   0  0  0  0  0  0  0  0  0  0  0  0
    3.8954   10.3217    4.5886 N   0  0  0  0  0  0  0  0  0  0  0  0
    1.5057    9.6447    8.2837 O   0  0  0  0  0  0  0  0  0  0  0  0
    5.6277   12.2787   10.9229 C   0  0  0  0  0  0  0  0  0  0  0  0
    6.9361   13.0420   11.0600 C   0  0  0  0  0  0  0  0  0  0  0  0
   12.8607    9.2827    7.8272 C   0  0  1  0  0  0  0  0  0  0  0  0
    7.6869   13.1608    9.7908 N   0  0  0  0  0  0  0  0  0  0  0  0
   14.0612    8.9194    8.4807 O   0  0  0  0  0  0  0  0  0  0  0  0
    8.0405   10.1019    6.5463 C   0  0  2  0  0  0  0  0  0  0  0  0
    8.5338    9.2780    5.4472 N   0  0  0  0  0  0  0  0  0  0  0  0
    9.7173   12.9686    8.3513 C   0  0  0  0  0  0  0  0  0  0  0  0
    9.4972   14.2194    7.4409 N   0  0  0  0  0  0  0  0  0  0  0  0
    9.1773   13.1467    9.8011 C   0  0  0  0  0  0  0  0  0  0  0  0
    4.1961    8.5730    7.6037 O   0  0  0  0  0  0  0  0  0  0  0  0
   13.1518    9.8471    6.4327 C   0  0  2  0  0  0  0  0  0  0  0  0
   14.0176   10.9680    6.5089 O   0  0  0  0  0  0  0  0  0  0  0  0
    8.4544    9.4768    7.8550 C   0  0  2  0  0  0  0  0  0  0  0  0
   11.8198   10.2395    5.7307 C   0  0  2  0  0  0  0  0  0  0  0  0
   10.9269    9.1097    5.6414 O   0  0  0  0  0  0  0  0  0  0  0  0
    7.9160   10.3457    9.0716 C   0  0  2  0  0  0  0  0  0  0  0  0
    8.3395    9.7156   10.3177 O   0  0  0  0  0  0  0  0  0  0  0  0
   12.0477   10.7649    4.3636 C   0  0  0  0  0  0  0  0  0  0  0  0
   12.6095    9.8026    3.5994 N   0  0  0  0  0  0  0  0  0  0  0  0
    6.3509   10.4086    8.9955 C   0  0  1  0  0  0  0  0  0  0  0  0
    5.8455   11.1410   10.0660 O   0  0  0  0  0  0  0  0  0  0  0  0
  1  2  1  1  0  0  0
  1  5  1  0  0  0  0
  1 29  1  0  0  0  0
  3  4  1  6  0  0  0
  3  7  1  0  0  0  0
  3 34  1  0  0  0  0
  5  6  1  1  0  0  0
  5 16  1  0  0  0  0
  7 19  1  0  0  0  0
  8  4  1  0  0  0  0
  8 24  2  0  0  0  0
  9  8  1  6  0  0  0
  9 10  1  0  0  0  0
  9 13  1  0  0  0  0
 10 11  1  0  0  0  0
 11 12  1  0  0  0  0
 14 15  1  0  0  0  0
 14 35  1  0  0  0  0
 15 17  1  0  0  0  0
 16 18  1  6  0  0  0
 16 25  1  0  0  0  0
 19 20  1  6  0  0  0
 19 27  1  0  0  0  0
 21 22  1  0  0  0  0
 21 23  1  0  0  0  0
 23 17  1  0  0  0  0
 25 26  1  1  0  0  0
 25 28  1  0  0  0  0
 27  2  1  6  0  0  0
 27 30  1  0  0  0  0
 28 29  1  0  0  0  0
 28 32  1  6  0  0  0
 30 31  1  1  0  0  0
 30 34  1  0  0  0  0
 32 33  2  0  0  0  0
 34 35  1  1  0  0  0
M  END
>  <CHROM.1>
-150.48678390,58.05275182,107.44977632,-76.50097304,79.55138851,41.42103115
-38.83328932,-145.75999988,70.32851103,167.56944514,-67.55224411,62.41957117
-57.83254276,8.14697836,10.37619428,7.56312306,0.12048834,0.03488261,-2.06395496

>  <Name>
2f4t_lig

>  <RI>
0

>  <Rbt.Current_Directory>
/home/itssahil/PROJECTS/Mol_Feturizer/New_Systems/rnas/2f4t

>  <Rbt.Executable>
rbdock ($Id: //depot/dev/client3/rdock/2013.1/src/exe/rbdock.cxx#4 $)

>  <Rbt.Library>
libRbt.so (2013.1, Build901 2013/11/27)

>  <Rbt.Parameter_File>
/export/apps/rDock/src/rDock_2013.1_src/data/scripts/dock_solv.prm

>  <Rbt.Receptor>
prm/blind_docking_20.prm

>  <SCORE>
13.0708

>  <SCORE.INTER>
6.99515

>  <SCORE.INTER.CONST>
1

>  <SCORE.INTER.POLAR>
-0.614042

>  <SCORE.INTER.ROT>
13

>  <SCORE.INTER.SOLV>
20.3945

>  <SCORE.INTER.VDW>
-12.3546

>  <SCORE.INTER.norm>
0.199862

>  <SCORE.INTRA>
0.139181

>  <SCORE.INTRA.DIHEDRAL>
-9.23762

>  <SCORE.INTRA.DIHEDRAL.0>
23.8882

>  <SCORE.INTRA.POLAR>
0

>  <SCORE.INTRA.POLAR.0>
0

>  <SCORE.INTRA.REPUL>
0

>  <SCORE.INTRA.REPUL.0>
0

>  <SCORE.INTRA.SOLV>
10.6374

>  <SCORE.INTRA.SOLV.lig_0>
-97.6888

>  <SCORE.INTRA.VDW>
-0.560686

>  <SCORE.INTRA.VDW.0>
-3.9206

>  <SCORE.INTRA.norm>
0.00397659

>  <SCORE.RESTR>
5.93648

>  <SCORE.RESTR.CAVITY>
5.93648

>  <SCORE.RESTR.norm>
0.169614

>  <SCORE.SYSTEM>
0

>  <SCORE.SYSTEM.CONST>
0

>  <SCORE.SYSTEM.DIHEDRAL>
0

>  <SCORE.SYSTEM.SOLV>
0

>  <SCORE.SYSTEM.norm>
0

>  <SCORE.heavy>
35

>  <SCORE.norm>
0.373452

>  <RMSD>
29.381

$$$$
2f4t_lig
 OpenBabel11021811433D
libRbt.so/2013.1/901 2013/11/27
 35 36  0  0  0  0  0  0  0  0999 V2000
    4.9155   12.0414    9.3886 C   0  0  2  0  0  0  0  0  0  0  0  0
    5.7204   11.9731   10.6112 O   0  0  0  0  0  0  0  0  0  0  0  0
    9.7388   12.5000    9.1172 C   0  0  2  0  0  0  0  0  0  0  0  0
   11.1510   12.9066    9.0620 N   0  0  0  0  0  0  0  0  0  0  0  0
    3.6908   11.1087    9.6326 C   0  0  2  0  0  0  0  0  0  0  0  0
    2.9744   11.5084   10.8211 N   0  0  0  0  0  0  0  0  0  0  0  0
    8.8556   13.7426    9.5039 C   0  0  0  0  0  0  0  0  0  0  0  0
   11.6088   13.2260    7.3865 C   0  0  0  0  0  0  0  0  0  0  0  0
   12.9770   13.5624    7.9371 C   0  0  1  0  0  0  0  0  0  0  0  0
   12.8475   14.8636    8.7322 C   0  0  0  0  0  0  0  0  0  0  0  0
   14.1445   15.3830    9.3748 C   0  0  0  0  0  0  0  0  0  0  0  0
   15.1592   15.5176    8.3253 N   0  0  0  0  0  0  0  0  0  0  0  0
   13.4006   12.5904    8.8569 O   0  0  0  0  0  0  0  0  0  0  0  0
   11.3875    9.5560    9.2321 C   0  0  0  0  0  0  0  0  0  0  0  0
   11.1475    9.5163    7.7306 C   0  0  0  0  0  0  0  0  0  0  0  0
    4.1628    9.6199    9.7472 C   0  0  1  0  0  0  0  0  0  0  0  0
   12.2434    8.8724    6.9736 N   0  0  0  0  0  0  0  0  0  0  0  0
    3.0647    8.7554    9.9643 O   0  0  0  0  0  0  0  0  0  0  0  0
    7.3660   13.3818    9.5892 C   0  0  2  0  0  0  0  0  0  0  0  0
    6.5728   14.5399    9.9888 N   0  0  0  0  0  0  0  0  0  0  0  0
   12.0625   10.4124    5.0173 C   0  0  0  0  0  0  0  0  0  0  0  0
   11.1036    9.4675    4.2239 N   0  0  0  0  0  0  0  0  0  0  0  0
   13.0276    9.6597    5.9804 C   0  0  0  0  0  0  0  0  0  0  0  0
   11.0998   13.1824    6.4494 O   0  0  0  0  0  0  0  0  0  0  0  0
    4.8946    9.2524    8.4522 C   0  0  2  0  0  0  0  0  0  0  0  0
    5.3398    7.9061    8.4847 O   0  0  0  0  0  0  0  0  0  0  0  0
    7.1499   12.2693   10.5846 C   0  0  2  0  0  0  0  0  0  0  0  0
    6.0973   10.2145    8.2312 C   0  0  2  0  0  0  0  0  0  0  0  0
    5.6625   11.5897    8.1922 O   0  0  0  0  0  0  0  0  0  0  0  0
    8.0155   10.9988   10.1827 C   0  0  2  0  0  0  0  0  0  0  0  0
    7.7770    9.9438   11.1620 O   0  0  0  0  0  0  0  0  0  0  0  0
    6.8212    9.9168    6.9726 C   0  0  0  0  0  0  0  0  0  0  0  0
    8.1527    9.9808    7.1932 N   0  0  0  0  0  0  0  0  0  0  0  0
    9.5311   11.4016   10.1715 C   0  0  1  0  0  0  0  0  0  0  0  0
   10.3197   10.3006    9.8497 O   0  0  0  0  0  0  0  0  0  0  0  0
  1  2  1  1  0  0  0
  1  5  1  0  0  0  0
  1 29  1  0  0  0  0
  3  4  1  1  0  0  0
  3  7  1  0  0  0  0
  3 34  1  0  0  0  0
  5  6  1  1  0  0  0
  5 16  1  0  0  0  0
  7 19  1  0  0  0  0
  8  4  1  0  0  0  0
  8 24  2  0  0  0  0
  9  8  1  1  0  0  0
  9 10  1  0  0  0  0
  9 13  1  0  0  0  0
 10 11  1  0  0  0  0
 11 12  1  0  0  0  0
 14 15  1  0  0  0  0
 14 35  1  0  0  0  0
 15 17  1  0  0  0  0
 16 18  1  6  0  0  0
 16 25  1  0  0  0  0
 19 20  1  1  0  0  0
 19 27  1  0  0  0  0
 21 22  1  0  0  0  0
 21 23  1  0  0  0  0
 23 17  1  0  0  0  0
 25 26  1  1  0  0  0
 25 28  1  0  0  0  0
 27  2  1  6  0  0  0
 27 30  1  0  0  0  0
 28 29  1  0  0  0  0
 28 32  1  6  0  0  0
 30 31  1  1  0  0  0
 30 34  1  0  0  0  0
 32 33  2  0  0  0  0
 34 35  1  6  0  0  0
M  END
>  <CHROM.1>
155.84769203,-98.11576667,-69.06978806,-179.76739570,55.12511227,175.15428773
-67.18119042,-117.05705413,-59.16322218,-49.91024365,36.08658914,-137.36023752
19.97784603,8.85977978,11.44944131,8.67076098,3.01997011,-0.32730657,-2.59278768

>  <Name>
2f4t_lig

>  <RI>
0

>  <Rbt.Current_Directory>
/home/itssahil/PROJECTS/Mol_Feturizer/New_Systems/rnas/2f4t

>  <Rbt.Executable>
rbdock ($Id: //depot/dev/client3/rdock/2013.1/src/exe/rbdock.cxx#4 $)

>  <Rbt.Library>
libRbt.so (2013.1, Build901 2013/11/27)

>  <Rbt.Parameter_File>
/export/apps/rDock/src/rDock_2013.1_src/data/scripts/dock_solv.prm

>  <Rbt.Receptor>
prm/blind_docking_80.prm

>  <SCORE>
4.64698

>  <SCORE.INTER>
0.927996

>  <SCORE.INTER.CONST>
1

>  <SCORE.INTER.POLAR>
-0.801134

>  <SCORE.INTER.ROT>
13

>  <SCORE.INTER.SOLV>
12.1689

>  <SCORE.INTER.VDW>
-13.0338

>  <SCORE.INTER.norm>
0.0265142

>  <SCORE.INTRA>
1.86579

>  <SCORE.INTRA.DIHEDRAL>
-8.99991

>  <SCORE.INTRA.DIHEDRAL.0>
23.8882

>  <SCORE.INTRA.POLAR>
0

>  <SCORE.INTRA.POLAR.0>
0

>  <SCORE.INTRA.REPUL>
0

>  <SCORE.INTRA.REPUL.0>
0

>  <SCORE.INTRA.SOLV>
5.47292

>  <SCORE.INTRA.SOLV.lig_0>
-97.6888

>  <SCORE.INTRA.VDW>
3.62928

>  <SCORE.INTRA.VDW.0>
-3.9206

>  <SCORE.INTRA.norm>
0.0533082

>  <SCORE.RESTR>
1.8532

>  <SCORE.RESTR.CAVITY>
1.8532

>  <SCORE.RESTR.norm>
0.0529486

>  <SCORE.SYSTEM>
0

>  <SCORE.SYSTEM.CONST>
0

>  <SCORE.SYSTEM.DIHEDRAL>
0

>  <SCORE.SYSTEM.SOLV>
0

>  <SCORE.SYSTEM.norm>
0

>  <SCORE.heavy>
35

>  <SCORE.norm>
0.132771

>  <RMSD>
29.393

$$$$
2f4t_lig
 OpenBabel11021811433D
libRbt.so/2013.1/901 2013/11/27
 35 36  0  0  0  0  0  0  0  0999 V2000
   12.1738   10.6261    7.4154 C   0  0  2  0  0  0  0  0  0  0  0  0
   11.1613   11.1235    8.3507 O   0  0  0  0  0  0  0  0  0  0  0  0
    6.8774   11.5544    8.6976 C   0  0  2  0  0  0  0  0  0  0  0  0
    5.4626   11.6583    8.3102 N   0  0  0  0  0  0  0  0  0  0  0  0
   12.0331   11.4993    6.1319 C   0  0  2  0  0  0  0  0  0  0  0  0
   12.1769   12.9005    6.4505 N   0  0  0  0  0  0  0  0  0  0  0  0
    7.7227   12.5788    7.8553 C   0  0  0  0  0  0  0  0  0  0  0  0
    5.1598   10.6393    6.9000 C   0  0  0  0  0  0  0  0  0  0  0  0
    3.7272   11.1153    6.9975 C   0  0  1  0  0  0  0  0  0  0  0  0
    2.9449   10.4613    5.8563 C   0  0  0  0  0  0  0  0  0  0  0  0
    3.2963   10.9517    4.4417 C   0  0  0  0  0  0  0  0  0  0  0  0
    2.4559   10.2317    3.4802 N   0  0  0  0  0  0  0  0  0  0  0  0
    3.1278   10.6627    8.1833 O   0  0  0  0  0  0  0  0  0  0  0  0
    6.1106    8.5607   10.3149 C   0  0  0  0  0  0  0  0  0  0  0  0
    4.5935    8.5752   10.2074 C   0  0  0  0  0  0  0  0  0  0  0  0
   10.6519   11.2282    5.4456 C   0  0  1  0  0  0  0  0  0  0  0  0
    4.0073    7.2443    9.9361 N   0  0  0  0  0  0  0  0  0  0  0  0
   10.5060   12.0082    4.2748 O   0  0  0  0  0  0  0  0  0  0  0  0
    9.2159   12.5132    8.2052 C   0  0  2  0  0  0  0  0  0  0  0  0
    9.9838   13.4429    7.3829 N   0  0  0  0  0  0  0  0  0  0  0  0
    3.0012    7.4141    7.6578 C   0  0  0  0  0  0  0  0  0  0  0  0
    1.7358    7.2496    6.7559 N   0  0  0  0  0  0  0  0  0  0  0  0
    2.7361    7.1314    9.1661 C   0  0  0  0  0  0  0  0  0  0  0  0
    5.7622    9.9983    6.2956 O   0  0  0  0  0  0  0  0  0  0  0  0
   10.5704    9.7342    5.1155 C   0  0  2  0  0  0  0  0  0  0  0  0
    9.3430    9.4211    4.4774 O   0  0  0  0  0  0  0  0  0  0  0  0
    9.7451   11.1165    7.9950 C   0  0  2  0  0  0  0  0  0  0  0  0
   10.7338    8.8942    6.4151 C   0  0  2  0  0  0  0  0  0  0  0  0
   11.9795    9.1975    7.0768 O   0  0  0  0  0  0  0  0  0  0  0  0
    8.9156   10.0794    8.8675 C   0  0  2  0  0  0  0  0  0  0  0  0
    9.4581    8.7434    8.6439 O   0  0  0  0  0  0  0  0  0  0  0  0
   10.6911    7.4379    6.1426 C   0  0  0  0  0  0  0  0  0  0  0  0
    9.4060    7.0422    6.0106 N   0  0  0  0  0  0  0  0  0  0  0  0
    7.4109   10.1385    8.4295 C   0  0  1  0  0  0  0  0  0  0  0  0
    6.6608    9.2192    9.1574 O   0  0  0  0  0  0  0  0  0  0  0  0
  1  2  1  1  0  0  0
  1  5  1  0  0  0  0
  1 29  1  0  0  0  0
  3  4  1  6  0  0  0
  3  7  1  0  0  0  0
  3 34  1  0  0  0  0
  5  6  1  1  0  0  0
  5 16  1  0  0  0  0
  7 19  1  0  0  0  0
  8  4  1  0  0  0  0
  8 24  2  0  0  0  0
  9  8  1  1  0  0  0
  9 10  1  0  0  0  0
  9 13  1  0  0  0  0
 10 11  1  0  0  0  0
 11 12  1  0  0  0  0
 14 15  1  0  0  0  0
 14 35  1  0  0  0  0
 15 17  1  0  0  0  0
 16 18  1  6  0  0  0
 16 25  1  0  0  0  0
 19 20  1  6  0  0  0
 19 27  1  0  0  0  0
 21 22  1  0  0  0  0
 21 23  1  0  0  0  0
 23 17  1  0  0  0  0
 25 26  1  1  0  0  0
 25 28  1  0  0  0  0
 27  2  1  1  0  0  0
 27 30  1  0  0  0  0
 28 29  1  0  0  0  0
 28 32  1  6  0  0  0
 30 31  1  6  0  0  0
 30 34  1  0  0  0  0
 32 33  2  0  0  0  0
 34 35  1  1  0  0  0
M  END
>  <CHROM.1>
58.97627773,85.48050038,179.37360532,-69.14699900,-179.72032131,109.32002243
123.95613477,-149.89085795,177.14799629,74.01194690,-126.85024424,-80.25836489
-63.37118761,7.46796231,10.05489925,7.22758642,-0.22463857,0.11246021,2.21379199

>  <Name>
2f4t_lig

>  <RI>
0

>  <Rbt.Current_Directory>
/home/itssahil/PROJECTS/Mol_Feturizer/New_Systems/rnas/2f4t

>  <Rbt.Executable>
rbdock ($Id: //depot/dev/client3/rdock/2013.1/src/exe/rbdock.cxx#4 $)

>  <Rbt.Library>
libRbt.so (2013.1, Build901 2013/11/27)

>  <Rbt.Parameter_File>
/export/apps/rDock/src/rDock_2013.1_src/data/scripts/dock_solv.prm

>  <Rbt.Receptor>
prm/blind_docking_20.prm

>  <SCORE>
14.3873

>  <SCORE.INTER>
1.54353

>  <SCORE.INTER.CONST>
1

>  <SCORE.INTER.POLAR>
0

>  <SCORE.INTER.ROT>
13

>  <SCORE.INTER.SOLV>
11.6995

>  <SCORE.INTER.VDW>
-15.1375

>  <SCORE.INTER.norm>
0.0441009

>  <SCORE.INTRA>
7.85601

>  <SCORE.INTRA.DIHEDRAL>
-0.751662

>  <SCORE.INTRA.DIHEDRAL.0>
23.8882

>  <SCORE.INTRA.POLAR>
0

>  <SCORE.INTRA.POLAR.0>
0

>  <SCORE.INTRA.REPUL>
0.0247237

>  <SCORE.INTRA.REPUL.0>
0

>  <SCORE.INTRA.SOLV>
9.48658

>  <SCORE.INTRA.SOLV.lig_0>
-97.6888

>  <SCORE.INTRA.VDW>
3.36493

>  <SCORE.INTRA.VDW.0>
-3.9206

>  <SCORE.INTRA.norm>
0.224457

>  <SCORE.RESTR>
4.98779

>  <SCORE.RESTR.CAVITY>
4.98779

>  <SCORE.RESTR.norm>
0.142508

>  <SCORE.SYSTEM>
0

>  <SCORE.SYSTEM.CONST>
0

>  <SCORE.SYSTEM.DIHEDRAL>
0

>  <SCORE.SYSTEM.SOLV>
0

>  <SCORE.SYSTEM.norm>
0

>  <SCORE.heavy>
35

>  <SCORE.norm>
0.411067

>  <RMSD>
29.401

$$$$
2f4t_lig
 OpenBabel11021811433D
libRbt.so/2013.1/901 2013/11/27
 35 36  0  0  0  0  0  0  0  0999 V2000
   12.3388   12.3430    8.8147 C   0  0  2  0  0  0  0  0  0  0  0  0
   11.7551   12.5610   10.1410 O   0  0  0  0  0  0  0  0  0  0  0  0
    8.0007   10.4579    9.7689 C   0  0  2  0  0  0  0  0  0  0  0  0
    6.7531    9.7784   10.1492 N   0  0  0  0  0  0  0  0  0  0  0  0
   13.6800   13.1371    8.8042 C   0  0  2  0  0  0  0  0  0  0  0  0
   14.5325   12.7120    9.8895 N   0  0  0  0  0  0  0  0  0  0  0  0
    9.1995    9.8272   10.5681 C   0  0  0  0  0  0  0  0  0  0  0  0
    5.8261    9.3893    8.6973 C   0  0  0  0  0  0  0  0  0  0  0  0
    4.8098    8.7820    9.6388 C   0  0  1  0  0  0  0  0  0  0  0  0
    3.7068    8.1534    8.7844 C   0  0  0  0  0  0  0  0  0  0  0  0
    2.6378    7.3608    9.5552 C   0  0  0  0  0  0  0  0  0  0  0  0
    1.9005    6.5284    8.5999 N   0  0  0  0  0  0  0  0  0  0  0  0
    5.3742    7.7279   10.3742 O   0  0  0  0  0  0  0  0  0  0  0  0
    6.0930   12.9985    8.2827 C   0  0  0  0  0  0  0  0  0  0  0  0
    4.6264   13.0603    8.6810 C   0  0  0  0  0  0  0  0  0  0  0  0
   13.3957   14.6744    8.8953 C   0  0  1  0  0  0  0  0  0  0  0  0
    3.6985   12.7607    7.5684 N   0  0  0  0  0  0  0  0  0  0  0  0
   14.6010   15.4143    8.8824 O   0  0  0  0  0  0  0  0  0  0  0  0
   10.5348   10.5017   10.2237 C   0  0  2  0  0  0  0  0  0  0  0  0
   11.6243    9.9274   11.0068 N   0  0  0  0  0  0  0  0  0  0  0  0
    3.0578   11.0915    5.8263 C   0  0  0  0  0  0  0  0  0  0  0  0
    2.3693    9.7262    5.5036 N   0  0  0  0  0  0  0  0  0  0  0  0
    3.2197   11.3661    7.3507 C   0  0  0  0  0  0  0  0  0  0  0  0
    5.9731    9.5419    7.6512 O   0  0  0  0  0  0  0  0  0  0  0  0
   12.5073   15.0644    7.7094 C   0  0  2  0  0  0  0  0  0  0  0  0
   12.2207   16.4535    7.7247 O   0  0  0  0  0  0  0  0  0  0  0  0
   10.4613   11.9837   10.4943 C   0  0  2  0  0  0  0  0  0  0  0  0
   11.1883   14.2397    7.7411 C   0  0  2  0  0  0  0  0  0  0  0  0
   11.4605   12.8230    7.7231 O   0  0  0  0  0  0  0  0  0  0  0  0
    9.2714   12.6335    9.6656 C   0  0  2  0  0  0  0  0  0  0  0  0
    9.2347   14.0648    9.9470 O   0  0  0  0  0  0  0  0  0  0  0  0
   10.3059   14.5613    6.5944 C   0  0  0  0  0  0  0  0  0  0  0  0
    9.1849   15.1663    7.0449 N   0  0  0  0  0  0  0  0  0  0  0  0
    7.9244   11.9569   10.0982 C   0  0  1  0  0  0  0  0  0  0  0  0
    6.8567   12.5251    9.4090 O   0  0  0  0  0  0  0  0  0  0  0  0
  1  2  1  1  0  0  0
  1  5  1  0  0  0  0
  1 29  1  0  0  0  0
  3  4  1  1  0  0  0
  3  7  1  0  0  0  0
  3 34  1  0  0  0  0
  5  6  1  1  0  0  0
  5 16  1  0  0  0  0
  7 19  1  0  0  0  0
  8  4  1  0  0  0  0
  8 24  2  0  0  0  0
  9  8  1  6  0  0  0
  9 10  1  0  0  0  0
  9 13  1  0  0  0  0
 10 11  1  0  0  0  0
 11 12  1  0  0  0  0
 14 15  1  0  0  0  0
 14 35  1  0  0  0  0
 15 17  1  0  0  0  0
 16 18  1  6  0  0  0
 16 25  1  0  0  0  0
 19 20  1  1  0  0  0
 19 27  1  0  0  0  0
 21 22  1  0  0  0  0
 21 23  1  0  0  0  0
 23 17  1  0  0  0  0
 25 26  1  1  0  0  0
 25 28  1  0  0  0  0
 27  2  1  6  0  0  0
 27 30  1  0  0  0  0
 28 29  1  0  0  0  0
 28 32  1  6  0  0  0
 30 31  1  1  0  0  0
 30 34  1  0  0  0  0
 32 33  2  0  0  0  0
 34 35  1  6  0  0  0
M  END
>  <CHROM.1>
178.43804342,-134.10315028,-176.42673304,174.36995769,-164.17042696,-146.71499924
158.81532685,92.41078673,-171.83194063,-144.95934945,53.83219813,-113.47203097
-68.86936686,8.29903110,11.77051652,8.79504778,-0.38596815,0.31577091,2.59068372

>  <Name>
2f4t_lig

>  <RI>
0

>  <Rbt.Current_Directory>
/home/itssahil/PROJECTS/Mol_Feturizer/New_Systems/rnas/2f4t

>  <Rbt.Executable>
rbdock ($Id: //depot/dev/client3/rdock/2013.1/src/exe/rbdock.cxx#4 $)

>  <Rbt.Library>
libRbt.so (2013.1, Build901 2013/11/27)

>  <Rbt.Parameter_File>
/export/apps/rDock/src/rDock_2013.1_src/data/scripts/dock_solv.prm

>  <Rbt.Receptor>
prm/blind_docking_40.prm

>  <SCORE>
-1.17315

>  <SCORE.INTER>
4.27037

>  <SCORE.INTER.CONST>
1

>  <SCORE.INTER.POLAR>
0

>  <SCORE.INTER.ROT>
13

>  <SCORE.INTER.SOLV>
14.1722

>  <SCORE.INTER.VDW>
-14.1438

>  <SCORE.INTER.norm>
0.12201

>  <SCORE.INTRA>
-6.54666

>  <SCORE.INTRA.DIHEDRAL>
-12.719

>  <SCORE.INTRA.DIHEDRAL.0>
23.8882

>  <SCORE.INTRA.POLAR>
0

>  <SCORE.INTRA.POLAR.0>
0

>  <SCORE.INTRA.REPUL>
0

>  <SCORE.INTRA.REPUL.0>
0

>  <SCORE.INTRA.SOLV>
2.15867

>  <SCORE.INTRA.SOLV.lig_0>
-97.6888

>  <SCORE.INTRA.VDW>
-1.2665

>  <SCORE.INTRA.VDW.0>
-3.9206

>  <SCORE.INTRA.norm>
-0.187047

>  <SCORE.RESTR>
1.10314

>  <SCORE.RESTR.CAVITY>
1.10314

>  <SCORE.RESTR.norm>
0.0315183

>  <SCORE.SYSTEM>
0

>  <SCORE.SYSTEM.CONST>
0

>  <SCORE.SYSTEM.DIHEDRAL>
0

>  <SCORE.SYSTEM.SOLV>
0

>  <SCORE.SYSTEM.norm>
0

>  <SCORE.heavy>
35

>  <SCORE.norm>
-0.0335185

>  <RMSD>
29.420

$$$$
2f4t_lig
 OpenBabel11021811433D
libRbt.so/2013.1/901 2013/11/27
 35 36  0  0  0  0  0  0  0  0999 V2000
   12.1989   11.2717    6.1172 C   0  0  2  0  0  0  0  0  0  0  0  0
   10.7614   11.3581    5.8466 O   0  0  0  0  0  0  0  0  0  0  0  0
    6.9867   10.2198    7.6110 C   0  0  2  0  0  0  0  0  0  0  0  0
    6.0019    9.4688    8.4039 N   0  0  0  0  0  0  0  0  0  0  0  0
   12.6450    9.8689    5.6047 C   0  0  2  0  0  0  0  0  0  0  0  0
   12.3069    9.7046    4.2103 N   0  0  0  0  0  0  0  0  0  0  0  0
    7.7718    9.2241    6.6805 C   0  0  0  0  0  0  0  0  0  0  0  0
    4.3703    9.9299    7.9100 C   0  0  0  0  0  0  0  0  0  0  0  0
    3.8916    8.9370    8.9459 C   0  0  1  0  0  0  0  0  0  0  0  0
    2.6327    9.5171    9.5944 C   0  0  0  0  0  0  0  0  0  0  0  0
    2.8693   10.4214   10.8156 C   0  0  0  0  0  0  0  0  0  0  0  0
    3.9402   11.3680   10.4900 N   0  0  0  0  0  0  0  0  0  0  0  0
    3.4935    7.7342    8.3418 O   0  0  0  0  0  0  0  0  0  0  0  0
    7.0699   12.6461   10.5153 C   0  0  0  0  0  0  0  0  0  0  0  0
    7.9861   13.8572   10.4300 C   0  0  0  0  0  0  0  0  0  0  0  0
   11.9819    8.7443    6.4695 C   0  0  1  0  0  0  0  0  0  0  0  0
    7.9686   14.5197    9.1073 N   0  0  0  0  0  0  0  0  0  0  0  0
   12.3779    7.4620    6.0233 O   0  0  0  0  0  0  0  0  0  0  0  0
    8.8268    9.9461    5.8307 C   0  0  2  0  0  0  0  0  0  0  0  0
    9.5688    8.9970    5.0067 N   0  0  0  0  0  0  0  0  0  0  0  0
    9.6109   15.0904    7.3161 C   0  0  0  0  0  0  0  0  0  0  0  0
   11.0956   15.5204    7.0870 N   0  0  0  0  0  0  0  0  0  0  0  0
    9.0636   15.4567    8.7273 C   0  0  0  0  0  0  0  0  0  0  0  0
    3.9689   10.6116    7.1936 O   0  0  0  0  0  0  0  0  0  0  0  0
   12.3944    8.9619    7.9290 C   0  0  2  0  0  0  0  0  0  0  0  0
   11.8352    7.9651    8.7690 O   0  0  0  0  0  0  0  0  0  0  0  0
    9.7942   10.6927    6.7148 C   0  0  2  0  0  0  0  0  0  0  0  0
   11.9510   10.3770    8.4002 C   0  0  2  0  0  0  0  0  0  0  0  0
   12.5133   11.4050    7.5584 O   0  0  0  0  0  0  0  0  0  0  0  0
    9.0108   11.7234    7.6361 C   0  0  2  0  0  0  0  0  0  0  0  0
    9.9768   12.4298    8.4709 O   0  0  0  0  0  0  0  0  0  0  0  0
   12.3545   10.6464    9.8007 C   0  0  0  0  0  0  0  0  0  0  0  0
   12.5285   11.9755    9.9712 N   0  0  0  0  0  0  0  0  0  0  0  0
    7.9924   10.9324    8.5285 C   0  0  1  0  0  0  0  0  0  0  0  0
    7.3086   11.8062    9.3692 O   0  0  0  0  0  0  0  0  0  0  0  0
  1  2  1  1  0  0  0
  1  5  1  0  0  0  0
  1 29  1  0  0  0  0
  3  4  1  1  0  0  0
  3  7  1  0  0  0  0
  3 34  1  0  0  0  0
  5  6  1  6  0  0  0
  5 16  1  0  0  0  0
  7 19  1  0  0  0  0
  8  4  1  0  0  0  0
  8 24  2  0  0  0  0
  9  8  1  6  0  0  0
  9 10  1  0  0  0  0
  9 13  1  0  0  0  0
 10 11  1  0  0  0  0
 11 12  1  0  0  0  0
 14 15  1  0  0  0  0
 14 35  1  0  0  0  0
 15 17  1  0  0  0  0
 16 18  1  6  0  0  0
 16 25  1  0  0  0  0
 19 20  1  1  0  0  0
 19 27  1  0  0  0  0
 21 22  1  0  0  0  0
 21 23  1  0  0  0  0
 23 17  1  0  0  0  0
 25 26  1  1  0  0  0
 25 28  1  0  0  0  0
 27  2  1  6  0  0  0
 27 30  1  0  0  0  0
 28 29  1  0  0  0  0
 28 32  1  1  0  0  0
 30 31  1  1  0  0  0
 30 34  1  0  0  0  0
 32 33  2  0  0  0  0
 34 35  1  1  0  0  0
M  END
>  <CHROM.1>
78.45881406,-113.21480320,143.22788941,-88.57501208,46.67164117,48.46558347
69.03442110,-162.63813961,-153.64964059,130.62750651,-132.55327434,151.91383476
159.69809746,8.76879281,10.87516104,7.93054066,0.07804971,-0.27221996,-2.76218871

>  <Name>
2f4t_lig

>  <RI>
0

>  <Rbt.Current_Directory>
/home/itssahil/PROJECTS/Mol_Feturizer/New_Systems/rnas/2f4t

>  <Rbt.Executable>
rbdock ($Id: //depot/dev/client3/rdock/2013.1/src/exe/rbdock.cxx#4 $)

>  <Rbt.Library>
libRbt.so (2013.1, Build901 2013/11/27)

>  <Rbt.Parameter_File>
/export/apps/rDock/src/rDock_2013.1_src/data/scripts/dock_solv.prm

>  <Rbt.Receptor>
prm/blind_docking_80.prm

>  <SCORE>
8.49399

>  <SCORE.INTER>
0.824315

>  <SCORE.INTER.CONST>
1

>  <SCORE.INTER.POLAR>
-1.71368

>  <SCORE.INTER.ROT>
13

>  <SCORE.INTER.SOLV>
17.9064

>  <SCORE.INTER.VDW>
-11.9737

>  <SCORE.INTER.norm>
0.0235519

>  <SCORE.INTRA>
5.57435

>  <SCORE.INTRA.DIHEDRAL>
-2.14919

>  <SCORE.INTRA.DIHEDRAL.0>
23.8882

>  <SCORE.INTRA.POLAR>
0

>  <SCORE.INTRA.POLAR.0>
0

>  <SCORE.INTRA.REPUL>
0.183897

>  <SCORE.INTRA.REPUL.0>
0

>  <SCORE.INTRA.SOLV>
12.6237

>  <SCORE.INTRA.SOLV.lig_0>
-97.6888

>  <SCORE.INTRA.VDW>
-0.582411

>  <SCORE.INTRA.VDW.0>
-3.9206

>  <SCORE.INTRA.norm>
0.159267

>  <SCORE.RESTR>
2.09533

>  <SCORE.RESTR.CAVITY>
2.09533

>  <SCORE.RESTR.norm>
0.0598666

>  <SCORE.SYSTEM>
0

>  <SCORE.SYSTEM.CONST>
0

>  <SCORE.SYSTEM.DIHEDRAL>
0

>  <SCORE.SYSTEM.SOLV>
0

>  <SCORE.SYSTEM.norm>
0

>  <SCORE.heavy>
35

>  <SCORE.norm>
0.242686

>  <RMSD>
29.421

$$$$
2f4t_lig
 OpenBabel11021811433D
libRbt.so/2013.1/901 2013/11/27
 35 36  0  0  0  0  0  0  0  0999 V2000
   11.6378   11.0007    7.5218 C   0  0  2  0  0  0  0  0  0  0  0  0
   11.0171   10.4986    8.7506 O   0  0  0  0  0  0  0  0  0  0  0  0
    6.8831   10.1030    7.5631 C   0  0  2  0  0  0  0  0  0  0  0  0
    5.4973    9.6125    7.5224 N   0  0  0  0  0  0  0  0  0  0  0  0
   13.1712   10.7863    7.7011 C   0  0  2  0  0  0  0  0  0  0  0  0
   13.4635    9.3984    7.9726 N   0  0  0  0  0  0  0  0  0  0  0  0
    7.8690    8.8819    7.4611 C   0  0  0  0  0  0  0  0  0  0  0  0
    5.0326    9.0214    9.1203 C   0  0  0  0  0  0  0  0  0  0  0  0
    3.6894    8.7118    8.4971 C   0  0  1  0  0  0  0  0  0  0  0  0
    3.2702    7.3188    8.9723 C   0  0  0  0  0  0  0  0  0  0  0  0
    1.9509    6.7856    8.3891 C   0  0  0  0  0  0  0  0  0  0  0  0
    2.0038    6.9159    6.9299 N   0  0  0  0  0  0  0  0  0  0  0  0
    2.7028    9.5919    8.9685 O   0  0  0  0  0  0  0  0  0  0  0  0
    5.6692   13.0968    9.5604 C   0  0  0  0  0  0  0  0  0  0  0  0
    6.7051   14.2095    9.6071 C   0  0  0  0  0  0  0  0  0  0  0  0
   13.7110   11.6996    8.8530 C   0  0  1  0  0  0  0  0  0  0  0  0
    7.6359   14.1993    8.4572 N   0  0  0  0  0  0  0  0  0  0  0  0
   15.1032   11.5236    9.0291 O   0  0  0  0  0  0  0  0  0  0  0  0
    9.3375    9.3265    7.5088 C   0  0  2  0  0  0  0  0  0  0  0  0
   10.2314    8.1741    7.4537 N   0  0  0  0  0  0  0  0  0  0  0  0
    7.8672   16.0739    6.8251 C   0  0  0  0  0  0  0  0  0  0  0  0
    6.3585   16.4700    6.9181 N   0  0  0  0  0  0  0  0  0  0  0  0
    8.4240   15.4197    8.1241 C   0  0  0  0  0  0  0  0  0  0  0  0
    5.5262    8.9446   10.0635 O   0  0  0  0  0  0  0  0  0  0  0  0
   13.3892   13.1545    8.4962 C   0  0  2  0  0  0  0  0  0  0  0  0
   13.8644   14.0401    9.4970 O   0  0  0  0  0  0  0  0  0  0  0  0
    9.6118   10.1029    8.7725 C   0  0  2  0  0  0  0  0  0  0  0  0
   11.8545   13.3270    8.3060 C   0  0  2  0  0  0  0  0  0  0  0  0
   11.3534   12.4353    7.2885 O   0  0  0  0  0  0  0  0  0  0  0  0
    8.6400   11.3565    8.8671 C   0  0  2  0  0  0  0  0  0  0  0  0
    8.9376   12.0852   10.0957 O   0  0  0  0  0  0  0  0  0  0  0  0
   11.4952   14.7150    7.9301 C   0  0  0  0  0  0  0  0  0  0  0  0
   11.3358   14.7915    6.5905 N   0  0  0  0  0  0  0  0  0  0  0  0
    7.1567   10.8477    8.8791 C   0  0  1  0  0  0  0  0  0  0  0  0
    6.2795   11.9228    8.9898 O   0  0  0  0  0  0  0  0  0  0  0  0
  1  2  1  1  0  0  0
  1  5  1  0  0  0  0
  1 29  1  0  0  0  0
  3  4  1  1  0  0  0
  3  7  1  0  0  0  0
  3 34  1  0  0  0  0
  5  6  1  1  0  0  0
  5 16  1  0  0  0  0
  7 19  1  0  0  0  0
  8  4  1  0  0  0  0
  8 24  2  0  0  0  0
  9  8  1  1  0  0  0
  9 10  1  0  0  0  0
  9 13  1  0  0  0  0
 10 11  1  0  0  0  0
 11 12  1  0  0  0  0
 14 15  1  0  0  0  0
 14 35  1  0  0  0  0
 15 17  1  0  0  0  0
 16 18  1  6  0  0  0
 16 25  1  0  0  0  0
 19 20  1  1  0  0  0
 19 27  1  0  0  0  0
 21 22  1  0  0  0  0
 21 23  1  0  0  0  0
 23 17  1  0  0  0  0
 25 26  1  1  0  0  0
 25 28  1  0  0  0  0
 27  2  1  6  0  0  0
 27 30  1  0  0  0  0
 28 29  1  0  0  0  0
 28 32  1  6  0  0  0
 30 31  1  1  0  0  0
 30 34  1  0  0  0  0
 32 33  2  0  0  0  0
 34 35  1  6  0  0  0
M  END
>  <CHROM.1>
-158.40374898,80.51020129,135.55768389,-177.08121315,51.15422083,35.43950242
63.41435291,161.43702511,58.19485445,-107.85960493,42.41364942,97.83722650
-178.04504798,8.53696597,11.34254669,8.35149076,-0.43036193,-0.01008009,3.11225252

>  <Name>
2f4t_lig

>  <RI>
0

>  <Rbt.Current_Directory>
/home/itssahil/PROJECTS/Mol_Feturizer/New_Systems/rnas/2f4t

>  <Rbt.Executable>
rbdock ($Id: //depot/dev/client3/rdock/2013.1/src/exe/rbdock.cxx#4 $)

>  <Rbt.Library>
libRbt.so (2013.1, Build901 2013/11/27)

>  <Rbt.Parameter_File>
/export/apps/rDock/src/rDock_2013.1_src/data/scripts/dock_solv.prm

>  <Rbt.Receptor>
prm/blind_docking_40.prm

>  <SCORE>
3.84963

>  <SCORE.INTER>
4.45829

>  <SCORE.INTER.CONST>
1

>  <SCORE.INTER.POLAR>
0

>  <SCORE.INTER.ROT>
13

>  <SCORE.INTER.SOLV>
10.846

>  <SCORE.INTER.VDW>
-12.9098

>  <SCORE.INTER.norm>
0.12738

>  <SCORE.INTRA>
-2.09209

>  <SCORE.INTRA.DIHEDRAL>
-12.9767

>  <SCORE.INTRA.DIHEDRAL.0>
23.8882

>  <SCORE.INTRA.POLAR>
0

>  <SCORE.INTRA.POLAR.0>
0

>  <SCORE.INTRA.REPUL>
0

>  <SCORE.INTRA.REPUL.0>
0

>  <SCORE.INTRA.SOLV>
7.92934

>  <SCORE.INTRA.SOLV.lig_0>
-97.6888

>  <SCORE.INTRA.VDW>
0.431583

>  <SCORE.INTRA.VDW.0>
-3.9206

>  <SCORE.INTRA.norm>
-0.059774

>  <SCORE.RESTR>
1.48343

>  <SCORE.RESTR.CAVITY>
1.48343

>  <SCORE.RESTR.norm>
0.0423837

>  <SCORE.SYSTEM>
0

>  <SCORE.SYSTEM.CONST>
0

>  <SCORE.SYSTEM.DIHEDRAL>
0

>  <SCORE.SYSTEM.SOLV>
0

>  <SCORE.SYSTEM.norm>
0

>  <SCORE.heavy>
35

>  <SCORE.norm>
0.109989

>  <RMSD>
29.423

$$$$
2f4t_lig
 OpenBabel11021811433D
libRbt.so/2013.1/901 2013/11/27
 35 36  0  0  0  0  0  0  0  0999 V2000
    3.7987   12.1479    9.4447 C   0  0  2  0  0  0  0  0  0  0  0  0
    5.0484   12.0235   10.1998 O   0  0  0  0  0  0  0  0  0  0  0  0
    9.2665   12.2849    9.3073 C   0  0  2  0  0  0  0  0  0  0  0  0
   10.5675   12.0024    8.6825 N   0  0  0  0  0  0  0  0  0  0  0  0
    2.8477   11.0509   10.0120 C   0  0  2  0  0  0  0  0  0  0  0  0
    2.6814   11.2082   11.4378 N   0  0  0  0  0  0  0  0  0  0  0  0
    8.6362   10.9399    9.8243 C   0  0  0  0  0  0  0  0  0  0  0  0
   11.8582   12.2736    9.8569 C   0  0  0  0  0  0  0  0  0  0  0  0
   12.8044   11.8576    8.7524 C   0  0  1  0  0  0  0  0  0  0  0  0
   13.6648   13.0730    8.3995 C   0  0  0  0  0  0  0  0  0  0  0  0
   14.8214   13.3735    9.3675 C   0  0  0  0  0  0  0  0  0  0  0  0
   15.4980   14.5930    8.9157 N   0  0  0  0  0  0  0  0  0  0  0  0
   13.6971   10.8719    9.2013 O   0  0  0  0  0  0  0  0  0  0  0  0
    9.6844   14.9632    7.0043 C   0  0  0  0  0  0  0  0  0  0  0  0
   10.8909   14.1679    6.5297 C   0  0  0  0  0  0  0  0  0  0  0  0
    3.4072    9.6275    9.6753 C   0  0  1  0  0  0  0  0  0  0  0  0
   10.5349   12.9042    5.8480 N   0  0  0  0  0  0  0  0  0  0  0  0
    2.5554    8.6163   10.1777 O   0  0  0  0  0  0  0  0  0  0  0  0
    7.2667   11.1647   10.4803 C   0  0  2  0  0  0  0  0  0  0  0  0
    6.6845    9.8988   10.9149 N   0  0  0  0  0  0  0  0  0  0  0  0
   10.8620   10.4669    5.4185 C   0  0  0  0  0  0  0  0  0  0  0  0
   11.8550    9.2642    5.3221 N   0  0  0  0  0  0  0  0  0  0  0  0
   11.5595   11.8358    5.6738 C   0  0  0  0  0  0  0  0  0  0  0  0
   11.8898   12.5899   10.8757 O   0  0  0  0  0  0  0  0  0  0  0  0
    3.5404    9.5172    8.1529 C   0  0  2  0  0  0  0  0  0  0  0  0
    4.0328    8.2413    7.7771 O   0  0  0  0  0  0  0  0  0  0  0  0
    6.3230   11.8347    9.5130 C   0  0  2  0  0  0  0  0  0  0  0  0
    4.4796   10.6376    7.6202 C   0  0  2  0  0  0  0  0  0  0  0  0
    3.9924   11.9441    7.9906 O   0  0  0  0  0  0  0  0  0  0  0  0
    6.9397   13.2101    9.0101 C   0  0  2  0  0  0  0  0  0  0  0  0
    5.9993   13.8312    8.0833 O   0  0  0  0  0  0  0  0  0  0  0  0
    4.6173   10.5905    6.1451 C   0  0  0  0  0  0  0  0  0  0  0  0
    5.7625    9.9513    5.8202 N   0  0  0  0  0  0  0  0  0  0  0  0
    8.3038   12.9212    8.2926 C   0  0  1  0  0  0  0  0  0  0  0  0
    8.8571   14.1058    7.8146 O   0  0  0  0  0  0  0  0  0  0  0  0
  1  2  1  1  0  0  0
  1  5  1  0  0  0  0
  1 29  1  0  0  0  0
  3  4  1  6  0  0  0
  3  7  1  0  0  0  0
  3 34  1  0  0  0  0
  5  6  1  1  0  0  0
  5 16  1  0  0  0  0
  7 19  1  0  0  0  0
  8  4  1  0  0  0  0
  8 24  2  0  0  0  0
  9  8  1  1  0  0  0
  9 10  1  0  0  0  0
  9 13  1  0  0  0  0
 10 11  1  0  0  0  0
 11 12  1  0  0  0  0
 14 15  1  0  0  0  0
 14 35  1  0  0  0  0
 15 17  1  0  0  0  0
 16 18  1  6  0  0  0
 16 25  1  0  0  0  0
 19 20  1  6  0  0  0
 19 27  1  0  0  0  0
 21 22  1  0  0  0  0
 21 23  1  0  0  0  0
 23 17  1  0  0  0  0
 25 26  1  1  0  0  0
 25 28  1  0  0  0  0
 27  2  1  1  0  0  0
 27 30  1  0  0  0  0
 28 29  1  0  0  0  0
 28 32  1  6  0  0  0
 30 31  1  6  0  0  0
 30 34  1  0  0  0  0
 32 33  2  0  0  0  0
 34 35  1  1  0  0  0
M  END
>  <CHROM.1>
124.91718961,-96.14660905,114.92731975,78.35718071,-177.52385862,53.62557024
-25.55119931,-162.42737079,-175.96983272,159.73060530,-155.86773700,-98.46867694
82.13372471,8.14692035,11.71330584,8.50322421,-3.12673317,-0.26389836,-1.90727747

>  <Name>
2f4t_lig

>  <RI>
0

>  <Rbt.Current_Directory>
/home/itssahil/PROJECTS/Mol_Feturizer/New_Systems/rnas/2f4t

>  <Rbt.Executable>
rbdock ($Id: //depot/dev/client3/rdock/2013.1/src/exe/rbdock.cxx#4 $)

>  <Rbt.Library>
libRbt.so (2013.1, Build901 2013/11/27)

>  <Rbt.Parameter_File>
/export/apps/rDock/src/rDock_2013.1_src/data/scripts/dock_solv.prm

>  <Rbt.Receptor>
prm/blind_docking_40.prm

>  <SCORE>
1.67025

>  <SCORE.INTER>
1.35803

>  <SCORE.INTER.CONST>
1

>  <SCORE.INTER.POLAR>
-0.916515

>  <SCORE.INTER.ROT>
13

>  <SCORE.INTER.SOLV>
16.6515

>  <SCORE.INTER.VDW>
-13.8568

>  <SCORE.INTER.norm>
0.0388007

>  <SCORE.INTRA>
-0.659902

>  <SCORE.INTRA.DIHEDRAL>
-1.57255

>  <SCORE.INTRA.DIHEDRAL.0>
23.8882

>  <SCORE.INTRA.POLAR>
0

>  <SCORE.INTRA.POLAR.0>
0

>  <SCORE.INTRA.REPUL>
0

>  <SCORE.INTRA.REPUL.0>
0

>  <SCORE.INTRA.SOLV>
3.79625

>  <SCORE.INTRA.SOLV.lig_0>
-97.6888

>  <SCORE.INTRA.VDW>
-1.77175

>  <SCORE.INTRA.VDW.0>
-3.9206

>  <SCORE.INTRA.norm>
-0.0188544

>  <SCORE.RESTR>
0.972126

>  <SCORE.RESTR.CAVITY>
0.972126

>  <SCORE.RESTR.norm>
0.027775

>  <SCORE.SYSTEM>
0

>  <SCORE.SYSTEM.CONST>
0

>  <SCORE.SYSTEM.DIHEDRAL>
0

>  <SCORE.SYSTEM.SOLV>
0

>  <SCORE.SYSTEM.norm>
0

>  <SCORE.heavy>
35

>  <SCORE.norm>
0.0477214

>  <RMSD>
29.446

$$$$
2f4t_lig
 OpenBabel11021811433D
libRbt.so/2013.1/901 2013/11/27
 35 36  0  0  0  0  0  0  0  0999 V2000
    5.6327   11.3026    7.2917 C   0  0  2  0  0  0  0  0  0  0  0  0
    5.7441   11.7591    8.6797 O   0  0  0  0  0  0  0  0  0  0  0  0
    9.9981   12.3500    9.1399 C   0  0  2  0  0  0  0  0  0  0  0  0
   11.2726   12.9229    9.5982 N   0  0  0  0  0  0  0  0  0  0  0  0
    4.4429   10.2959    7.2689 C   0  0  2  0  0  0  0  0  0  0  0  0
    3.2404   10.9166    7.7730 N   0  0  0  0  0  0  0  0  0  0  0  0
    9.0824   13.5009    8.5827 C   0  0  0  0  0  0  0  0  0  0  0  0
   11.9353   13.9711    8.3408 C   0  0  0  0  0  0  0  0  0  0  0  0
   13.0768   14.2215    9.3011 C   0  0  1  0  0  0  0  0  0  0  0  0
   14.2931   13.4505    8.7834 C   0  0  0  0  0  0  0  0  0  0  0  0
   15.5212   13.4447    9.7092 C   0  0  0  0  0  0  0  0  0  0  0  0
   16.0211   14.8181    9.8234 N   0  0  0  0  0  0  0  0  0  0  0  0
   13.4490   15.5749    9.2962 O   0  0  0  0  0  0  0  0  0  0  0  0
   10.6776    9.3419   10.9188 C   0  0  0  0  0  0  0  0  0  0  0  0
   11.0470    8.8629    9.5232 C   0  0  0  0  0  0  0  0  0  0  0  0
    4.7998    9.0223    8.1072 C   0  0  1  0  0  0  0  0  0  0  0  0
   11.8040    9.8613    8.7366 N   0  0  0  0  0  0  0  0  0  0  0  0
    3.7338    8.0928    8.0954 O   0  0  0  0  0  0  0  0  0  0  0  0
    7.7271   12.9691    8.0960 C   0  0  2  0  0  0  0  0  0  0  0  0
    6.8807   14.0595    7.6219 N   0  0  0  0  0  0  0  0  0  0  0  0
   11.8208   10.8470    6.4433 C   0  0  0  0  0  0  0  0  0  0  0  0
   11.9675   10.6038    4.9066 N   0  0  0  0  0  0  0  0  0  0  0  0
   12.1353    9.5911    7.3088 C   0  0  0  0  0  0  0  0  0  0  0  0
   11.6210   14.2577    7.3619 O   0  0  0  0  0  0  0  0  0  0  0  0
    6.0674    8.4011    7.5114 C   0  0  2  0  0  0  0  0  0  0  0  0
    6.4407    7.2303    8.2198 O   0  0  0  0  0  0  0  0  0  0  0  0
    7.0161   12.2419    9.2098 C   0  0  2  0  0  0  0  0  0  0  0  0
    7.2269    9.4386    7.5327 C   0  0  2  0  0  0  0  0  0  0  0  0
    6.8659   10.6362    6.8136 O   0  0  0  0  0  0  0  0  0  0  0  0
    7.9229   11.0573    9.7571 C   0  0  2  0  0  0  0  0  0  0  0  0
    7.2021   10.3745   10.8264 O   0  0  0  0  0  0  0  0  0  0  0  0
    8.4700    8.8926    6.9382 C   0  0  0  0  0  0  0  0  0  0  0  0
    8.8011    9.6147    5.8452 N   0  0  0  0  0  0  0  0  0  0  0  0
    9.2663   11.6572   10.2999 C   0  0  1  0  0  0  0  0  0  0  0  0
   10.0729   10.6455   10.8134 O   0  0  0  0  0  0  0  0  0  0  0  0
  1  2  1  1  0  0  0
  1  5  1  0  0  0  0
  1 29  1  0  0  0  0
  3  4  1  1  0  0  0
  3  7  1  0  0  0  0
  3 34  1  0  0  0  0
  5  6  1  1  0  0  0
  5 16  1  0  0  0  0
  7 19  1  0  0  0  0
  8  4  1  0  0  0  0
  8 24  2  0  0  0  0
  9  8  1  6  0  0  0
  9 10  1  0  0  0  0
  9 13  1  0  0  0  0
 10 11  1  0  0  0  0
 11 12  1  0  0  0  0
 14 15  1  0  0  0  0
 14 35  1  0  0  0  0
 15 17  1  0  0  0  0
 16 18  1  6  0  0  0
 16 25  1  0  0  0  0
 19 20  1  1  0  0  0
 19 27  1  0  0  0  0
 21 22  1  0  0  0  0
 21 23  1  0  0  0  0
 23 17  1  0  0  0  0
 25 26  1  1  0  0  0
 25 28  1  0  0  0  0
 27  2  1  6  0  0  0
 27 30  1  0  0  0  0
 28 29  1  0  0  0  0
 28 32  1  6  0  0  0
 30 31  1  1  0  0  0
 30 34  1  0  0  0  0
 32 33  2  0  0  0  0
 34 35  1  6  0  0  0
M  END
>  <CHROM.1>
154.24739152,-49.43479379,105.94929146,-173.30169719,-64.81710584,49.64216734
41.38288501,-174.58648981,-172.81503934,134.02667604,35.22924080,117.46510605
-82.98677299,9.22939126,11.30999838,8.42632116,2.69096969,0.04549088,-2.97153118

>  <Name>
2f4t_lig

>  <RI>
0

>  <Rbt.Current_Directory>
/home/itssahil/PROJECTS/Mol_Feturizer/New_Systems/rnas/2f4t

>  <Rbt.Executable>
rbdock ($Id: //depot/dev/client3/rdock/2013.1/src/exe/rbdock.cxx#4 $)

>  <Rbt.Library>
libRbt.so (2013.1, Build901 2013/11/27)

>  <Rbt.Parameter_File>
/export/apps/rDock/src/rDock_2013.1_src/data/scripts/dock_solv.prm

>  <Rbt.Receptor>
prm/blind_docking_80.prm

>  <SCORE>
6.49697

>  <SCORE.INTER>
6.43292

>  <SCORE.INTER.CONST>
1

>  <SCORE.INTER.POLAR>
0

>  <SCORE.INTER.ROT>
13

>  <SCORE.INTER.SOLV>
15.3537

>  <SCORE.INTER.VDW>
-13.0959

>  <SCORE.INTER.norm>
0.183798

>  <SCORE.INTRA>
-1.47184

>  <SCORE.INTRA.DIHEDRAL>
-9.53092

>  <SCORE.INTRA.DIHEDRAL.0>
23.8882

>  <SCORE.INTRA.POLAR>
0

>  <SCORE.INTRA.POLAR.0>
0

>  <SCORE.INTRA.REPUL>
0

>  <SCORE.INTRA.REPUL.0>
0

>  <SCORE.INTRA.SOLV>
6.10187

>  <SCORE.INTRA.SOLV.lig_0>
-97.6888

>  <SCORE.INTRA.VDW>
0.242689

>  <SCORE.INTRA.VDW.0>
-3.9206

>  <SCORE.INTRA.norm>
-0.0420525

>  <SCORE.RESTR>
1.53589

>  <SCORE.RESTR.CAVITY>
1.53589

>  <SCORE.RESTR.norm>
0.0438825

>  <SCORE.SYSTEM>
0

>  <SCORE.SYSTEM.CONST>
0

>  <SCORE.SYSTEM.DIHEDRAL>
0

>  <SCORE.SYSTEM.SOLV>
0

>  <SCORE.SYSTEM.norm>
0

>  <SCORE.heavy>
35

>  <SCORE.norm>
0.185628

>  <RMSD>
29.448

$$$$
2f4t_lig
 OpenBabel11021811433D
libRbt.so/2013.1/901 2013/11/27
 35 36  0  0  0  0  0  0  0  0999 V2000
    5.2651    9.8938    6.6240 C   0  0  2  0  0  0  0  0  0  0  0  0
    5.3773   11.0642    7.4984 O   0  0  0  0  0  0  0  0  0  0  0  0
    9.0248   13.1179    8.5641 C   0  0  2  0  0  0  0  0  0  0  0  0
   10.2282   13.4959    9.3201 N   0  0  0  0  0  0  0  0  0  0  0  0
    3.8605    9.9948    5.9557 C   0  0  2  0  0  0  0  0  0  0  0  0
    3.7158   11.2528    5.2615 N   0  0  0  0  0  0  0  0  0  0  0  0
    7.7800   13.1396    9.5250 C   0  0  0  0  0  0  0  0  0  0  0  0
   11.1613   14.6753    8.3944 C   0  0  0  0  0  0  0  0  0  0  0  0
   12.1268   14.6656    9.5588 C   0  0  1  0  0  0  0  0  0  0  0  0
   13.4561   14.1021    9.0516 C   0  0  0  0  0  0  0  0  0  0  0  0
   13.6507   12.5877    9.2353 C   0  0  0  0  0  0  0  0  0  0  0  0
   15.0208   12.2460    8.8414 N   0  0  0  0  0  0  0  0  0  0  0  0
   12.4032   15.9717    9.9924 O   0  0  0  0  0  0  0  0  0  0  0  0
   11.6683   11.5888    6.7609 C   0  0  0  0  0  0  0  0  0  0  0  0
   12.1730   10.1825    7.0456 C   0  0  0  0  0  0  0  0  0  0  0  0
    2.7381    9.8276    7.0348 C   0  0  1  0  0  0  0  0  0  0  0  0
   11.4412    9.1308    6.3061 N   0  0  0  0  0  0  0  0  0  0  0  0
    1.4541    9.9115    6.4476 O   0  0  0  0  0  0  0  0  0  0  0  0
    6.4881   12.7424    8.7972 C   0  0  2  0  0  0  0  0  0  0  0  0
    5.3555   12.7306    9.7178 N   0  0  0  0  0  0  0  0  0  0  0  0
   10.4324    6.8558    6.1103 C   0  0  0  0  0  0  0  0  0  0  0  0
   10.2091    5.5007    6.8558 N   0  0  0  0  0  0  0  0  0  0  0  0
   11.6104    7.6986    6.6825 C   0  0  0  0  0  0  0  0  0  0  0  0
   11.0423   15.1447    7.4432 O   0  0  0  0  0  0  0  0  0  0  0  0
    2.9343    8.4703    7.7180 C   0  0  2  0  0  0  0  0  0  0  0  0
    1.9381    8.2487    8.7031 O   0  0  0  0  0  0  0  0  0  0  0  0
    6.6326   11.3755    8.1762 C   0  0  2  0  0  0  0  0  0  0  0  0
    4.3515    8.3977    8.3563 C   0  0  2  0  0  0  0  0  0  0  0  0
    5.3787    8.6179    7.3674 O   0  0  0  0  0  0  0  0  0  0  0  0
    7.8702   11.3547    7.1797 C   0  0  2  0  0  0  0  0  0  0  0  0
    7.9751   10.0220    6.5948 O   0  0  0  0  0  0  0  0  0  0  0  0
    4.6002    7.0889    9.0060 C   0  0  0  0  0  0  0  0  0  0  0  0
    3.8973    7.0174   10.1577 N   0  0  0  0  0  0  0  0  0  0  0  0
    9.1719   11.7036    7.9816 C   0  0  1  0  0  0  0  0  0  0  0  0
   10.2805   11.6659    7.1405 O   0  0  0  0  0  0  0  0  0  0  0  0
  1  2  1  1  0  0  0
  1  5  1  0  0  0  0
  1 29  1  0  0  0  0
  3  4  1  1  0  0  0
  3  7  1  0  0  0  0
  3 34  1  0  0  0  0
  5  6  1  1  0  0  0
  5 16  1  0  0  0  0
  7 19  1  0  0  0  0
  8  4  1  0  0  0  0
  8 24  2  0  0  0  0
  9  8  1  6  0  0  0
  9 10  1  0  0  0  0
  9 13  1  0  0  0  0
 10 11  1  0  0  0  0
 11 12  1  0  0  0  0
 14 15  1  0  0  0  0
 14 35  1  0  0  0  0
 15 17  1  0  0  0  0
 16 18  1  6  0  0  0
 16 25  1  0  0  0  0
 19 20  1  1  0  0  0
 19 27  1  0  0  0  0
 21 22  1  0  0  0  0
 21 23  1  0  0  0  0
 23 17  1  0  0  0  0
 25 26  1  1  0  0  0
 25 28  1  0  0  0  0
 27  2  1  6  0  0  0
 27 30  1  0  0  0  0
 28 29  1  0  0  0  0
 28 32  1  6  0  0  0
 30 31  1  1  0  0  0
 30 34  1  0  0  0  0
 32 33  2  0  0  0  0
 34 35  1  6  0  0  0
M  END
>  <CHROM.1>
-173.11909619,-134.08196691,115.41435811,-93.23528871,-173.63173240,59.98170456
70.09800447,-167.04015770,-158.42100027,161.51652912,170.62019515,-73.64674880
79.36864839,8.07439165,10.90253797,7.85838103,2.69522477,-0.02950186,-2.86913427

>  <Name>
2f4t_lig

>  <RI>
0

>  <Rbt.Current_Directory>
/home/itssahil/PROJECTS/Mol_Feturizer/New_Systems/rnas/2f4t

>  <Rbt.Executable>
rbdock ($Id: //depot/dev/client3/rdock/2013.1/src/exe/rbdock.cxx#4 $)

>  <Rbt.Library>
libRbt.so (2013.1, Build901 2013/11/27)

>  <Rbt.Parameter_File>
/export/apps/rDock/src/rDock_2013.1_src/data/scripts/dock_solv.prm

>  <Rbt.Receptor>
prm/blind_docking_40.prm

>  <SCORE>
-7.60975

>  <SCORE.INTER>
-3.86564

>  <SCORE.INTER.CONST>
1

>  <SCORE.INTER.POLAR>
-0.87178

>  <SCORE.INTER.ROT>
13

>  <SCORE.INTER.SOLV>
15.0628

>  <SCORE.INTER.VDW>
-16.9588

>  <SCORE.INTER.norm>
-0.110447

>  <SCORE.INTRA>
-5.84377

>  <SCORE.INTRA.DIHEDRAL>
-10.735

>  <SCORE.INTRA.DIHEDRAL.0>
23.8882

>  <SCORE.INTRA.POLAR>
0

>  <SCORE.INTRA.POLAR.0>
0

>  <SCORE.INTRA.REPUL>
0

>  <SCORE.INTRA.REPUL.0>
0

>  <SCORE.INTRA.SOLV>
0.932368

>  <SCORE.INTRA.SOLV.lig_0>
-97.6888

>  <SCORE.INTRA.VDW>
-0.942466

>  <SCORE.INTRA.VDW.0>
-3.9206

>  <SCORE.INTRA.norm>
-0.166965

>  <SCORE.RESTR>
2.09967

>  <SCORE.RESTR.CAVITY>
2.09967

>  <SCORE.RESTR.norm>
0.0599905

>  <SCORE.SYSTEM>
0

>  <SCORE.SYSTEM.CONST>
0

>  <SCORE.SYSTEM.DIHEDRAL>
0

>  <SCORE.SYSTEM.SOLV>
0

>  <SCORE.SYSTEM.norm>
0

>  <SCORE.heavy>
35

>  <SCORE.norm>
-0.217421

>  <RMSD>
29.450

$$$$
2f4t_lig
 OpenBabel11021811433D
libRbt.so/2013.1/901 2013/11/27
 35 36  0  0  0  0  0  0  0  0999 V2000
    4.1151   11.2524    7.6790 C   0  0  2  0  0  0  0  0  0  0  0  0
    5.4392   10.7849    7.2603 O   0  0  0  0  0  0  0  0  0  0  0  0
    9.3567   12.2295    8.3666 C   0  0  2  0  0  0  0  0  0  0  0  0
   10.5016   12.6168    9.2044 N   0  0  0  0  0  0  0  0  0  0  0  0
    3.7327   10.3914    8.9208 C   0  0  2  0  0  0  0  0  0  0  0  0
    4.7397   10.5055    9.9497 N   0  0  0  0  0  0  0  0  0  0  0  0
    8.0583   12.9364    8.9031 C   0  0  0  0  0  0  0  0  0  0  0  0
   11.8798   13.0143    8.1742 C   0  0  0  0  0  0  0  0  0  0  0  0
   12.6218   13.3012    9.4608 C   0  0  1  0  0  0  0  0  0  0  0  0
   13.6755   12.2060    9.6401 C   0  0  0  0  0  0  0  0  0  0  0  0
   15.0114   12.4425    8.9159 C   0  0  0  0  0  0  0  0  0  0  0  0
   15.9872   11.4691    9.4153 N   0  0  0  0  0  0  0  0  0  0  0  0
   13.3330   14.5080    9.3714 O   0  0  0  0  0  0  0  0  0  0  0  0
   11.6863    9.7168    7.8807 C   0  0  0  0  0  0  0  0  0  0  0  0
   11.8561    8.6092    6.8523 C   0  0  0  0  0  0  0  0  0  0  0  0
    3.5411    8.8953    8.4997 C   0  0  1  0  0  0  0  0  0  0  0  0
   11.5899    9.0456    5.4640 N   0  0  0  0  0  0  0  0  0  0  0  0
    3.1886    8.0967    9.6125 O   0  0  0  0  0  0  0  0  0  0  0  0
    6.8202   12.5641    8.0754 C   0  0  2  0  0  0  0  0  0  0  0  0
    5.6229   13.1993    8.6166 N   0  0  0  0  0  0  0  0  0  0  0  0
    9.7278   10.6839    5.1813 C   0  0  0  0  0  0  0  0  0  0  0  0
   10.7193   11.7332    4.5831 N   0  0  0  0  0  0  0  0  0  0  0  0
   10.1866    9.2082    4.9888 C   0  0  0  0  0  0  0  0  0  0  0  0
   12.0487   13.0263    7.1205 O   0  0  0  0  0  0  0  0  0  0  0  0
    2.4499    8.8402    7.4254 C   0  0  2  0  0  0  0  0  0  0  0  0
    2.2164    7.5053    7.0065 O   0  0  0  0  0  0  0  0  0  0  0  0
    6.6233   11.0687    8.0661 C   0  0  2  0  0  0  0  0  0  0  0  0
    2.8557    9.7248    6.2114 C   0  0  2  0  0  0  0  0  0  0  0  0
    3.0945   11.0882    6.6185 O   0  0  0  0  0  0  0  0  0  0  0  0
    7.9201   10.3490    7.4957 C   0  0  2  0  0  0  0  0  0  0  0  0
    7.6914    8.9079    7.4960 O   0  0  0  0  0  0  0  0  0  0  0  0
    1.8158    9.7271    5.1552 C   0  0  0  0  0  0  0  0  0  0  0  0
    2.3850    9.4457    3.9625 N   0  0  0  0  0  0  0  0  0  0  0  0
    9.1424   10.7085    8.4100 C   0  0  1  0  0  0  0  0  0  0  0  0
   10.2910   10.0692    7.9521 O   0  0  0  0  0  0  0  0  0  0  0  0
  1  2  1  6  0  0  0
  1  5  1  0  0  0  0
  1 29  1  0  0  0  0
  3  4  1  1  0  0  0
  3  7  1  0  0  0  0
  3 34  1  0  0  0  0
  5  6  1  1  0  0  0
  5 16  1  0  0  0  0
  7 19  1  0  0  0  0
  8  4  1  0  0  0  0
  8 24  2  0  0  0  0
  9  8  1  6  0  0  0
  9 10  1  0  0  0  0
  9 13  1  0  0  0  0
 10 11  1  0  0  0  0
 11 12  1  0  0  0  0
 14 15  1  0  0  0  0
 14 35  1  0  0  0  0
 15 17  1  0  0  0  0
 16 18  1  1  0  0  0
 16 25  1  0  0  0  0
 19 20  1  1  0  0  0
 19 27  1  0  0  0  0
 21 22  1  0  0  0  0
 21 23  1  0  0  0  0
 23 17  1  0  0  0  0
 25 26  1  6  0  0  0
 25 28  1  0  0  0  0
 27  2  1  6  0  0  0
 27 30  1  0  0  0  0
 28 29  1  0  0  0  0
 28 32  1  6  0  0  0
 30 31  1  1  0  0  0
 30 34  1  0  0  0  0
 32 33  2  0  0  0  0
 34 35  1  6  0  0  0
M  END
>  <CHROM.1>
-70.65561562,-135.24727769,110.25456385,84.93754942,168.03631836,67.83620427
174.89501077,-77.69233074,51.19757341,93.21369213,-64.28724006,-129.45092276
55.28846510,8.06307291,10.83557723,7.65418151,2.89497285,-0.10660513,-2.30527566

>  <Name>
2f4t_lig

>  <RI>
0

>  <Rbt.Current_Directory>
/home/itssahil/PROJECTS/Mol_Feturizer/New_Systems/rnas/2f4t

>  <Rbt.Executable>
rbdock ($Id: //depot/dev/client3/rdock/2013.1/src/exe/rbdock.cxx#4 $)

>  <Rbt.Library>
libRbt.so (2013.1, Build901 2013/11/27)

>  <Rbt.Parameter_File>
/export/apps/rDock/src/rDock_2013.1_src/data/scripts/dock_solv.prm

>  <Rbt.Receptor>
prm/blind_docking_40.prm

>  <SCORE>
-3.7538

>  <SCORE.INTER>
-3.17295

>  <SCORE.INTER.CONST>
1

>  <SCORE.INTER.POLAR>
-0.916515

>  <SCORE.INTER.ROT>
13

>  <SCORE.INTER.SOLV>
15.9081

>  <SCORE.INTER.VDW>
-16.6296

>  <SCORE.INTER.norm>
-0.0906558

>  <SCORE.INTRA>
-1.29052

>  <SCORE.INTRA.DIHEDRAL>
-14.8897

>  <SCORE.INTRA.DIHEDRAL.0>
23.8882

>  <SCORE.INTRA.POLAR>
0

>  <SCORE.INTRA.POLAR.0>
0

>  <SCORE.INTRA.REPUL>
0

>  <SCORE.INTRA.REPUL.0>
0

>  <SCORE.INTRA.SOLV>
9.8629

>  <SCORE.INTRA.SOLV.lig_0>
-97.6888

>  <SCORE.INTRA.VDW>
1.22288

>  <SCORE.INTRA.VDW.0>
-3.9206

>  <SCORE.INTRA.norm>
-0.036872

>  <SCORE.RESTR>
0.709671

>  <SCORE.RESTR.CAVITY>
0.709671

>  <SCORE.RESTR.norm>
0.0202763

>  <SCORE.SYSTEM>
0

>  <SCORE.SYSTEM.CONST>
0

>  <SCORE.SYSTEM.DIHEDRAL>
0

>  <SCORE.SYSTEM.SOLV>
0

>  <SCORE.SYSTEM.norm>
0

>  <SCORE.heavy>
35

>  <SCORE.norm>
-0.107252

>  <RMSD>
29.450

$$$$
2f4t_lig
 OpenBabel11021811433D
libRbt.so/2013.1/901 2013/11/27
 35 36  0  0  0  0  0  0  0  0999 V2000
   10.6208   14.3896    9.6642 C   0  0  2  0  0  0  0  0  0  0  0  0
   10.2870   14.3351    8.2384 O   0  0  0  0  0  0  0  0  0  0  0  0
    7.3544   11.1656    8.1326 C   0  0  2  0  0  0  0  0  0  0  0  0
    6.2090   10.3561    7.6903 N   0  0  0  0  0  0  0  0  0  0  0  0
   12.0253   15.0604    9.7472 C   0  0  2  0  0  0  0  0  0  0  0  0
   12.0110   16.3540    9.1054 N   0  0  0  0  0  0  0  0  0  0  0  0
    6.9092   12.6687    8.2599 C   0  0  0  0  0  0  0  0  0  0  0  0
    5.1834    9.9764    9.0770 C   0  0  0  0  0  0  0  0  0  0  0  0
    4.3041    9.2418    8.0894 C   0  0  1  0  0  0  0  0  0  0  0  0
    3.6644    8.0640    8.8280 C   0  0  0  0  0  0  0  0  0  0  0  0
    2.7934    7.1328    7.9682 C   0  0  0  0  0  0  0  0  0  0  0  0
    2.3910    5.9869    8.7892 N   0  0  0  0  0  0  0  0  0  0  0  0
    3.2401   10.0529    7.6648 O   0  0  0  0  0  0  0  0  0  0  0  0
    8.8307    8.3699    6.5727 C   0  0  0  0  0  0  0  0  0  0  0  0
    9.7944    7.5599    7.4263 C   0  0  0  0  0  0  0  0  0  0  0  0
   13.1042   14.1322    9.0939 C   0  0  1  0  0  0  0  0  0  0  0  0
   11.1882    7.5863    6.9310 N   0  0  0  0  0  0  0  0  0  0  0  0
   14.3883   14.7211    9.1631 O   0  0  0  0  0  0  0  0  0  0  0  0
    8.0660   13.5721    8.7094 C   0  0  2  0  0  0  0  0  0  0  0  0
    7.6393   14.9660    8.7808 N   0  0  0  0  0  0  0  0  0  0  0  0
   12.3343    9.6571    6.1373 C   0  0  0  0  0  0  0  0  0  0  0  0
   12.9821    8.9701    4.8922 N   0  0  0  0  0  0  0  0  0  0  0  0
   12.1036    8.6904    7.3364 C   0  0  0  0  0  0  0  0  0  0  0  0
    5.2224   10.1971   10.1205 O   0  0  0  0  0  0  0  0  0  0  0  0
   13.0835   12.7885    9.8299 C   0  0  2  0  0  0  0  0  0  0  0  0
   14.0508   11.9005    9.2936 O   0  0  0  0  0  0  0  0  0  0  0  0
    9.2248   13.4600    7.7505 C   0  0  2  0  0  0  0  0  0  0  0  0
   11.6637   12.1580    9.7431 C   0  0  2  0  0  0  0  0  0  0  0  0
   10.6661   13.0469   10.2874 O   0  0  0  0  0  0  0  0  0  0  0  0
    9.7005   11.9478    7.6405 C   0  0  2  0  0  0  0  0  0  0  0  0
   10.8236   11.8790    6.7116 O   0  0  0  0  0  0  0  0  0  0  0  0
   11.5853   10.8671   10.4671 C   0  0  0  0  0  0  0  0  0  0  0  0
   10.2962   10.4685   10.5382 N   0  0  0  0  0  0  0  0  0  0  0  0
    8.5051   11.0777    7.1181 C   0  0  1  0  0  0  0  0  0  0  0  0
    8.8989    9.7492    6.9837 O   0  0  0  0  0  0  0  0  0  0  0  0
  1  2  1  6  0  0  0
  1  5  1  0  0  0  0
  1 29  1  0  0  0  0
  3  4  1  6  0  0  0
  3  7  1  0  0  0  0
  3 34  1  0  0  0  0
  5  6  1  6  0  0  0
  5 16  1  0  0  0  0
  7 19  1  0  0  0  0
  8  4  1  0  0  0  0
  8 24  2  0  0  0  0
  9  8  1  1  0  0  0
  9 10  1  0  0  0  0
  9 13  1  0  0  0  0
 10 11  1  0  0  0  0
 11 12  1  0  0  0  0
 14 15  1  0  0  0  0
 14 35  1  0  0  0  0
 15 17  1  0  0  0  0
 16 18  1  1  0  0  0
 16 25  1  0  0  0  0
 19 20  1  6  0  0  0
 19 27  1  0  0  0  0
 21 22  1  0  0  0  0
 21 23  1  0  0  0  0
 23 17  1  0  0  0  0
 25 26  1  6  0  0  0
 25 28  1  0  0  0  0
 27  2  1  1  0  0  0
 27 30  1  0  0  0  0
 28 29  1  0  0  0  0
 28 32  1  1  0  0  0
 30 31  1  6  0  0  0
 30 34  1  0  0  0  0
 32 33  2  0  0  0  0
 34 35  1  1  0  0  0
M  END
>  <CHROM.1>
163.35140855,-81.40940593,148.22463513,-176.36723022,173.58083374,-83.79015224
-162.09280543,86.18224567,-60.40493033,-106.96742866,42.70699882,170.55460348
73.74781634,9.19000750,11.21433176,8.35706451,0.52959252,0.13213813,0.35716451

>  <Name>
2f4t_lig

>  <RI>
0

>  <Rbt.Current_Directory>
/home/itssahil/PROJECTS/Mol_Feturizer/New_Systems/rnas/2f4t

>  <Rbt.Executable>
rbdock ($Id: //depot/dev/client3/rdock/2013.1/src/exe/rbdock.cxx#4 $)

>  <Rbt.Library>
libRbt.so (2013.1, Build901 2013/11/27)

>  <Rbt.Parameter_File>
/export/apps/rDock/src/rDock_2013.1_src/data/scripts/dock_solv.prm

>  <Rbt.Receptor>
prm/blind_docking_40.prm

>  <SCORE>
-5.2876

>  <SCORE.INTER>
-0.99505

>  <SCORE.INTER.CONST>
1

>  <SCORE.INTER.POLAR>
-0.623597

>  <SCORE.INTER.ROT>
13

>  <SCORE.INTER.SOLV>
10.6467

>  <SCORE.INTER.VDW>
-14.4003

>  <SCORE.INTER.norm>
-0.02843

>  <SCORE.INTRA>
-4.98105

>  <SCORE.INTRA.DIHEDRAL>
-11.4145

>  <SCORE.INTRA.DIHEDRAL.0>
23.8882

>  <SCORE.INTRA.POLAR>
0

>  <SCORE.INTRA.POLAR.0>
0

>  <SCORE.INTRA.REPUL>
0

>  <SCORE.INTRA.REPUL.0>
0

>  <SCORE.INTRA.SOLV>
2.41099

>  <SCORE.INTRA.SOLV.lig_0>
-97.6888

>  <SCORE.INTRA.VDW>
-0.479276

>  <SCORE.INTRA.VDW.0>
-3.9206

>  <SCORE.INTRA.norm>
-0.142316

>  <SCORE.RESTR>
0.688493

>  <SCORE.RESTR.CAVITY>
0.688493

>  <SCORE.RESTR.norm>
0.0196712

>  <SCORE.SYSTEM>
0

>  <SCORE.SYSTEM.CONST>
0

>  <SCORE.SYSTEM.DIHEDRAL>
0

>  <SCORE.SYSTEM.SOLV>
0

>  <SCORE.SYSTEM.norm>
0

>  <SCORE.heavy>
35

>  <SCORE.norm>
-0.151074

>  <RMSD>
29.451

$$$$
2f4t_lig
 OpenBabel11021811433D
libRbt.so/2013.1/901 2013/11/27
 35 36  0  0  0  0  0  0  0  0999 V2000
   10.9647   14.4940   10.0635 C   0  0  2  0  0  0  0  0  0  0  0  0
   10.3572   14.3103    8.7427 O   0  0  0  0  0  0  0  0  0  0  0  0
    7.8591   10.8333    9.3144 C   0  0  2  0  0  0  0  0  0  0  0  0
    6.7203    9.9123    9.1819 N   0  0  0  0  0  0  0  0  0  0  0  0
   12.4405   14.9197    9.7977 C   0  0  2  0  0  0  0  0  0  0  0  0
   12.4887   16.1009    8.9683 N   0  0  0  0  0  0  0  0  0  0  0  0
    7.3256   12.2719    9.6599 C   0  0  0  0  0  0  0  0  0  0  0  0
    5.6724   10.4538    7.8675 C   0  0  0  0  0  0  0  0  0  0  0  0
    4.8192    9.2483    8.1946 C   0  0  1  0  0  0  0  0  0  0  0  0
    4.1244    9.5233    9.5301 C   0  0  0  0  0  0  0  0  0  0  0  0
    3.3488   10.8485    9.6166 C   0  0  0  0  0  0  0  0  0  0  0  0
    2.8461   11.0020   10.9851 N   0  0  0  0  0  0  0  0  0  0  0  0
    3.7913    9.0904    7.2519 O   0  0  0  0  0  0  0  0  0  0  0  0
    9.0973    8.3045    7.1225 C   0  0  0  0  0  0  0  0  0  0  0  0
    9.4729    8.3831    5.6507 C   0  0  0  0  0  0  0  0  0  0  0  0
   13.2276   13.7428    9.1285 C   0  0  1  0  0  0  0  0  0  0  0  0
   10.9136    8.6282    5.4205 N   0  0  0  0  0  0  0  0  0  0  0  0
   14.5719   14.1073    8.8829 O   0  0  0  0  0  0  0  0  0  0  0  0
    8.4681   13.2872    9.8018 C   0  0  2  0  0  0  0  0  0  0  0  0
    7.9462   14.6211   10.0818 N   0  0  0  0  0  0  0  0  0  0  0  0
   13.2132    8.7573    6.3830 C   0  0  0  0  0  0  0  0  0  0  0  0
   12.9537   10.1248    7.0934 N   0  0  0  0  0  0  0  0  0  0  0  0
   11.9332    7.8863    6.2150 C   0  0  0  0  0  0  0  0  0  0  0  0
    5.6897   11.2742    7.1851 O   0  0  0  0  0  0  0  0  0  0  0  0
   13.1564   12.5312   10.0636 C   0  0  2  0  0  0  0  0  0  0  0  0
   13.8636   11.4281    9.5205 O   0  0  0  0  0  0  0  0  0  0  0  0
    9.2901   13.3349    8.5380 C   0  0  2  0  0  0  0  0  0  0  0  0
   11.6709   12.1470   10.3217 C   0  0  2  0  0  0  0  0  0  0  0  0
   10.9359   13.2571   10.8776 O   0  0  0  0  0  0  0  0  0  0  0  0
    9.8586   11.8903    8.1995 C   0  0  2  0  0  0  0  0  0  0  0  0
   10.6514   11.9760    6.9775 O   0  0  0  0  0  0  0  0  0  0  0  0
   11.5490   10.9951   11.2465 C   0  0  0  0  0  0  0  0  0  0  0  0
   11.4566    9.8521   10.5320 N   0  0  0  0  0  0  0  0  0  0  0  0
    8.6542   10.9056    8.0016 C   0  0  1  0  0  0  0  0  0  0  0  0
    9.1195    9.6349    7.6753 O   0  0  0  0  0  0  0  0  0  0  0  0
  1  2  1  6  0  0  0
  1  5  1  0  0  0  0
  1 29  1  0  0  0  0
  3  4  1  6  0  0  0
  3  7  1  0  0  0  0
  3 34  1  0  0  0  0
  5  6  1  6  0  0  0
  5 16  1  0  0  0  0
  7 19  1  0  0  0  0
  8  4  1  0  0  0  0
  8 24  2  0  0  0  0
  9  8  1  6  0  0  0
  9 10  1  0  0  0  0
  9 13  1  0  0  0  0
 10 11  1  0  0  0  0
 11 12  1  0  0  0  0
 14 15  1  0  0  0  0
 14 35  1  0  0  0  0
 15 17  1  0  0  0  0
 16 18  1  1  0  0  0
 16 25  1  0  0  0  0
 19 20  1  6  0  0  0
 19 27  1  0  0  0  0
 21 22  1  0  0  0  0
 21 23  1  0  0  0  0
 23 17  1  0  0  0  0
 25 26  1  6  0  0  0
 25 28  1  0  0  0  0
 27  2  1  1  0  0  0
 27 30  1  0  0  0  0
 28 29  1  0  0  0  0
 28 32  1  1  0  0  0
 30 31  1  6  0  0  0
 30 34  1  0  0  0  0
 32 33  2  0  0  0  0
 34 35  1  1  0  0  0
M  END
>  <CHROM.1>
149.34794746,61.19341035,71.37679143,52.71941820,-175.33084548,74.22967009
84.40480372,43.79297236,58.93383359,-150.10517920,33.76610497,-94.05796690
85.12604447,9.45303473,11.42648878,8.66488011,0.31066604,0.13929000,0.56463132

>  <Name>
2f4t_lig

>  <RI>
0

>  <Rbt.Current_Directory>
/home/itssahil/PROJECTS/Mol_Feturizer/New_Systems/rnas/2f4t

>  <Rbt.Executable>
rbdock ($Id: //depot/dev/client3/rdock/2013.1/src/exe/rbdock.cxx#4 $)

>  <Rbt.Library>
libRbt.so (2013.1, Build901 2013/11/27)

>  <Rbt.Parameter_File>
/export/apps/rDock/src/rDock_2013.1_src/data/scripts/dock_solv.prm

>  <Rbt.Receptor>
prm/blind_docking_80.prm

>  <SCORE>
0.296642

>  <SCORE.INTER>
-3.67437

>  <SCORE.INTER.CONST>
1

>  <SCORE.INTER.POLAR>
-0.784779

>  <SCORE.INTER.ROT>
13

>  <SCORE.INTER.SOLV>
10.7786

>  <SCORE.INTER.VDW>
-15.6932

>  <SCORE.INTER.norm>
-0.104982

>  <SCORE.INTRA>
2.92923

>  <SCORE.INTRA.DIHEDRAL>
-8.10723

>  <SCORE.INTRA.DIHEDRAL.0>
23.8882

>  <SCORE.INTRA.POLAR>
0

>  <SCORE.INTRA.POLAR.0>
0

>  <SCORE.INTRA.REPUL>
0.018857

>  <SCORE.INTRA.REPUL.0>
0

>  <SCORE.INTRA.SOLV>
8.95851

>  <SCORE.INTRA.SOLV.lig_0>
-97.6888

>  <SCORE.INTRA.VDW>
2.4093

>  <SCORE.INTRA.VDW.0>
-3.9206

>  <SCORE.INTRA.norm>
0.0836923

>  <SCORE.RESTR>
1.04178

>  <SCORE.RESTR.CAVITY>
1.04178

>  <SCORE.RESTR.norm>
0.0297652

>  <SCORE.SYSTEM>
0

>  <SCORE.SYSTEM.CONST>
0

>  <SCORE.SYSTEM.DIHEDRAL>
0

>  <SCORE.SYSTEM.SOLV>
0

>  <SCORE.SYSTEM.norm>
0

>  <SCORE.heavy>
35

>  <SCORE.norm>
0.00847549

>  <RMSD>
29.454

$$$$
2f4t_lig
 OpenBabel11021811433D
libRbt.so/2013.1/901 2013/11/27
 35 36  0  0  0  0  0  0  0  0999 V2000
   10.4687   14.7030    9.7548 C   0  0  2  0  0  0  0  0  0  0  0  0
   10.1095   14.6195    8.3366 O   0  0  0  0  0  0  0  0  0  0  0  0
    6.9905   11.6316    8.3665 C   0  0  2  0  0  0  0  0  0  0  0  0
    5.7817   10.8910    7.9754 N   0  0  0  0  0  0  0  0  0  0  0  0
   11.9365   15.2261    9.7921 C   0  0  2  0  0  0  0  0  0  0  0  0
   12.0472   16.4839    9.0912 N   0  0  0  0  0  0  0  0  0  0  0  0
    6.6417   13.1590    8.5039 C   0  0  0  0  0  0  0  0  0  0  0  0
    5.3714    9.7225    9.2344 C   0  0  0  0  0  0  0  0  0  0  0  0
    4.1987    9.3484    8.3552 C   0  0  1  0  0  0  0  0  0  0  0  0
    4.2609    7.8374    8.1210 C   0  0  0  0  0  0  0  0  0  0  0  0
    4.1893    6.9643    9.3850 C   0  0  0  0  0  0  0  0  0  0  0  0
    4.0809    5.5616    8.9730 N   0  0  0  0  0  0  0  0  0  0  0  0
    2.9820    9.5856    9.0137 O   0  0  0  0  0  0  0  0  0  0  0  0
    9.1404    8.9559    6.7542 C   0  0  0  0  0  0  0  0  0  0  0  0
    9.5177    9.1090    5.2887 C   0  0  0  0  0  0  0  0  0  0  0  0
   12.9029   14.1616    9.1715 C   0  0  1  0  0  0  0  0  0  0  0  0
   10.9387    8.8068    5.0094 N   0  0  0  0  0  0  0  0  0  0  0  0
   14.2422   14.6153    9.2000 O   0  0  0  0  0  0  0  0  0  0  0  0
    7.8679   13.9926    8.9013 C   0  0  2  0  0  0  0  0  0  0  0  0
    7.5287   15.4098    8.9827 N   0  0  0  0  0  0  0  0  0  0  0  0
   12.7983    8.8111    6.6747 C   0  0  0  0  0  0  0  0  0  0  0  0
   11.9045    8.2639    7.8339 N   0  0  0  0  0  0  0  0  0  0  0  0
   12.0129    9.6421    5.6174 C   0  0  0  0  0  0  0  0  0  0  0  0
    5.8005    9.4509   10.1731 O   0  0  0  0  0  0  0  0  0  0  0  0
   12.7536   12.8620    9.9693 C   0  0  2  0  0  0  0  0  0  0  0  0
   13.6149   11.8543    9.4647 O   0  0  0  0  0  0  0  0  0  0  0  0
    8.9778   13.8084    7.8968 C   0  0  2  0  0  0  0  0  0  0  0  0
   11.2746   12.3803    9.9264 C   0  0  2  0  0  0  0  0  0  0  0  0
   10.3833   13.3924   10.4392 O   0  0  0  0  0  0  0  0  0  0  0  0
    9.3573   12.2701    7.7756 C   0  0  2  0  0  0  0  0  0  0  0  0
   10.4354   12.1314    6.8023 O   0  0  0  0  0  0  0  0  0  0  0  0
   11.0732   11.1387   10.7103 C   0  0  0  0  0  0  0  0  0  0  0  0
   11.2857   10.0659    9.9167 N   0  0  0  0  0  0  0  0  0  0  0  0
    8.0916   11.4718    7.3067 C   0  0  1  0  0  0  0  0  0  0  0  0
    8.3993   10.1218    7.1635 O   0  0  0  0  0  0  0  0  0  0  0  0
  1  2  1  6  0  0  0
  1  5  1  0  0  0  0
  1 29  1  0  0  0  0
  3  4  1  6  0  0  0
  3  7  1  0  0  0  0
  3 34  1  0  0  0  0
  5  6  1  6  0  0  0
  5 16  1  0  0  0  0
  7 19  1  0  0  0  0
  8  4  1  0  0  0  0
  8 24  2  0  0  0  0
  9  8  1  1  0  0  0
  9 10  1  0  0  0  0
  9 13  1  0  0  0  0
 10 11  1  0  0  0  0
 11 12  1  0  0  0  0
 14 15  1  0  0  0  0
 14 35  1  0  0  0  0
 15 17  1  0  0  0  0
 16 18  1  1  0  0  0
 16 25  1  0  0  0  0
 19 20  1  6  0  0  0
 19 27  1  0  0  0  0
 21 22  1  0  0  0  0
 21 23  1  0  0  0  0
 23 17  1  0  0  0  0
 25 26  1  6  0  0  0
 25 28  1  0  0  0  0
 27  2  1  1  0  0  0
 27 30  1  0  0  0  0
 28 29  1  0  0  0  0
 28 32  1  1  0  0  0
 30 31  1  6  0  0  0
 30 34  1  0  0  0  0
 32 33  2  0  0  0  0
 34 35  1  1  0  0  0
M  END
>  <CHROM.1>
161.57651759,-118.05497143,125.78006116,59.83911961,172.54469670,132.36000174
-47.20996343,-63.18512552,-59.00817022,111.20223008,40.08141101,-89.21011678
-166.21083215,9.13876379,11.37654984,8.44922244,0.60291622,0.17890556,0.35498865

>  <Name>
2f4t_lig

>  <RI>
0

>  <Rbt.Current_Directory>
/home/itssahil/PROJECTS/Mol_Feturizer/New_Systems/rnas/2f4t

>  <Rbt.Executable>
rbdock ($Id: //depot/dev/client3/rdock/2013.1/src/exe/rbdock.cxx#4 $)

>  <Rbt.Library>
libRbt.so (2013.1, Build901 2013/11/27)

>  <Rbt.Parameter_File>
/export/apps/rDock/src/rDock_2013.1_src/data/scripts/dock_solv.prm

>  <Rbt.Receptor>
prm/blind_docking_40.prm

>  <SCORE>
-6.18517

>  <SCORE.INTER>
-5.02338

>  <SCORE.INTER.CONST>
1

>  <SCORE.INTER.POLAR>
-0.905407

>  <SCORE.INTER.ROT>
13

>  <SCORE.INTER.SOLV>
9.99706

>  <SCORE.INTER.VDW>
-15.9299

>  <SCORE.INTER.norm>
-0.143525

>  <SCORE.INTRA>
-1.19486

>  <SCORE.INTRA.DIHEDRAL>
-7.6458

>  <SCORE.INTRA.DIHEDRAL.0>
23.8882

>  <SCORE.INTRA.POLAR>
0

>  <SCORE.INTRA.POLAR.0>
0

>  <SCORE.INTRA.REPUL>
0

>  <SCORE.INTRA.REPUL.0>
0

>  <SCORE.INTRA.SOLV>
5.9546

>  <SCORE.INTRA.SOLV.lig_0>
-97.6888

>  <SCORE.INTRA.VDW>
-0.34926

>  <SCORE.INTRA.VDW.0>
-3.9206

>  <SCORE.INTRA.norm>
-0.0341389

>  <SCORE.RESTR>
0.0330715

>  <SCORE.RESTR.CAVITY>
0.0330715

>  <SCORE.RESTR.norm>
0.0009449

>  <SCORE.SYSTEM>
0

>  <SCORE.SYSTEM.CONST>
0

>  <SCORE.SYSTEM.DIHEDRAL>
0

>  <SCORE.SYSTEM.SOLV>
0

>  <SCORE.SYSTEM.norm>
0

>  <SCORE.heavy>
35

>  <SCORE.norm>
-0.176719

>  <RMSD>
29.457

$$$$
2f4t_lig
 OpenBabel11021811433D
libRbt.so/2013.1/901 2013/11/27
 35 36  0  0  0  0  0  0  0  0999 V2000
   11.1975   14.9504    9.9452 C   0  0  2  0  0  0  0  0  0  0  0  0
   10.5767   14.9301    8.6180 O   0  0  0  0  0  0  0  0  0  0  0  0
    7.2384   12.2473    9.1794 C   0  0  2  0  0  0  0  0  0  0  0  0
    5.9003   11.6554    9.0309 N   0  0  0  0  0  0  0  0  0  0  0  0
   12.6846   15.3557    9.7134 C   0  0  2  0  0  0  0  0  0  0  0  0
   12.7661   16.6177    9.0162 N   0  0  0  0  0  0  0  0  0  0  0  0
    7.0953   13.7834    9.4851 C   0  0  0  0  0  0  0  0  0  0  0  0
    5.8507   10.0933    9.8533 C   0  0  0  0  0  0  0  0  0  0  0  0
    4.4090   10.0219    9.4012 C   0  0  1  0  0  0  0  0  0  0  0  0
    4.0294    8.5427    9.3011 C   0  0  0  0  0  0  0  0  0  0  0  0
    2.6741    8.2466    8.6372 C   0  0  0  0  0  0  0  0  0  0  0  0
    2.4527    6.7977    8.6635 N   0  0  0  0  0  0  0  0  0  0  0  0
    3.5525   10.5741   10.3664 O   0  0  0  0  0  0  0  0  0  0  0  0
    8.5218    9.3366    7.7960 C   0  0  0  0  0  0  0  0  0  0  0  0
    8.7459    8.6910    6.4372 C   0  0  0  0  0  0  0  0  0  0  0  0
   13.4294   14.2341    8.9136 C   0  0  1  0  0  0  0  0  0  0  0  0
    9.5537    7.4531    6.4968 N   0  0  0  0  0  0  0  0  0  0  0  0
   14.7834   14.5806    8.6965 O   0  0  0  0  0  0  0  0  0  0  0  0
    8.4616   14.4655    9.6414 C   0  0  2  0  0  0  0  0  0  0  0  0
    8.3036   15.8961    9.8838 N   0  0  0  0  0  0  0  0  0  0  0  0
   11.7074    8.3605    7.3741 C   0  0  0  0  0  0  0  0  0  0  0  0
   13.1483    8.8381    7.0034 N   0  0  0  0  0  0  0  0  0  0  0  0
   11.0245    7.5096    6.2628 C   0  0  0  0  0  0  0  0  0  0  0  0
    6.5575    9.5143   10.4049 O   0  0  0  0  0  0  0  0  0  0  0  0
   13.3246   12.9311    9.7128 C   0  0  2  0  0  0  0  0  0  0  0  0
   13.9926   11.8717    9.0471 O   0  0  0  0  0  0  0  0  0  0  0  0
    9.2951   14.2652    8.4004 C   0  0  2  0  0  0  0  0  0  0  0  0
   11.8289   12.5681    9.9416 C   0  0  2  0  0  0  0  0  0  0  0  0
   11.1334   13.6341   10.6210 O   0  0  0  0  0  0  0  0  0  0  0  0
    9.4702   12.7142    8.1027 C   0  0  2  0  0  0  0  0  0  0  0  0
   10.2847   12.5592    6.9020 O   0  0  0  0  0  0  0  0  0  0  0  0
   11.6753   11.3272   10.7375 C   0  0  0  0  0  0  0  0  0  0  0  0
   11.1501   10.3555    9.9592 N   0  0  0  0  0  0  0  0  0  0  0  0
    8.0536   12.0766    7.8881 C   0  0  1  0  0  0  0  0  0  0  0  0
    8.1747   10.7208    7.5968 O   0  0  0  0  0  0  0  0  0  0  0  0
  1  2  1  6  0  0  0
  1  5  1  0  0  0  0
  1 29  1  0  0  0  0
  3  4  1  6  0  0  0
  3  7  1  0  0  0  0
  3 34  1  0  0  0  0
  5  6  1  6  0  0  0
  5 16  1  0  0  0  0
  7 19  1  0  0  0  0
  8  4  1  0  0  0  0
  8 24  2  0  0  0  0
  9  8  1  1  0  0  0
  9 10  1  0  0  0  0
  9 13  1  0  0  0  0
 10 11  1  0  0  0  0
 11 12  1  0  0  0  0
 14 15  1  0  0  0  0
 14 35  1  0  0  0  0
 15 17  1  0  0  0  0
 16 18  1  1  0  0  0
 16 25  1  0  0  0  0
 19 20  1  6  0  0  0
 19 27  1  0  0  0  0
 21 22  1  0  0  0  0
 21 23  1  0  0  0  0
 23 17  1  0  0  0  0
 25 26  1  6  0  0  0
 25 28  1  0  0  0  0
 27  2  1  1  0  0  0
 27 30  1  0  0  0  0
 28 29  1  0  0  0  0
 28 32  1  1  0  0  0
 30 31  1  6  0  0  0
 30 34  1  0  0  0  0
 32 33  2  0  0  0  0
 34 35  1  1  0  0  0
M  END
>  <CHROM.1>
163.96317332,-137.93551082,153.71828374,-170.42071817,-178.21272479,159.43386471
-153.48286126,-95.02195760,-162.68048451,63.74065471,35.29080474,-112.32199834
-57.77280405,9.24361642,11.64090801,8.82029570,0.53968029,0.17388849,0.33235152

>  <Name>
2f4t_lig

>  <RI>
0

>  <Rbt.Current_Directory>
/home/itssahil/PROJECTS/Mol_Feturizer/New_Systems/rnas/2f4t

>  <Rbt.Executable>
rbdock ($Id: //depot/dev/client3/rdock/2013.1/src/exe/rbdock.cxx#4 $)

>  <Rbt.Library>
libRbt.so (2013.1, Build901 2013/11/27)

>  <Rbt.Parameter_File>
/export/apps/rDock/src/rDock_2013.1_src/data/scripts/dock_solv.prm

>  <Rbt.Receptor>
prm/blind_docking_40.prm

>  <SCORE>
-3.64025

>  <SCORE.INTER>
0.707243

>  <SCORE.INTER.CONST>
1

>  <SCORE.INTER.POLAR>
0

>  <SCORE.INTER.ROT>
13

>  <SCORE.INTER.SOLV>
8.68301

>  <SCORE.INTER.VDW>
-14.6895

>  <SCORE.INTER.norm>
0.0202069

>  <SCORE.INTRA>
-4.73928

>  <SCORE.INTRA.DIHEDRAL>
-10.2633

>  <SCORE.INTRA.DIHEDRAL.0>
23.8882

>  <SCORE.INTRA.POLAR>
0

>  <SCORE.INTRA.POLAR.0>
0

>  <SCORE.INTRA.REPUL>
0

>  <SCORE.INTRA.REPUL.0>
0

>  <SCORE.INTRA.SOLV>
1.6829

>  <SCORE.INTRA.SOLV.lig_0>
-97.6888

>  <SCORE.INTRA.VDW>
-0.449105

>  <SCORE.INTRA.VDW.0>
-3.9206

>  <SCORE.INTRA.norm>
-0.135408

>  <SCORE.RESTR>
0.391792

>  <SCORE.RESTR.CAVITY>
0.391792

>  <SCORE.RESTR.norm>
0.0111941

>  <SCORE.SYSTEM>
0

>  <SCORE.SYSTEM.CONST>
0

>  <SCORE.SYSTEM.DIHEDRAL>
0

>  <SCORE.SYSTEM.SOLV>
0

>  <SCORE.SYSTEM.norm>
0

>  <SCORE.heavy>
35

>  <SCORE.norm>
-0.104007

>  <RMSD>
29.462

$$$$
2f4t_lig
 OpenBabel11021811433D
libRbt.so/2013.1/901 2013/11/27
 35 36  0  0  0  0  0  0  0  0999 V2000
    5.7584    9.6022    7.6140 C   0  0  2  0  0  0  0  0  0  0  0  0
    5.8892   10.9318    8.2158 O   0  0  0  0  0  0  0  0  0  0  0  0
    9.3656   13.4442    8.7252 C   0  0  2  0  0  0  0  0  0  0  0  0
   10.6089   13.9851    9.2946 N   0  0  0  0  0  0  0  0  0  0  0  0
    4.4729    9.6577    6.7342 C   0  0  2  0  0  0  0  0  0  0  0  0
    4.5635   10.7255    5.7663 N   0  0  0  0  0  0  0  0  0  0  0  0
    8.2808   13.3337    9.8585 C   0  0  0  0  0  0  0  0  0  0  0  0
   11.5759   14.7189    8.0119 C   0  0  0  0  0  0  0  0  0  0  0  0
   12.5731   15.0500    9.1002 C   0  0  1  0  0  0  0  0  0  0  0  0
   13.8142   14.1855    8.8675 C   0  0  0  0  0  0  0  0  0  0  0  0
   13.6161   12.6720    9.0554 C   0  0  0  0  0  0  0  0  0  0  0  0
   14.9155   12.0121    8.8969 N   0  0  0  0  0  0  0  0  0  0  0  0
   13.0065   16.3809    8.9956 O   0  0  0  0  0  0  0  0  0  0  0  0
   11.5884   11.6740    6.2216 C   0  0  0  0  0  0  0  0  0  0  0  0
   11.2246   10.2762    5.7449 C   0  0  0  0  0  0  0  0  0  0  0  0
    3.2085    9.8398    7.6401 C   0  0  1  0  0  0  0  0  0  0  0  0
   11.3566    9.2410    6.7935 N   0  0  0  0  0  0  0  0  0  0  0  0
    2.0293    9.8879    6.8607 O   0  0  0  0  0  0  0  0  0  0  0  0
    6.9571   12.7634    9.3301 C   0  0  2  0  0  0  0  0  0  0  0  0
    5.9808   12.6325   10.4071 N   0  0  0  0  0  0  0  0  0  0  0  0
   10.5756    6.8844    6.5323 C   0  0  0  0  0  0  0  0  0  0  0  0
    9.3024    7.3796    5.7737 N   0  0  0  0  0  0  0  0  0  0  0  0
   11.7848    7.8605    6.4297 C   0  0  0  0  0  0  0  0  0  0  0  0
   11.4543   14.8412    6.9586 O   0  0  0  0  0  0  0  0  0  0  0  0
    3.1586    8.6690    8.6272 C   0  0  2  0  0  0  0  0  0  0  0  0
    2.0247    8.7662    9.4737 O   0  0  0  0  0  0  0  0  0  0  0  0
    7.1804   11.4111    8.7004 C   0  0  2  0  0  0  0  0  0  0  0  0
    4.4637    8.6330    9.4737 C   0  0  2  0  0  0  0  0  0  0  0  0
    5.6287    8.5311    8.6286 O   0  0  0  0  0  0  0  0  0  0  0  0
    8.2528   11.5209    7.5330 C   0  0  2  0  0  0  0  0  0  0  0  0
    8.4383   10.1986    6.9447 O   0  0  0  0  0  0  0  0  0  0  0  0
    4.4756    7.4971   10.4258 C   0  0  0  0  0  0  0  0  0  0  0  0
    4.1132    6.3660    9.7815 N   0  0  0  0  0  0  0  0  0  0  0  0
    9.6030   12.0461    8.1334 C   0  0  1  0  0  0  0  0  0  0  0  0
   10.5735   12.1268    7.1387 O   0  0  0  0  0  0  0  0  0  0  0  0
  1  2  1  1  0  0  0
  1  5  1  0  0  0  0
  1 29  1  0  0  0  0
  3  4  1  1  0  0  0
  3  7  1  0  0  0  0
  3 34  1  0  0  0  0
  5  6  1  6  0  0  0
  5 16  1  0  0  0  0
  7 19  1  0  0  0  0
  8  4  1  0  0  0  0
  8 24  2  0  0  0  0
  9  8  1  6  0  0  0
  9 10  1  0  0  0  0
  9 13  1  0  0  0  0
 10 11  1  0  0  0  0
 11 12  1  0  0  0  0
 14 15  1  0  0  0  0
 14 35  1  0  0  0  0
 15 17  1  0  0  0  0
 16 18  1  6  0  0  0
 16 25  1  0  0  0  0
 19 20  1  1  0  0  0
 19 27  1  0  0  0  0
 21 22  1  0  0  0  0
 21 23  1  0  0  0  0
 23 17  1  0  0  0  0
 25 26  1  1  0  0  0
 25 28  1  0  0  0  0
 27  2  1  6  0  0  0
 27 30  1  0  0  0  0
 28 29  1  0  0  0  0
 28 32  1  1  0  0  0
 30 31  1  1  0  0  0
 30 34  1  0  0  0  0
 32 33  2  0  0  0  0
 34 35  1  6  0  0  0
M  END
>  <CHROM.1>
-157.86821231,-157.16853686,111.01829786,-66.48339639,-175.71934073,-70.06685161
34.17767478,-146.13550915,50.59128182,-107.52572240,-176.61121362,47.61959619
161.14324994,8.33569108,11.02471325,8.06101963,-2.69455604,0.20067793,0.35237718

>  <Name>
2f4t_lig

>  <RI>
0

>  <Rbt.Current_Directory>
/home/itssahil/PROJECTS/Mol_Feturizer/New_Systems/rnas/2f4t

>  <Rbt.Executable>
rbdock ($Id: //depot/dev/client3/rdock/2013.1/src/exe/rbdock.cxx#4 $)

>  <Rbt.Library>
libRbt.so (2013.1, Build901 2013/11/27)

>  <Rbt.Parameter_File>
/export/apps/rDock/src/rDock_2013.1_src/data/scripts/dock_solv.prm

>  <Rbt.Receptor>
prm/blind_docking_40.prm

>  <SCORE>
-1.96051

>  <SCORE.INTER>
1.27087

>  <SCORE.INTER.CONST>
1

>  <SCORE.INTER.POLAR>
0

>  <SCORE.INTER.ROT>
13

>  <SCORE.INTER.SOLV>
14.926

>  <SCORE.INTER.VDW>
-16.3947

>  <SCORE.INTER.norm>
0.0363105

>  <SCORE.INTRA>
-4.00604

>  <SCORE.INTRA.DIHEDRAL>
-10.0453

>  <SCORE.INTRA.DIHEDRAL.0>
23.8882

>  <SCORE.INTRA.POLAR>
0

>  <SCORE.INTRA.POLAR.0>
0

>  <SCORE.INTRA.REPUL>
0

>  <SCORE.INTRA.REPUL.0>
0

>  <SCORE.INTRA.SOLV>
4.6351

>  <SCORE.INTRA.SOLV.lig_0>
-97.6888

>  <SCORE.INTRA.VDW>
-1.30096

>  <SCORE.INTRA.VDW.0>
-3.9206

>  <SCORE.INTRA.norm>
-0.114458

>  <SCORE.RESTR>
0.774664

>  <SCORE.RESTR.CAVITY>
0.774664

>  <SCORE.RESTR.norm>
0.0221332

>  <SCORE.SYSTEM>
0

>  <SCORE.SYSTEM.CONST>
0

>  <SCORE.SYSTEM.DIHEDRAL>
0

>  <SCORE.SYSTEM.SOLV>
0

>  <SCORE.SYSTEM.norm>
0

>  <SCORE.heavy>
35

>  <SCORE.norm>
-0.0560146

>  <RMSD>
29.467

$$$$
2f4t_lig
 OpenBabel11021811433D
libRbt.so/2013.1/901 2013/11/27
 35 36  0  0  0  0  0  0  0  0999 V2000
   12.5908   11.4554    9.5267 C   0  0  2  0  0  0  0  0  0  0  0  0
   11.9187   11.3609    8.2280 O   0  0  0  0  0  0  0  0  0  0  0  0
    7.7803   10.2865    7.6144 C   0  0  2  0  0  0  0  0  0  0  0  0
    6.5916    9.4672    7.3341 N   0  0  0  0  0  0  0  0  0  0  0  0
   12.2971   12.8924   10.0544 C   0  0  2  0  0  0  0  0  0  0  0  0
   10.8742   13.1304   10.1195 N   0  0  0  0  0  0  0  0  0  0  0  0
    8.8463   10.0594    6.4806 C   0  0  0  0  0  0  0  0  0  0  0  0
    5.1370   10.4484    7.5350 C   0  0  0  0  0  0  0  0  0  0  0  0
    4.3725    9.2022    7.1467 C   0  0  1  0  0  0  0  0  0  0  0  0
    4.4146    8.2444    8.3396 C   0  0  0  0  0  0  0  0  0  0  0  0
    4.1521    8.8815    9.7145 C   0  0  0  0  0  0  0  0  0  0  0  0
    2.9080    9.6532    9.6369 N   0  0  0  0  0  0  0  0  0  0  0  0
    3.0157    9.4919    6.9339 O   0  0  0  0  0  0  0  0  0  0  0  0
    6.7353   10.7545   11.0136 C   0  0  0  0  0  0  0  0  0  0  0  0
    6.2820   12.1068   10.4851 C   0  0  0  0  0  0  0  0  0  0  0  0
   12.9930   13.9546    9.1380 C   0  0  1  0  0  0  0  0  0  0  0  0
    7.3912   13.0644   10.2825 N   0  0  0  0  0  0  0  0  0  0  0  0
   12.7425   15.2667    9.6028 O   0  0  0  0  0  0  0  0  0  0  0  0
   10.1206   10.8810    6.7202 C   0  0  2  0  0  0  0  0  0  0  0  0
   11.1092   10.6227    5.6780 N   0  0  0  0  0  0  0  0  0  0  0  0
    8.5509   14.8596    8.9925 C   0  0  0  0  0  0  0  0  0  0  0  0
    8.8755   15.4855    7.5980 N   0  0  0  0  0  0  0  0  0  0  0  0
    7.7229   13.5432    8.9106 C   0  0  0  0  0  0  0  0  0  0  0  0
    4.9494   11.4625    7.8096 O   0  0  0  0  0  0  0  0  0  0  0  0
   14.4967   13.6609    9.1274 C   0  0  2  0  0  0  0  0  0  0  0  0
   15.1919   14.5987    8.3218 O   0  0  0  0  0  0  0  0  0  0  0  0
   10.7200   10.5437    8.0625 C   0  0  2  0  0  0  0  0  0  0  0  0
   14.7509   12.2141    8.6145 C   0  0  2  0  0  0  0  0  0  0  0  0
   14.0533   11.2453    9.4246 O   0  0  0  0  0  0  0  0  0  0  0  0
    9.6584   10.8006    9.2166 C   0  0  2  0  0  0  0  0  0  0  0  0
   10.2736   10.4701   10.4977 O   0  0  0  0  0  0  0  0  0  0  0  0
   16.1930   11.8717    8.6136 C   0  0  0  0  0  0  0  0  0  0  0  0
   16.5244   11.3164    9.7999 N   0  0  0  0  0  0  0  0  0  0  0  0
    8.4046    9.8935    8.9624 C   0  0  1  0  0  0  0  0  0  0  0  0
    7.4657   10.0749    9.9740 O   0  0  0  0  0  0  0  0  0  0  0  0
  1  2  1  6  0  0  0
  1  5  1  0  0  0  0
  1 29  1  0  0  0  0
  3  4  1  6  0  0  0
  3  7  1  0  0  0  0
  3 34  1  0  0  0  0
  5  6  1  6  0  0  0
  5 16  1  0  0  0  0
  7 19  1  0  0  0  0
  8  4  1  0  0  0  0
  8 24  2  0  0  0  0
  9  8  1  1  0  0  0
  9 10  1  0  0  0  0
  9 13  1  0  0  0  0
 10 11  1  0  0  0  0
 11 12  1  0  0  0  0
 14 15  1  0  0  0  0
 14 35  1  0  0  0  0
 15 17  1  0  0  0  0
 16 18  1  1  0  0  0
 16 25  1  0  0  0  0
 19 20  1  6  0  0  0
 19 27  1  0  0  0  0
 21 22  1  0  0  0  0
 21 23  1  0  0  0  0
 23 17  1  0  0  0  0
 25 26  1  6  0  0  0
 25 28  1  0  0  0  0
 27  2  1  1  0  0  0
 27 30  1  0  0  0  0
 28 29  1  0  0  0  0
 28 32  1  1  0  0  0
 30 31  1  1  0  0  0
 30 34  1  0  0  0  0
 32 33  2  0  0  0  0
 34 35  1  1  0  0  0
M  END
>  <CHROM.1>
-108.31842742,-133.30133514,74.11174035,44.30731592,51.65832894,-69.69934824
48.95372938,115.29297792,-176.60154115,160.66647250,168.43904126,90.54145999
-90.00200363,9.42245963,11.53460641,8.74161772,-0.30349290,-0.03945246,-2.82000592

>  <Name>
2f4t_lig

>  <RI>
0

>  <Rbt.Current_Directory>
/home/itssahil/PROJECTS/Mol_Feturizer/New_Systems/rnas/2f4t

>  <Rbt.Executable>
rbdock ($Id: //depot/dev/client3/rdock/2013.1/src/exe/rbdock.cxx#4 $)

>  <Rbt.Library>
libRbt.so (2013.1, Build901 2013/11/27)

>  <Rbt.Parameter_File>
/export/apps/rDock/src/rDock_2013.1_src/data/scripts/dock_solv.prm

>  <Rbt.Receptor>
prm/blind_docking_80.prm

>  <SCORE>
0.527795

>  <SCORE.INTER>
-3.05611

>  <SCORE.INTER.CONST>
1

>  <SCORE.INTER.POLAR>
0

>  <SCORE.INTER.ROT>
13

>  <SCORE.INTER.SOLV>
9.66565

>  <SCORE.INTER.VDW>
-17.526

>  <SCORE.INTER.norm>
-0.0873175

>  <SCORE.INTRA>
2.17785

>  <SCORE.INTRA.DIHEDRAL>
-6.11837

>  <SCORE.INTRA.DIHEDRAL.0>
23.8882

>  <SCORE.INTRA.POLAR>
0

>  <SCORE.INTRA.POLAR.0>
0

>  <SCORE.INTRA.REPUL>
0

>  <SCORE.INTRA.REPUL.0>
0

>  <SCORE.INTRA.SOLV>
11.0938

>  <SCORE.INTRA.SOLV.lig_0>
-97.6888

>  <SCORE.INTRA.VDW>
-0.309875

>  <SCORE.INTRA.VDW.0>
-3.9206

>  <SCORE.INTRA.norm>
0.0622244

>  <SCORE.RESTR>
1.40605

>  <SCORE.RESTR.CAVITY>
1.40605

>  <SCORE.RESTR.norm>
0.0401729

>  <SCORE.SYSTEM>
0

>  <SCORE.SYSTEM.CONST>
0

>  <SCORE.SYSTEM.DIHEDRAL>
0

>  <SCORE.SYSTEM.SOLV>
0

>  <SCORE.SYSTEM.norm>
0

>  <SCORE.heavy>
35

>  <SCORE.norm>
0.0150799

>  <RMSD>
29.475

$$$$
2f4t_lig
 OpenBabel11021811433D
libRbt.so/2013.1/901 2013/11/27
 35 36  0  0  0  0  0  0  0  0999 V2000
    5.1265   12.0724    8.9664 C   0  0  2  0  0  0  0  0  0  0  0  0
    5.7498   11.8196   10.2682 O   0  0  0  0  0  0  0  0  0  0  0  0
    9.8586   12.9189    9.5158 C   0  0  2  0  0  0  0  0  0  0  0  0
   11.2323   13.3837    9.7600 N   0  0  0  0  0  0  0  0  0  0  0  0
    3.9179   11.0922    8.8756 C   0  0  2  0  0  0  0  0  0  0  0  0
    3.0231   11.2816    9.9931 N   0  0  0  0  0  0  0  0  0  0  0  0
    8.8440   13.9618   10.1129 C   0  0  0  0  0  0  0  0  0  0  0  0
   11.8155   14.2708    8.3488 C   0  0  0  0  0  0  0  0  0  0  0  0
   13.0953   14.4629    9.1321 C   0  0  1  0  0  0  0  0  0  0  0  0
   14.2095   14.7676    8.1283 C   0  0  0  0  0  0  0  0  0  0  0  0
   15.6434   14.6703    8.6756 C   0  0  0  0  0  0  0  0  0  0  0  0
   15.7706   15.5939    9.8069 N   0  0  0  0  0  0  0  0  0  0  0  0
   13.0094   15.5895    9.9649 O   0  0  0  0  0  0  0  0  0  0  0  0
   11.7941   10.0726    9.2972 C   0  0  0  0  0  0  0  0  0  0  0  0
   11.5543    8.7399    8.6045 C   0  0  0  0  0  0  0  0  0  0  0  0
    4.4282    9.6126    8.8217 C   0  0  1  0  0  0  0  0  0  0  0  0
   12.2192    8.6300    7.2875 N   0  0  0  0  0  0  0  0  0  0  0  0
    3.3460    8.7062    8.7342 O   0  0  0  0  0  0  0  0  0  0  0  0
    7.3867   13.5290    9.9000 C   0  0  2  0  0  0  0  0  0  0  0  0
    6.4661   14.4911   10.4976 N   0  0  0  0  0  0  0  0  0  0  0  0
   10.2100    8.4409    5.8183 C   0  0  0  0  0  0  0  0  0  0  0  0
   10.3343    6.8832    5.8311 N   0  0  0  0  0  0  0  0  0  0  0  0
   11.5583    9.1787    6.0695 C   0  0  0  0  0  0  0  0  0  0  0  0
   11.4005   14.5234    7.3985 O   0  0  0  0  0  0  0  0  0  0  0  0
    5.3523    9.4726    7.6076 C   0  0  2  0  0  0  0  0  0  0  0  0
    5.8421    8.1465    7.4922 O   0  0  0  0  0  0  0  0  0  0  0  0
    7.1459   12.1713   10.5114 C   0  0  2  0  0  0  0  0  0  0  0  0
    6.5346   10.4777    7.7223 C   0  0  2  0  0  0  0  0  0  0  0  0
    6.0549   11.8335    7.8375 O   0  0  0  0  0  0  0  0  0  0  0  0
    8.1470   11.1053    9.8899 C   0  0  2  0  0  0  0  0  0  0  0  0
    7.8815    9.8062   10.4989 O   0  0  0  0  0  0  0  0  0  0  0  0
    7.4429   10.4004    6.5536 C   0  0  0  0  0  0  0  0  0  0  0  0
    8.6540   10.8954    6.8913 N   0  0  0  0  0  0  0  0  0  0  0  0
    9.6184   11.5583   10.1883 C   0  0  1  0  0  0  0  0  0  0  0  0
   10.5212   10.6286    9.6800 O   0  0  0  0  0  0  0  0  0  0  0  0
  1  2  1  1  0  0  0
  1  5  1  0  0  0  0
  1 29  1  0  0  0  0
  3  4  1  1  0  0  0
  3  7  1  0  0  0  0
  3 34  1  0  0  0  0
  5  6  1  1  0  0  0
  5 16  1  0  0  0  0
  7 19  1  0  0  0  0
  8  4  1  0  0  0  0
  8 24  2  0  0  0  0
  9  8  1  6  0  0  0
  9 10  1  0  0  0  0
  9 13  1  0  0  0  0
 10 11  1  0  0  0  0
 11 12  1  0  0  0  0
 14 15  1  0  0  0  0
 14 35  1  0  0  0  0
 15 17  1  0  0  0  0
 16 18  1  6  0  0  0
 16 25  1  0  0  0  0
 19 20  1  1  0  0  0
 19 27  1  0  0  0  0
 21 22  1  0  0  0  0
 21 23  1  0  0  0  0
 23 17  1  0  0  0  0
 25 26  1  1  0  0  0
 25 28  1  0  0  0  0
 27  2  1  6  0  0  0
 27 30  1  0  0  0  0
 28 29  1  0  0  0  0
 28 32  1  6  0  0  0
 30 31  1  1  0  0  0
 30 34  1  0  0  0  0
 32 33  2  0  0  0  0
 34 35  1  6  0  0  0
M  END
>  <CHROM.1>
157.42082525,-94.70465315,158.67385345,-166.15175148,-57.92711239,127.97866065
-175.32915549,-84.17677978,-50.61370050,-62.04704916,42.58642702,-158.11942691
51.58139319,9.00164554,11.55963267,8.70903652,2.75301681,-0.17940520,-2.67649062

>  <Name>
2f4t_lig

>  <RI>
0

>  <Rbt.Current_Directory>
/home/itssahil/PROJECTS/Mol_Feturizer/New_Systems/rnas/2f4t

>  <Rbt.Executable>
rbdock ($Id: //depot/dev/client3/rdock/2013.1/src/exe/rbdock.cxx#4 $)

>  <Rbt.Library>
libRbt.so (2013.1, Build901 2013/11/27)

>  <Rbt.Parameter_File>
/export/apps/rDock/src/rDock_2013.1_src/data/scripts/dock_solv.prm

>  <Rbt.Receptor>
prm/blind_docking_80.prm

>  <SCORE>
3.02393

>  <SCORE.INTER>
3.0372

>  <SCORE.INTER.CONST>
1

>  <SCORE.INTER.POLAR>
0

>  <SCORE.INTER.ROT>
13

>  <SCORE.INTER.SOLV>
14.1768

>  <SCORE.INTER.VDW>
-14.9675

>  <SCORE.INTER.norm>
0.0867772

>  <SCORE.INTRA>
-2.02456

>  <SCORE.INTRA.DIHEDRAL>
-9.49214

>  <SCORE.INTRA.DIHEDRAL.0>
23.8882

>  <SCORE.INTRA.POLAR>
0

>  <SCORE.INTRA.POLAR.0>
0

>  <SCORE.INTRA.REPUL>
0.015831

>  <SCORE.INTRA.REPUL.0>
0

>  <SCORE.INTRA.SOLV>
4.66437

>  <SCORE.INTRA.SOLV.lig_0>
-97.6888

>  <SCORE.INTRA.VDW>
0.310169

>  <SCORE.INTRA.VDW.0>
-3.9206

>  <SCORE.INTRA.norm>
-0.0578445

>  <SCORE.RESTR>
2.01128

>  <SCORE.RESTR.CAVITY>
2.01128

>  <SCORE.RESTR.norm>
0.0574653

>  <SCORE.SYSTEM>
0

>  <SCORE.SYSTEM.CONST>
0

>  <SCORE.SYSTEM.DIHEDRAL>
0

>  <SCORE.SYSTEM.SOLV>
0

>  <SCORE.SYSTEM.norm>
0

>  <SCORE.heavy>
35

>  <SCORE.norm>
0.086398

>  <RMSD>
29.477

$$$$
2f4t_lig
 OpenBabel11021811433D
libRbt.so/2013.1/901 2013/11/27
 35 36  0  0  0  0  0  0  0  0999 V2000
    5.2598   12.5605    9.0532 C   0  0  2  0  0  0  0  0  0  0  0  0
    6.1531   12.5493   10.2147 O   0  0  0  0  0  0  0  0  0  0  0  0
   10.0457   12.9051    8.3768 C   0  0  2  0  0  0  0  0  0  0  0  0
   11.4610   13.2606    8.1941 N   0  0  0  0  0  0  0  0  0  0  0  0
    4.0309   11.6889    9.4530 C   0  0  2  0  0  0  0  0  0  0  0  0
    3.4189   12.1938   10.6597 N   0  0  0  0  0  0  0  0  0  0  0  0
    9.2407   14.1854    8.8087 C   0  0  0  0  0  0  0  0  0  0  0  0
   12.1648   13.7037    9.7521 C   0  0  0  0  0  0  0  0  0  0  0  0
   13.4523   13.9196    8.9880 C   0  0  1  0  0  0  0  0  0  0  0  0
   13.9253   15.3465    9.2744 C   0  0  0  0  0  0  0  0  0  0  0  0
   12.9451   16.4644    8.8810 C   0  0  0  0  0  0  0  0  0  0  0  0
   12.7664   16.4323    7.4263 N   0  0  0  0  0  0  0  0  0  0  0  0
   14.4668   13.0752    9.4655 O   0  0  0  0  0  0  0  0  0  0  0  0
   11.1580    9.3721    9.2172 C   0  0  0  0  0  0  0  0  0  0  0  0
   11.8031    8.9993    7.8912 C   0  0  0  0  0  0  0  0  0  0  0  0
    4.4674   10.1964    9.6384 C   0  0  1  0  0  0  0  0  0  0  0  0
   10.9796    9.3510    6.7135 N   0  0  0  0  0  0  0  0  0  0  0  0
    3.3647    9.3867    9.9972 O   0  0  0  0  0  0  0  0  0  0  0  0
    7.7525   13.8790    9.0270 C   0  0  2  0  0  0  0  0  0  0  0  0
    7.0352   15.0719    9.4659 N   0  0  0  0  0  0  0  0  0  0  0  0
    9.8246    7.1627    6.3835 C   0  0  0  0  0  0  0  0  0  0  0  0
   10.7195    6.0280    6.9782 N   0  0  0  0  0  0  0  0  0  0  0  0
   10.6337    8.3082    5.7064 C   0  0  0  0  0  0  0  0  0  0  0  0
   11.7933   13.7693   10.7505 O   0  0  0  0  0  0  0  0  0  0  0  0
    5.0876    9.7158    8.3223 C   0  0  2  0  0  0  0  0  0  0  0  0
    5.4952    8.3606    8.4179 O   0  0  0  0  0  0  0  0  0  0  0  0
    7.5844   12.7944   10.0615 C   0  0  2  0  0  0  0  0  0  0  0  0
    6.2971   10.6189    7.9450 C   0  0  2  0  0  0  0  0  0  0  0  0
    5.9003   12.0021    7.8402 O   0  0  0  0  0  0  0  0  0  0  0  0
    8.3697   11.4866    9.6166 C   0  0  2  0  0  0  0  0  0  0  0  0
    8.1799   10.4597   10.6357 O   0  0  0  0  0  0  0  0  0  0  0  0
    6.9143   10.2106    6.6607 C   0  0  0  0  0  0  0  0  0  0  0  0
    8.2005    9.8550    6.8725 N   0  0  0  0  0  0  0  0  0  0  0  0
    9.8915   11.8354    9.4691 C   0  0  1  0  0  0  0  0  0  0  0  0
   10.6127   10.7012    9.1067 O   0  0  0  0  0  0  0  0  0  0  0  0
  1  2  1  1  0  0  0
  1  5  1  0  0  0  0
  1 29  1  0  0  0  0
  3  4  1  1  0  0  0
  3  7  1  0  0  0  0
  3 34  1  0  0  0  0
  5  6  1  1  0  0  0
  5 16  1  0  0  0  0
  7 19  1  0  0  0  0
  8  4  1  0  0  0  0
  8 24  2  0  0  0  0
  9  8  1  1  0  0  0
  9 10  1  0  0  0  0
  9 13  1  0  0  0  0
 10 11  1  0  0  0  0
 11 12  1  0  0  0  0
 14 15  1  0  0  0  0
 14 35  1  0  0  0  0
 15 17  1  0  0  0  0
 16 18  1  6  0  0  0
 16 25  1  0  0  0  0
 19 20  1  1  0  0  0
 19 27  1  0  0  0  0
 21 22  1  0  0  0  0
 21 23  1  0  0  0  0
 23 17  1  0  0  0  0
 25 26  1  1  0  0  0
 25 28  1  0  0  0  0
 27  2  1  6  0  0  0
 27 30  1  0  0  0  0
 28 29  1  0  0  0  0
 28 32  1  6  0  0  0
 30 31  1  1  0  0  0
 30 34  1  0  0  0  0
 32 33  2  0  0  0  0
 34 35  1  6  0  0  0
M  END
>  <CHROM.1>
155.85278165,66.62759457,124.85629660,-59.20178991,-63.58864746,-44.57403634
171.32034903,-125.61210724,-88.71572415,60.33107477,38.97485794,-119.05432657
179.01541413,8.89870804,11.62870440,8.74049117,2.72272337,-0.16526689,-2.80947908

>  <Name>
2f4t_lig

>  <RI>
0

>  <Rbt.Current_Directory>
/home/itssahil/PROJECTS/Mol_Feturizer/New_Systems/rnas/2f4t

>  <Rbt.Executable>
rbdock ($Id: //depot/dev/client3/rdock/2013.1/src/exe/rbdock.cxx#4 $)

>  <Rbt.Library>
libRbt.so (2013.1, Build901 2013/11/27)

>  <Rbt.Parameter_File>
/export/apps/rDock/src/rDock_2013.1_src/data/scripts/dock_solv.prm

>  <Rbt.Receptor>
prm/blind_docking_40.prm

>  <SCORE>
-0.919008

>  <SCORE.INTER>
0.10922

>  <SCORE.INTER.CONST>
1

>  <SCORE.INTER.POLAR>
-0.599353

>  <SCORE.INTER.ROT>
13

>  <SCORE.INTER.SOLV>
10.9009

>  <SCORE.INTER.VDW>
-13.8296

>  <SCORE.INTER.norm>
0.00312057

>  <SCORE.INTRA>
-2.00443

>  <SCORE.INTRA.DIHEDRAL>
-11.1226

>  <SCORE.INTRA.DIHEDRAL.0>
23.8882

>  <SCORE.INTRA.POLAR>
0

>  <SCORE.INTRA.POLAR.0>
0

>  <SCORE.INTRA.REPUL>
0

>  <SCORE.INTRA.REPUL.0>
0

>  <SCORE.INTRA.SOLV>
7.43021

>  <SCORE.INTRA.SOLV.lig_0>
-97.6888

>  <SCORE.INTRA.VDW>
-0.15823

>  <SCORE.INTRA.VDW.0>
-3.9206

>  <SCORE.INTRA.norm>
-0.0572695

>  <SCORE.RESTR>
0.976205

>  <SCORE.RESTR.CAVITY>
0.976205

>  <SCORE.RESTR.norm>
0.0278916

>  <SCORE.SYSTEM>
0

>  <SCORE.SYSTEM.CONST>
0

>  <SCORE.SYSTEM.DIHEDRAL>
0

>  <SCORE.SYSTEM.SOLV>
0

>  <SCORE.SYSTEM.norm>
0

>  <SCORE.heavy>
35

>  <SCORE.norm>
-0.0262574

>  <RMSD>
29.488

$$$$
2f4t_lig
 OpenBabel11021811433D
libRbt.so/2013.1/901 2013/11/27
 35 36  0  0  0  0  0  0  0  0999 V2000
    5.9122    9.4431    7.8507 C   0  0  2  0  0  0  0  0  0  0  0  0
    6.1318   10.7457    8.4850 O   0  0  0  0  0  0  0  0  0  0  0  0
    9.4564   13.2904    7.4225 C   0  0  2  0  0  0  0  0  0  0  0  0
   10.7494   13.9852    7.5124 N   0  0  0  0  0  0  0  0  0  0  0  0
    4.7901    9.6686    6.7927 C   0  0  2  0  0  0  0  0  0  0  0  0
    5.1663   10.7090    5.8645 N   0  0  0  0  0  0  0  0  0  0  0  0
    8.6366   13.5471    8.7399 C   0  0  0  0  0  0  0  0  0  0  0  0
   11.7272   13.2513    8.7867 C   0  0  0  0  0  0  0  0  0  0  0  0
   12.7833   14.2682    8.4141 C   0  0  1  0  0  0  0  0  0  0  0  0
   12.3485   15.6175    8.9906 C   0  0  0  0  0  0  0  0  0  0  0  0
   11.9328   15.6060   10.4712 C   0  0  0  0  0  0  0  0  0  0  0  0
   10.6050   14.9935   10.5743 N   0  0  0  0  0  0  0  0  0  0  0  0
   14.0095   13.9656    9.0265 O   0  0  0  0  0  0  0  0  0  0  0  0
   11.5426   11.5322    5.2232 C   0  0  0  0  0  0  0  0  0  0  0  0
   12.4440   10.3662    5.5988 C   0  0  0  0  0  0  0  0  0  0  0  0
    3.4424   10.0260    7.5057 C   0  0  1  0  0  0  0  0  0  0  0  0
   12.7306   10.2834    7.0478 N   0  0  0  0  0  0  0  0  0  0  0  0
    2.4086   10.2301    6.5623 O   0  0  0  0  0  0  0  0  0  0  0  0
    7.2756   12.8376    8.7146 C   0  0  2  0  0  0  0  0  0  0  0  0
    6.5517   13.0571    9.9628 N   0  0  0  0  0  0  0  0  0  0  0  0
   11.7389    7.9950    7.1539 C   0  0  0  0  0  0  0  0  0  0  0  0
   12.0710    7.4240    5.7377 N   0  0  0  0  0  0  0  0  0  0  0  0
   12.8306    8.9539    7.7141 C   0  0  0  0  0  0  0  0  0  0  0  0
   11.5803   12.4499    9.4762 O   0  0  0  0  0  0  0  0  0  0  0  0
    3.0893    8.8781    8.4572 C   0  0  2  0  0  0  0  0  0  0  0  0
    1.8666    9.1333    9.1294 O   0  0  0  0  0  0  0  0  0  0  0  0
    7.4585   11.3551    8.5052 C   0  0  2  0  0  0  0  0  0  0  0  0
    4.2382    8.6692    9.4855 C   0  0  2  0  0  0  0  0  0  0  0  0
    5.4904    8.4051    8.8193 O   0  0  0  0  0  0  0  0  0  0  0  0
    8.2592   11.0868    7.1592 C   0  0  2  0  0  0  0  0  0  0  0  0
    8.4115    9.6458    6.9869 O   0  0  0  0  0  0  0  0  0  0  0  0
    3.9555    7.5473   10.4120 C   0  0  0  0  0  0  0  0  0  0  0  0
    3.2298    7.9996   11.4582 N   0  0  0  0  0  0  0  0  0  0  0  0
    9.6640   11.7766    7.2595 C   0  0  1  0  0  0  0  0  0  0  0  0
   10.4026   11.5357    6.1044 O   0  0  0  0  0  0  0  0  0  0  0  0
  1  2  1  1  0  0  0
  1  5  1  0  0  0  0
  1 29  1  0  0  0  0
  3  4  1  1  0  0  0
  3  7  1  0  0  0  0
  3 34  1  0  0  0  0
  5  6  1  6  0  0  0
  5 16  1  0  0  0  0
  7 19  1  0  0  0  0
  8  4  1  0  0  0  0
  8 24  2  0  0  0  0
  9  8  1  1  0  0  0
  9 10  1  0  0  0  0
  9 13  1  0  0  0  0
 10 11  1  0  0  0  0
 11 12  1  0  0  0  0
 14 15  1  0  0  0  0
 14 35  1  0  0  0  0
 15 17  1  0  0  0  0
 16 18  1  6  0  0  0
 16 25  1  0  0  0  0
 19 20  1  1  0  0  0
 19 27  1  0  0  0  0
 21 22  1  0  0  0  0
 21 23  1  0  0  0  0
 23 17  1  0  0  0  0
 25 26  1  1  0  0  0
 25 28  1  0  0  0  0
 27  2  1  6  0  0  0
 27 30  1  0  0  0  0
 28 29  1  0  0  0  0
 28 32  1  1  0  0  0
 30 31  1  1  0  0  0
 30 34  1  0  0  0  0
 32 33  2  0  0  0  0
 34 35  1  6  0  0  0
M  END
>  <CHROM.1>
-124.11336036,66.24388001,75.96805521,49.21388906,-75.01107358,-48.68642515
81.14853814,143.02649488,76.40802201,-39.84611643,158.38439721,-86.43618625
67.98013042,8.42708257,11.13998082,8.09198826,-2.80602413,0.24695443,0.48255260

>  <Name>
2f4t_lig

>  <RI>
0

>  <Rbt.Current_Directory>
/home/itssahil/PROJECTS/Mol_Feturizer/New_Systems/rnas/2f4t

>  <Rbt.Executable>
rbdock ($Id: //depot/dev/client3/rdock/2013.1/src/exe/rbdock.cxx#4 $)

>  <Rbt.Library>
libRbt.so (2013.1, Build901 2013/11/27)

>  <Rbt.Parameter_File>
/export/apps/rDock/src/rDock_2013.1_src/data/scripts/dock_solv.prm

>  <Rbt.Receptor>
prm/blind_docking_40.prm

>  <SCORE>
4.77611

>  <SCORE.INTER>
-2.07354

>  <SCORE.INTER.CONST>
1

>  <SCORE.INTER.POLAR>
-1.23954

>  <SCORE.INTER.ROT>
13

>  <SCORE.INTER.SOLV>
17.5098

>  <SCORE.INTER.VDW>
-15.3538

>  <SCORE.INTER.norm>
-0.0592441

>  <SCORE.INTRA>
4.90577

>  <SCORE.INTRA.DIHEDRAL>
-6.16068

>  <SCORE.INTRA.DIHEDRAL.0>
23.8882

>  <SCORE.INTRA.POLAR>
0

>  <SCORE.INTRA.POLAR.0>
0

>  <SCORE.INTRA.REPUL>
0

>  <SCORE.INTRA.REPUL.0>
0

>  <SCORE.INTRA.SOLV>
11.1089

>  <SCORE.INTRA.SOLV.lig_0>
-97.6888

>  <SCORE.INTRA.VDW>
2.43168

>  <SCORE.INTRA.VDW.0>
-3.9206

>  <SCORE.INTRA.norm>
0.140165

>  <SCORE.RESTR>
1.94388

>  <SCORE.RESTR.CAVITY>
1.94388

>  <SCORE.RESTR.norm>
0.0555395

>  <SCORE.SYSTEM>
0

>  <SCORE.SYSTEM.CONST>
0

>  <SCORE.SYSTEM.DIHEDRAL>
0

>  <SCORE.SYSTEM.SOLV>
0

>  <SCORE.SYSTEM.norm>
0

>  <SCORE.heavy>
35

>  <SCORE.norm>
0.13646

>  <RMSD>
29.504

$$$$
2f4t_lig
 OpenBabel11021811433D
libRbt.so/2013.1/901 2013/11/27
 35 36  0  0  0  0  0  0  0  0999 V2000
   10.9994   14.6552   10.2620 C   0  0  2  0  0  0  0  0  0  0  0  0
   10.1618   14.6249    9.0600 O   0  0  0  0  0  0  0  0  0  0  0  0
    6.9308   12.0278   10.2738 C   0  0  2  0  0  0  0  0  0  0  0  0
    5.5859   11.4380   10.3514 N   0  0  0  0  0  0  0  0  0  0  0  0
   12.4095   15.1192    9.7866 C   0  0  2  0  0  0  0  0  0  0  0  0
   12.3253   16.3904    9.1066 N   0  0  0  0  0  0  0  0  0  0  0  0
    6.8265   13.5851   10.4678 C   0  0  0  0  0  0  0  0  0  0  0  0
    4.8424   11.4496    8.7496 C   0  0  0  0  0  0  0  0  0  0  0  0
    3.6526   10.7939    9.4150 C   0  0  1  0  0  0  0  0  0  0  0  0
    2.6062   10.5273    8.3305 C   0  0  0  0  0  0  0  0  0  0  0  0
    3.0285    9.5450    7.2251 C   0  0  0  0  0  0  0  0  0  0  0  0
    3.1154    8.2025    7.8075 N   0  0  0  0  0  0  0  0  0  0  0  0
    3.9978    9.5361    9.9336 O   0  0  0  0  0  0  0  0  0  0  0  0
    7.6077    9.1111    8.0107 C   0  0  0  0  0  0  0  0  0  0  0  0
    8.3908    9.2500    6.7142 C   0  0  0  0  0  0  0  0  0  0  0  0
   13.0461   14.0350    8.8530 C   0  0  1  0  0  0  0  0  0  0  0  0
    9.8514    9.3711    6.9159 N   0  0  0  0  0  0  0  0  0  0  0  0
   14.3296   14.4349    8.4138 O   0  0  0  0  0  0  0  0  0  0  0  0
    8.2003   14.2653   10.3866 C   0  0  2  0  0  0  0  0  0  0  0  0
    8.0731   15.7123   10.5287 N   0  0  0  0  0  0  0  0  0  0  0  0
   12.1825    8.4972    6.7327 C   0  0  0  0  0  0  0  0  0  0  0  0
   12.4182    9.0953    5.3084 N   0  0  0  0  0  0  0  0  0  0  0  0
   10.6937    8.1465    7.0259 C   0  0  0  0  0  0  0  0  0  0  0  0
    5.1490   11.7843    7.7837 O   0  0  0  0  0  0  0  0  0  0  0  0
   13.1262   12.7209    9.6368 C   0  0  2  0  0  0  0  0  0  0  0  0
   13.7079   11.6944    8.8494 O   0  0  0  0  0  0  0  0  0  0  0  0
    8.8638   13.9561    9.0679 C   0  0  2  0  0  0  0  0  0  0  0  0
   11.7056   12.2989   10.1113 C   0  0  2  0  0  0  0  0  0  0  0  0
   11.0990   13.3306   10.9170 O   0  0  0  0  0  0  0  0  0  0  0  0
    9.0010   12.3843    8.8789 C   0  0  2  0  0  0  0  0  0  0  0  0
    9.6509   12.1238    7.5987 O   0  0  0  0  0  0  0  0  0  0  0  0
   11.7349   11.0450   10.9011 C   0  0  0  0  0  0  0  0  0  0  0  0
   10.4903   10.7639   11.3455 N   0  0  0  0  0  0  0  0  0  0  0  0
    7.5696   11.7443    8.9053 C   0  0  1  0  0  0  0  0  0  0  0  0
    7.6537   10.3681    8.7137 O   0  0  0  0  0  0  0  0  0  0  0  0
  1  2  1  6  0  0  0
  1  5  1  0  0  0  0
  1 29  1  0  0  0  0
  3  4  1  6  0  0  0
  3  7  1  0  0  0  0
  3 34  1  0  0  0  0
  5  6  1  6  0  0  0
  5 16  1  0  0  0  0
  7 19  1  0  0  0  0
  8  4  1  0  0  0  0
  8 24  2  0  0  0  0
  9  8  1  6  0  0  0
  9 10  1  0  0  0  0
  9 13  1  0  0  0  0
 10 11  1  0  0  0  0
 11 12  1  0  0  0  0
 14 15  1  0  0  0  0
 14 35  1  0  0  0  0
 15 17  1  0  0  0  0
 16 18  1  1  0  0  0
 16 25  1  0  0  0  0
 19 20  1  6  0  0  0
 19 27  1  0  0  0  0
 21 22  1  0  0  0  0
 21 23  1  0  0  0  0
 23 17  1  0  0  0  0
 25 26  1  6  0  0  0
 25 28  1  0  0  0  0
 27  2  1  1  0  0  0
 27 30  1  0  0  0  0
 28 29  1  0  0  0  0
 28 32  1  1  0  0  0
 30 31  1  6  0  0  0
 30 34  1  0  0  0  0
 32 33  2  0  0  0  0
 34 35  1  1  0  0  0
M  END
>  <CHROM.1>
166.25072555,87.87956024,-178.63549619,63.32782204,69.52611016,69.99184537
47.62409219,86.59665858,-59.73484507,160.22669512,40.20695594,176.80519100
141.51631291,8.90002009,11.81727883,8.90586769,0.37011035,0.12176667,0.49712208

>  <Name>
2f4t_lig

>  <RI>
0

>  <Rbt.Current_Directory>
/home/itssahil/PROJECTS/Mol_Feturizer/New_Systems/rnas/2f4t

>  <Rbt.Executable>
rbdock ($Id: //depot/dev/client3/rdock/2013.1/src/exe/rbdock.cxx#4 $)

>  <Rbt.Library>
libRbt.so (2013.1, Build901 2013/11/27)

>  <Rbt.Parameter_File>
/export/apps/rDock/src/rDock_2013.1_src/data/scripts/dock_solv.prm

>  <Rbt.Receptor>
prm/blind_docking_40.prm

>  <SCORE>
-3.21671

>  <SCORE.INTER>
-3.34806

>  <SCORE.INTER.CONST>
1

>  <SCORE.INTER.POLAR>
-0.882216

>  <SCORE.INTER.ROT>
13

>  <SCORE.INTER.SOLV>
9.24263

>  <SCORE.INTER.VDW>
-14.6389

>  <SCORE.INTER.norm>
-0.0956589

>  <SCORE.INTRA>
-0.673128

>  <SCORE.INTRA.DIHEDRAL>
-10.6295

>  <SCORE.INTRA.DIHEDRAL.0>
23.8882

>  <SCORE.INTRA.POLAR>
0

>  <SCORE.INTRA.POLAR.0>
0

>  <SCORE.INTRA.REPUL>
0

>  <SCORE.INTRA.REPUL.0>
0

>  <SCORE.INTRA.SOLV>
6.85575

>  <SCORE.INTRA.SOLV.lig_0>
-97.6888

>  <SCORE.INTRA.VDW>
1.21373

>  <SCORE.INTRA.VDW.0>
-3.9206

>  <SCORE.INTRA.norm>
-0.0192322

>  <SCORE.RESTR>
0.804474

>  <SCORE.RESTR.CAVITY>
0.804474

>  <SCORE.RESTR.norm>
0.022985

>  <SCORE.SYSTEM>
0

>  <SCORE.SYSTEM.CONST>
0

>  <SCORE.SYSTEM.DIHEDRAL>
0

>  <SCORE.SYSTEM.SOLV>
0

>  <SCORE.SYSTEM.norm>
0

>  <SCORE.heavy>
35

>  <SCORE.norm>
-0.0919061

>  <RMSD>
29.506

$$$$
2f4t_lig
 OpenBabel11021811433D
libRbt.so/2013.1/901 2013/11/27
 35 36  0  0  0  0  0  0  0  0999 V2000
    6.9282    9.8902    8.8536 C   0  0  2  0  0  0  0  0  0  0  0  0
    7.2375   11.3132    9.0173 O   0  0  0  0  0  0  0  0  0  0  0  0
   11.0461   13.3481    9.1213 C   0  0  2  0  0  0  0  0  0  0  0  0
   12.3194   13.8730    9.6368 N   0  0  0  0  0  0  0  0  0  0  0  0
    6.5707    9.7028    7.3480 C   0  0  2  0  0  0  0  0  0  0  0  0
    7.6511   10.1615    6.5068 N   0  0  0  0  0  0  0  0  0  0  0  0
    9.8800   13.7752   10.0863 C   0  0  0  0  0  0  0  0  0  0  0  0
   13.2832   14.5047    8.2986 C   0  0  0  0  0  0  0  0  0  0  0  0
   14.3146   14.8556    9.3479 C   0  0  1  0  0  0  0  0  0  0  0  0
   15.5255   13.9463    9.1273 C   0  0  0  0  0  0  0  0  0  0  0  0
   15.5810   12.6863   10.0074 C   0  0  0  0  0  0  0  0  0  0  0  0
   14.6042   11.7206    9.4951 N   0  0  0  0  0  0  0  0  0  0  0  0
   14.7821   16.1675    9.1730 O   0  0  0  0  0  0  0  0  0  0  0  0
   13.0839   10.5424    7.5888 C   0  0  0  0  0  0  0  0  0  0  0  0
   12.6718    9.1037    7.8606 C   0  0  0  0  0  0  0  0  0  0  0  0
    5.2459   10.4667    7.0106 C   0  0  1  0  0  0  0  0  0  0  0  0
   11.5548    8.6379    7.0097 N   0  0  0  0  0  0  0  0  0  0  0  0
    4.9008   10.3053    5.6485 O   0  0  0  0  0  0  0  0  0  0  0  0
    8.5197   13.2478    9.6088 C   0  0  2  0  0  0  0  0  0  0  0  0
    7.4608   13.6221   10.5409 N   0  0  0  0  0  0  0  0  0  0  0  0
   10.0641    6.9550    5.9247 C   0  0  0  0  0  0  0  0  0  0  0  0
    9.7309    5.4483    5.6785 N   0  0  0  0  0  0  0  0  0  0  0  0
   11.2616    7.1811    6.8943 C   0  0  0  0  0  0  0  0  0  0  0  0
   13.1430   14.5768    7.2430 O   0  0  0  0  0  0  0  0  0  0  0  0
    4.1387    9.9217    7.9187 C   0  0  2  0  0  0  0  0  0  0  0  0
    2.9026   10.5653    7.6550 O   0  0  0  0  0  0  0  0  0  0  0  0
    8.5535   11.7455    9.4789 C   0  0  2  0  0  0  0  0  0  0  0  0
    4.5374   10.1076    9.4112 C   0  0  2  0  0  0  0  0  0  0  0  0
    5.7922    9.4562    9.6990 O   0  0  0  0  0  0  0  0  0  0  0  0
    9.7098   11.3079    8.4806 C   0  0  2  0  0  0  0  0  0  0  0  0
    9.7085    9.8526    8.3753 O   0  0  0  0  0  0  0  0  0  0  0  0
    3.5082    9.5679   10.3312 C   0  0  0  0  0  0  0  0  0  0  0  0
    2.9576   10.5814   11.0349 N   0  0  0  0  0  0  0  0  0  0  0  0
   11.0832   11.8139    9.0435 C   0  0  1  0  0  0  0  0  0  0  0  0
   12.1220   11.4212    8.2041 O   0  0  0  0  0  0  0  0  0  0  0  0
  1  2  1  6  0  0  0
  1  5  1  0  0  0  0
  1 29  1  0  0  0  0
  3  4  1  1  0  0  0
  3  7  1  0  0  0  0
  3 34  1  0  0  0  0
  5  6  1  6  0  0  0
  5 16  1  0  0  0  0
  7 19  1  0  0  0  0
  8  4  1  0  0  0  0
  8 24  2  0  0  0  0
  9  8  1  6  0  0  0
  9 10  1  0  0  0  0
  9 13  1  0  0  0  0
 10 11  1  0  0  0  0
 11 12  1  0  0  0  0
 14 15  1  0  0  0  0
 14 35  1  0  0  0  0
 15 17  1  0  0  0  0
 16 18  1  6  0  0  0
 16 25  1  0  0  0  0
 19 20  1  1  0  0  0
 19 27  1  0  0  0  0
 21 22  1  0  0  0  0
 21 23  1  0  0  0  0
 23 17  1  0  0  0  0
 25 26  1  1  0  0  0
 25 28  1  0  0  0  0
 27  2  1  6  0  0  0
 27 30  1  0  0  0  0
 28 29  1  0  0  0  0
 28 32  1  1  0  0  0
 30 31  1  1  0  0  0
 30 34  1  0  0  0  0
 32 33  2  0  0  0  0
 34 35  1  6  0  0  0
M  END
>  <CHROM.1>
-119.57680332,-138.09048848,111.58020223,-96.74876236,74.95531822,77.08493149
16.20569166,164.29610345,176.85220857,-178.92596584,-177.03618270,-114.32334618
164.98087998,9.49989332,11.21031690,8.45682938,2.78240532,-0.12269456,-2.67579728

>  <Name>
2f4t_lig

>  <RI>
0

>  <Rbt.Current_Directory>
/home/itssahil/PROJECTS/Mol_Feturizer/New_Systems/rnas/2f4t

>  <Rbt.Executable>
rbdock ($Id: //depot/dev/client3/rdock/2013.1/src/exe/rbdock.cxx#4 $)

>  <Rbt.Library>
libRbt.so (2013.1, Build901 2013/11/27)

>  <Rbt.Parameter_File>
/export/apps/rDock/src/rDock_2013.1_src/data/scripts/dock_solv.prm

>  <Rbt.Receptor>
prm/blind_docking_80.prm

>  <SCORE>
7.06793

>  <SCORE.INTER>
0.493913

>  <SCORE.INTER.CONST>
1

>  <SCORE.INTER.POLAR>
0

>  <SCORE.INTER.ROT>
13

>  <SCORE.INTER.SOLV>
19.7108

>  <SCORE.INTER.VDW>
-18.5077

>  <SCORE.INTER.norm>
0.0141118

>  <SCORE.INTRA>
3.82621

>  <SCORE.INTRA.DIHEDRAL>
0.0457055

>  <SCORE.INTRA.DIHEDRAL.0>
23.8882

>  <SCORE.INTRA.POLAR>
0

>  <SCORE.INTRA.POLAR.0>
0

>  <SCORE.INTRA.REPUL>
0.00469772

>  <SCORE.INTRA.REPUL.0>
0

>  <SCORE.INTRA.SOLV>
9.53561

>  <SCORE.INTRA.SOLV.lig_0>
-97.6888

>  <SCORE.INTRA.VDW>
-0.987935

>  <SCORE.INTRA.VDW.0>
-3.9206

>  <SCORE.INTRA.norm>
0.10932

>  <SCORE.RESTR>
2.7478

>  <SCORE.RESTR.CAVITY>
2.7478

>  <SCORE.RESTR.norm>
0.0785086

>  <SCORE.SYSTEM>
0

>  <SCORE.SYSTEM.CONST>
0

>  <SCORE.SYSTEM.DIHEDRAL>
0

>  <SCORE.SYSTEM.SOLV>
0

>  <SCORE.SYSTEM.norm>
0

>  <SCORE.heavy>
35

>  <SCORE.norm>
0.201941

>  <RMSD>
29.507

$$$$
2f4t_lig
 OpenBabel11021811433D
libRbt.so/2013.1/901 2013/11/27
 35 36  0  0  0  0  0  0  0  0999 V2000
   12.3582   10.5787    6.2954 C   0  0  2  0  0  0  0  0  0  0  0  0
   11.1110   10.7571    5.5471 O   0  0  0  0  0  0  0  0  0  0  0  0
    8.1804   11.9299    8.4956 C   0  0  2  0  0  0  0  0  0  0  0  0
    7.0941   12.6811    9.1423 N   0  0  0  0  0  0  0  0  0  0  0  0
   12.8844    9.1619    5.9142 C   0  0  2  0  0  0  0  0  0  0  0  0
   13.0451    9.0458    4.4838 N   0  0  0  0  0  0  0  0  0  0  0  0
    9.3007   12.9321    8.0330 C   0  0  0  0  0  0  0  0  0  0  0  0
    6.4589   11.7492   10.5013 C   0  0  0  0  0  0  0  0  0  0  0  0
    5.5141   12.9107   10.7173 C   0  0  1  0  0  0  0  0  0  0  0  0
    4.1651   12.5285   10.1042 C   0  0  0  0  0  0  0  0  0  0  0  0
    3.5735   11.1904   10.5782 C   0  0  0  0  0  0  0  0  0  0  0  0
    2.9876   10.5076    9.4209 N   0  0  0  0  0  0  0  0  0  0  0  0
    5.2715   13.1124   12.0850 O   0  0  0  0  0  0  0  0  0  0  0  0
    5.5225    9.8028    8.4025 C   0  0  0  0  0  0  0  0  0  0  0  0
    4.7937    8.7698    7.5567 C   0  0  0  0  0  0  0  0  0  0  0  0
   11.9065    8.0626    6.4508 C   0  0  1  0  0  0  0  0  0  0  0  0
    3.8278    9.3605    6.6045 N   0  0  0  0  0  0  0  0  0  0  0  0
   12.3688    6.7677    6.1192 O   0  0  0  0  0  0  0  0  0  0  0  0
   10.4633   12.2098    7.3380 C   0  0  2  0  0  0  0  0  0  0  0  0
   11.4697   13.1637    6.8823 N   0  0  0  0  0  0  0  0  0  0  0  0
    3.3455   10.6801    4.5411 C   0  0  0  0  0  0  0  0  0  0  0  0
    1.8035   10.7511    4.7844 N   0  0  0  0  0  0  0  0  0  0  0  0
    4.1829   10.5968    5.8516 C   0  0  0  0  0  0  0  0  0  0  0  0
    6.6847   10.7972   10.9277 O   0  0  0  0  0  0  0  0  0  0  0  0
   11.7955    8.2262    7.9702 C   0  0  2  0  0  0  0  0  0  0  0  0
   10.9300    7.2486    8.5244 O   0  0  0  0  0  0  0  0  0  0  0  0
    9.9610   11.4206    6.1549 C   0  0  2  0  0  0  0  0  0  0  0  0
   11.2868    9.6559    8.3139 C   0  0  2  0  0  0  0  0  0  0  0  0
   12.1575   10.6644    7.7603 O   0  0  0  0  0  0  0  0  0  0  0  0
    8.8505   10.3835    6.6199 C   0  0  2  0  0  0  0  0  0  0  0  0
    8.3935    9.6358    5.4532 O   0  0  0  0  0  0  0  0  0  0  0  0
   11.1904    9.8729    9.7770 C   0  0  0  0  0  0  0  0  0  0  0  0
    9.8933   10.0201   10.1256 N   0  0  0  0  0  0  0  0  0  0  0  0
    7.6586   11.1729    7.2644 C   0  0  1  0  0  0  0  0  0  0  0  0
    6.6543   10.2927    7.6575 O   0  0  0  0  0  0  0  0  0  0  0  0
  1  2  1  6  0  0  0
  1  5  1  0  0  0  0
  1 29  1  0  0  0  0
  3  4  1  6  0  0  0
  3  7  1  0  0  0  0
  3 34  1  0  0  0  0
  5  6  1  6  0  0  0
  5 16  1  0  0  0  0
  7 19  1  0  0  0  0
  8  4  1  0  0  0  0
  8 24  2  0  0  0  0
  9  8  1  1  0  0  0
  9 10  1  0  0  0  0
  9 13  1  0  0  0  0
 10 11  1  0  0  0  0
 11 12  1  0  0  0  0
 14 15  1  0  0  0  0
 14 35  1  0  0  0  0
 15 17  1  0  0  0  0
 16 18  1  1  0  0  0
 16 25  1  0  0  0  0
 19 20  1  6  0  0  0
 19 27  1  0  0  0  0
 21 22  1  0  0  0  0
 21 23  1  0  0  0  0
 23 17  1  0  0  0  0
 25 26  1  6  0  0  0
 25 28  1  0  0  0  0
 27  2  1  1  0  0  0
 27 30  1  0  0  0  0
 28 29  1  0  0  0  0
 28 32  1  1  0  0  0
 30 31  1  6  0  0  0
 30 34  1  0  0  0  0
 32 33  2  0  0  0  0
 34 35  1  1  0  0  0
M  END
>  <CHROM.1>
140.87438287,-142.78365776,99.79865620,53.23973614,-139.28357904,-84.48734392
155.30297094,41.23536633,61.30161323,155.97220015,18.66269493,-113.33414964
35.65556352,8.19336622,10.50923407,7.78332449,0.31024730,0.09794325,-2.02492917

>  <Name>
2f4t_lig

>  <RI>
0

>  <Rbt.Current_Directory>
/home/itssahil/PROJECTS/Mol_Feturizer/New_Systems/rnas/2f4t

>  <Rbt.Executable>
rbdock ($Id: //depot/dev/client3/rdock/2013.1/src/exe/rbdock.cxx#4 $)

>  <Rbt.Library>
libRbt.so (2013.1, Build901 2013/11/27)

>  <Rbt.Parameter_File>
/export/apps/rDock/src/rDock_2013.1_src/data/scripts/dock_solv.prm

>  <Rbt.Receptor>
prm/blind_docking_20.prm

>  <SCORE>
14.7671

>  <SCORE.INTER>
-5.61156

>  <SCORE.INTER.CONST>
1

>  <SCORE.INTER.POLAR>
-1.6103

>  <SCORE.INTER.ROT>
13

>  <SCORE.INTER.SOLV>
15.0338

>  <SCORE.INTER.VDW>
-15.6513

>  <SCORE.INTER.norm>
-0.16033

>  <SCORE.INTRA>
14.6173

>  <SCORE.INTRA.DIHEDRAL>
2.85619

>  <SCORE.INTRA.DIHEDRAL.0>
23.8882

>  <SCORE.INTRA.POLAR>
0

>  <SCORE.INTRA.POLAR.0>
0

>  <SCORE.INTRA.REPUL>
0

>  <SCORE.INTRA.REPUL.0>
0

>  <SCORE.INTRA.SOLV>
9.60568

>  <SCORE.INTRA.SOLV.lig_0>
-97.6888

>  <SCORE.INTRA.VDW>
8.38636

>  <SCORE.INTRA.VDW.0>
-3.9206

>  <SCORE.INTRA.norm>
0.417637

>  <SCORE.RESTR>
5.76136

>  <SCORE.RESTR.CAVITY>
5.76136

>  <SCORE.RESTR.norm>
0.16461

>  <SCORE.SYSTEM>
0

>  <SCORE.SYSTEM.CONST>
0

>  <SCORE.SYSTEM.DIHEDRAL>
0

>  <SCORE.SYSTEM.SOLV>
0

>  <SCORE.SYSTEM.norm>
0

>  <SCORE.heavy>
35

>  <SCORE.norm>
0.421917

>  <RMSD>
29.522

$$$$
2f4t_lig
 OpenBabel11021811433D
libRbt.so/2013.1/901 2013/11/27
 35 36  0  0  0  0  0  0  0  0999 V2000
    4.8341   11.6944    9.1895 C   0  0  2  0  0  0  0  0  0  0  0  0
    5.9478   11.1471    9.9688 O   0  0  0  0  0  0  0  0  0  0  0  0
    9.3252   13.0501    8.0638 C   0  0  2  0  0  0  0  0  0  0  0  0
   10.6953   13.5378    7.8455 N   0  0  0  0  0  0  0  0  0  0  0  0
    3.5615   10.9373    9.6763 C   0  0  2  0  0  0  0  0  0  0  0  0
    3.3967   11.0828   11.1036 N   0  0  0  0  0  0  0  0  0  0  0  0
    8.8217   13.5311    9.4740 C   0  0  0  0  0  0  0  0  0  0  0  0
   11.7727   12.8340    9.0548 C   0  0  0  0  0  0  0  0  0  0  0  0
   12.8743   13.6131    8.3709 C   0  0  1  0  0  0  0  0  0  0  0  0
   12.9928   14.9641    9.0799 C   0  0  0  0  0  0  0  0  0  0  0  0
   12.4970   16.1810    8.2808 C   0  0  0  0  0  0  0  0  0  0  0  0
   11.0678   16.0038    8.0070 N   0  0  0  0  0  0  0  0  0  0  0  0
   14.1157   12.9802    8.5397 O   0  0  0  0  0  0  0  0  0  0  0  0
    9.7711   10.9018    5.3552 C   0  0  0  0  0  0  0  0  0  0  0  0
   11.0273   10.1286    4.9845 C   0  0  0  0  0  0  0  0  0  0  0  0
    3.6520    9.4243    9.2825 C   0  0  1  0  0  0  0  0  0  0  0  0
   10.9072    8.6692    5.1955 N   0  0  0  0  0  0  0  0  0  0  0  0
    2.5033    8.7195    9.7115 O   0  0  0  0  0  0  0  0  0  0  0  0
    7.3961   13.0444    9.7693 C   0  0  2  0  0  0  0  0  0  0  0  0
    6.9669   13.4684   11.0983 N   0  0  0  0  0  0  0  0  0  0  0  0
   11.2493    7.0380    7.0539 C   0  0  0  0  0  0  0  0  0  0  0  0
   11.5364    5.8639    6.0634 N   0  0  0  0  0  0  0  0  0  0  0  0
   10.3254    8.1438    6.4631 C   0  0  0  0  0  0  0  0  0  0  0  0
   11.6421   12.1642    9.8755 O   0  0  0  0  0  0  0  0  0  0  0  0
    3.8043    9.3378    7.7604 C   0  0  2  0  0  0  0  0  0  0  0  0
    3.8798    7.9874    7.3333 O   0  0  0  0  0  0  0  0  0  0  0  0
    7.3252   11.5401    9.6851 C   0  0  2  0  0  0  0  0  0  0  0  0
    5.0718   10.1193    7.3089 C   0  0  2  0  0  0  0  0  0  0  0  0
    5.0111   11.4972    7.7324 O   0  0  0  0  0  0  0  0  0  0  0  0
    7.8030   11.0485    8.2516 C   0  0  2  0  0  0  0  0  0  0  0  0
    7.7155    9.5928    8.2051 O   0  0  0  0  0  0  0  0  0  0  0  0
    5.2465   10.0893    5.8374 C   0  0  0  0  0  0  0  0  0  0  0  0
    4.0554   10.3083    5.2382 N   0  0  0  0  0  0  0  0  0  0  0  0
    9.2830   11.5146    8.0238 C   0  0  1  0  0  0  0  0  0  0  0  0
    9.7415   11.0742    6.7854 O   0  0  0  0  0  0  0  0  0  0  0  0
  1  2  1  1  0  0  0
  1  5  1  0  0  0  0
  1 29  1  0  0  0  0
  3  4  1  1  0  0  0
  3  7  1  0  0  0  0
  3 34  1  0  0  0  0
  5  6  1  1  0  0  0
  5 16  1  0  0  0  0
  7 19  1  0  0  0  0
  8  4  1  0  0  0  0
  8 24  2  0  0  0  0
  9  8  1  1  0  0  0
  9 10  1  0  0  0  0
  9 13  1  0  0  0  0
 10 11  1  0  0  0  0
 11 12  1  0  0  0  0
 14 15  1  0  0  0  0
 14 35  1  0  0  0  0
 15 17  1  0  0  0  0
 16 18  1  6  0  0  0
 16 25  1  0  0  0  0
 19 20  1  1  0  0  0
 19 27  1  0  0  0  0
 21 22  1  0  0  0  0
 21 23  1  0  0  0  0
 23 17  1  0  0  0  0
 25 26  1  1  0  0  0
 25 28  1  0  0  0  0
 27  2  1  6  0  0  0
 27 30  1  0  0  0  0
 28 29  1  0  0  0  0
 28 32  1  6  0  0  0
 30 31  1  1  0  0  0
 30 34  1  0  0  0  0
 32 33  2  0  0  0  0
 34 35  1  6  0  0  0
M  END
>  <CHROM.1>
174.17441860,62.76053526,92.04346041,-108.81407334,61.71373605,79.85699115
176.35494459,-46.05842654,-55.84751524,-131.15120168,55.62208014,43.66945686
-62.73932222,8.22568036,11.20853668,8.10619487,2.84867267,-0.24475776,-2.61132776

>  <Name>
2f4t_lig

>  <RI>
0

>  <Rbt.Current_Directory>
/home/itssahil/PROJECTS/Mol_Feturizer/New_Systems/rnas/2f4t

>  <Rbt.Executable>
rbdock ($Id: //depot/dev/client3/rdock/2013.1/src/exe/rbdock.cxx#4 $)

>  <Rbt.Library>
libRbt.so (2013.1, Build901 2013/11/27)

>  <Rbt.Parameter_File>
/export/apps/rDock/src/rDock_2013.1_src/data/scripts/dock_solv.prm

>  <Rbt.Receptor>
prm/blind_docking_80.prm

>  <SCORE>
-0.09051

>  <SCORE.INTER>
0.168806

>  <SCORE.INTER.CONST>
1

>  <SCORE.INTER.POLAR>
-1.9729

>  <SCORE.INTER.ROT>
13

>  <SCORE.INTER.SOLV>
22.4989

>  <SCORE.INTER.VDW>
-13.0774

>  <SCORE.INTER.norm>
0.00482304

>  <SCORE.INTRA>
-2.17632

>  <SCORE.INTRA.DIHEDRAL>
-12.7643

>  <SCORE.INTRA.DIHEDRAL.0>
23.8882

>  <SCORE.INTRA.POLAR>
0

>  <SCORE.INTRA.POLAR.0>
0

>  <SCORE.INTRA.REPUL>
0

>  <SCORE.INTRA.REPUL.0>
0

>  <SCORE.INTRA.SOLV>
6.37993

>  <SCORE.INTRA.SOLV.lig_0>
-97.6888

>  <SCORE.INTRA.VDW>
1.01589

>  <SCORE.INTRA.VDW.0>
-3.9206

>  <SCORE.INTRA.norm>
-0.0621805

>  <SCORE.RESTR>
1.917

>  <SCORE.RESTR.CAVITY>
1.917

>  <SCORE.RESTR.norm>
0.0547714

>  <SCORE.SYSTEM>
0

>  <SCORE.SYSTEM.CONST>
0

>  <SCORE.SYSTEM.DIHEDRAL>
0

>  <SCORE.SYSTEM.SOLV>
0

>  <SCORE.SYSTEM.norm>
0

>  <SCORE.heavy>
35

>  <SCORE.norm>
-0.002586

>  <RMSD>
29.535

$$$$
2f4t_lig
 OpenBabel11021811433D
libRbt.so/2013.1/901 2013/11/27
 35 36  0  0  0  0  0  0  0  0999 V2000
    4.5383   11.6317    8.6506 C   0  0  2  0  0  0  0  0  0  0  0  0
    5.1699   12.1371    9.8724 O   0  0  0  0  0  0  0  0  0  0  0  0
    9.1475   13.1134    8.5000 C   0  0  2  0  0  0  0  0  0  0  0  0
   10.4511   13.7875    8.4068 N   0  0  0  0  0  0  0  0  0  0  0  0
    3.3535   10.7359    9.1232 C   0  0  2  0  0  0  0  0  0  0  0  0
    2.4564   11.4837    9.9726 N   0  0  0  0  0  0  0  0  0  0  0  0
    8.0028   14.1918    8.4795 C   0  0  0  0  0  0  0  0  0  0  0  0
   10.6144   14.5407    6.8178 C   0  0  0  0  0  0  0  0  0  0  0  0
   11.9701   15.0094    7.2980 C   0  0  1  0  0  0  0  0  0  0  0  0
   11.7369   16.0289    8.4153 C   0  0  0  0  0  0  0  0  0  0  0  0
   12.9932   16.7513    8.9301 C   0  0  0  0  0  0  0  0  0  0  0  0
   13.9118   15.7487    9.4777 N   0  0  0  0  0  0  0  0  0  0  0  0
   12.6872   13.9545    7.8837 O   0  0  0  0  0  0  0  0  0  0  0  0
   10.8490   10.2660   10.3499 C   0  0  0  0  0  0  0  0  0  0  0  0
   12.1394   10.1844    9.5489 C   0  0  0  0  0  0  0  0  0  0  0  0
    3.8990    9.4736    9.8723 C   0  0  1  0  0  0  0  0  0  0  0  0
   11.9659    9.5842    8.2079 N   0  0  0  0  0  0  0  0  0  0  0  0
    2.8388    8.6439   10.3059 O   0  0  0  0  0  0  0  0  0  0  0  0
    6.6116   13.5518    8.5850 C   0  0  2  0  0  0  0  0  0  0  0  0
    5.5696   14.5736    8.6049 N   0  0  0  0  0  0  0  0  0  0  0  0
   12.7027    8.8209    5.9483 C   0  0  0  0  0  0  0  0  0  0  0  0
   12.1277    7.3681    5.9234 N   0  0  0  0  0  0  0  0  0  0  0  0
   13.1573    9.2901    7.3620 C   0  0  0  0  0  0  0  0  0  0  0  0
    9.9957   14.6013    5.9502 O   0  0  0  0  0  0  0  0  0  0  0  0
    4.8239    8.7154    8.9145 C   0  0  2  0  0  0  0  0  0  0  0  0
    5.3452    7.5482    9.5291 O   0  0  0  0  0  0  0  0  0  0  0  0
    6.5088   12.7187    9.8382 C   0  0  2  0  0  0  0  0  0  0  0  0
    5.9819    9.6445    8.4489 C   0  0  2  0  0  0  0  0  0  0  0  0
    5.4701   10.8367    7.8179 O   0  0  0  0  0  0  0  0  0  0  0  0
    7.6434   11.6063    9.8510 C   0  0  2  0  0  0  0  0  0  0  0  0
    7.5095   10.8181   11.0716 O   0  0  0  0  0  0  0  0  0  0  0  0
    6.8897    8.9634    7.4954 C   0  0  0  0  0  0  0  0  0  0  0  0
    7.8083    9.8440    7.0413 N   0  0  0  0  0  0  0  0  0  0  0  0
    9.0438   12.3107    9.8063 C   0  0  1  0  0  0  0  0  0  0  0  0
   10.0617   11.3620    9.8448 O   0  0  0  0  0  0  0  0  0  0  0  0
  1  2  1  1  0  0  0
  1  5  1  0  0  0  0
  1 29  1  0  0  0  0
  3  4  1  1  0  0  0
  3  7  1  0  0  0  0
  3 34  1  0  0  0  0
  5  6  1  1  0  0  0
  5 16  1  0  0  0  0
  7 19  1  0  0  0  0
  8  4  1  0  0  0  0
  8 24  2  0  0  0  0
  9  8  1  1  0  0  0
  9 10  1  0  0  0  0
  9 13  1  0  0  0  0
 10 11  1  0  0  0  0
 11 12  1  0  0  0  0
 14 15  1  0  0  0  0
 14 35  1  0  0  0  0
 15 17  1  0  0  0  0
 16 18  1  6  0  0  0
 16 25  1  0  0  0  0
 19 20  1  1  0  0  0
 19 27  1  0  0  0  0
 21 22  1  0  0  0  0
 21 23  1  0  0  0  0
 23 17  1  0  0  0  0
 25 26  1  1  0  0  0
 25 28  1  0  0  0  0
 27  2  1  6  0  0  0
 27 30  1  0  0  0  0
 28 29  1  0  0  0  0
 28 32  1  6  0  0  0
 30 31  1  1  0  0  0
 30 34  1  0  0  0  0
 32 33  2  0  0  0  0
 34 35  1  6  0  0  0
M  END
>  <CHROM.1>
163.79517074,-67.02271211,-67.39618975,-173.16023739,-60.97197656,-76.62316590
-167.75452859,-172.98211901,-73.88506159,-173.50734596,39.89082543,175.02967543
-177.45769844,8.45618650,11.68922431,8.64743500,2.75373810,-0.20908042,-3.04869646

>  <Name>
2f4t_lig

>  <RI>
0

>  <Rbt.Current_Directory>
/home/itssahil/PROJECTS/Mol_Feturizer/New_Systems/rnas/2f4t

>  <Rbt.Executable>
rbdock ($Id: //depot/dev/client3/rdock/2013.1/src/exe/rbdock.cxx#4 $)

>  <Rbt.Library>
libRbt.so (2013.1, Build901 2013/11/27)

>  <Rbt.Parameter_File>
/export/apps/rDock/src/rDock_2013.1_src/data/scripts/dock_solv.prm

>  <Rbt.Receptor>
prm/blind_docking_40.prm

>  <SCORE>
-1.88333

>  <SCORE.INTER>
-1.97508

>  <SCORE.INTER.CONST>
1

>  <SCORE.INTER.POLAR>
-1.07259

>  <SCORE.INTER.ROT>
13

>  <SCORE.INTER.SOLV>
14.9253

>  <SCORE.INTER.VDW>
-14.9832

>  <SCORE.INTER.norm>
-0.0564308

>  <SCORE.INTRA>
-1.9179

>  <SCORE.INTRA.DIHEDRAL>
-15.4433

>  <SCORE.INTRA.DIHEDRAL.0>
23.8882

>  <SCORE.INTRA.POLAR>
0

>  <SCORE.INTRA.POLAR.0>
0

>  <SCORE.INTRA.REPUL>
0.0107768

>  <SCORE.INTRA.REPUL.0>
0

>  <SCORE.INTRA.SOLV>
3.69252

>  <SCORE.INTRA.SOLV.lig_0>
-97.6888

>  <SCORE.INTRA.VDW>
3.90361

>  <SCORE.INTRA.VDW.0>
-3.9206

>  <SCORE.INTRA.norm>
-0.0547972

>  <SCORE.RESTR>
2.00965

>  <SCORE.RESTR.CAVITY>
2.00965

>  <SCORE.RESTR.norm>
0.0574186

>  <SCORE.SYSTEM>
0

>  <SCORE.SYSTEM.CONST>
0

>  <SCORE.SYSTEM.DIHEDRAL>
0

>  <SCORE.SYSTEM.SOLV>
0

>  <SCORE.SYSTEM.norm>
0

>  <SCORE.heavy>
35

>  <SCORE.norm>
-0.0538094

>  <RMSD>
29.541

$$$$
2f4t_lig
 OpenBabel11021811433D
libRbt.so/2013.1/901 2013/11/27
 35 36  0  0  0  0  0  0  0  0999 V2000
    6.9046    9.9830    8.9158 C   0  0  2  0  0  0  0  0  0  0  0  0
    7.0735   11.4227    9.1300 O   0  0  0  0  0  0  0  0  0  0  0  0
   10.9225   13.3822    9.1831 C   0  0  2  0  0  0  0  0  0  0  0  0
   12.1386   14.0268    9.7010 N   0  0  0  0  0  0  0  0  0  0  0  0
    6.5910    9.8123    7.3985 C   0  0  2  0  0  0  0  0  0  0  0  0
    7.6359   10.3994    6.5929 N   0  0  0  0  0  0  0  0  0  0  0  0
    9.6592   14.0749    9.8137 C   0  0  0  0  0  0  0  0  0  0  0  0
   13.2394   14.3724    8.3639 C   0  0  0  0  0  0  0  0  0  0  0  0
   14.1586   14.9578    9.4130 C   0  0  1  0  0  0  0  0  0  0  0  0
   15.4994   14.2272    9.3114 C   0  0  0  0  0  0  0  0  0  0  0  0
   15.5527   12.8388    9.9708 C   0  0  0  0  0  0  0  0  0  0  0  0
   16.0799   11.8822    8.9931 N   0  0  0  0  0  0  0  0  0  0  0  0
   14.4344   16.3071    9.1419 O   0  0  0  0  0  0  0  0  0  0  0  0
   13.4166   11.0332    8.7323 C   0  0  0  0  0  0  0  0  0  0  0  0
   13.5546    9.6843    8.0433 C   0  0  0  0  0  0  0  0  0  0  0  0
    5.2048   10.4573    7.0599 C   0  0  1  0  0  0  0  0  0  0  0  0
   12.8151    9.5949    6.7651 N   0  0  0  0  0  0  0  0  0  0  0  0
    4.8987   10.3090    5.6870 O   0  0  0  0  0  0  0  0  0  0  0  0
    8.3519   13.4393    9.3203 C   0  0  2  0  0  0  0  0  0  0  0  0
    7.1967   14.0714    9.9498 N   0  0  0  0  0  0  0  0  0  0  0  0
   11.6962    7.3652    6.6784 C   0  0  0  0  0  0  0  0  0  0  0  0
   10.2419    7.9355    6.6359 N   0  0  0  0  0  0  0  0  0  0  0  0
   12.7555    8.3020    6.0261 C   0  0  0  0  0  0  0  0  0  0  0  0
   13.2097   14.2136    7.3089 O   0  0  0  0  0  0  0  0  0  0  0  0
    4.1404    9.7797    7.9290 C   0  0  2  0  0  0  0  0  0  0  0  0
    2.8527   10.3111    7.6620 O   0  0  0  0  0  0  0  0  0  0  0  0
    8.3349   11.9630    9.6291 C   0  0  2  0  0  0  0  0  0  0  0  0
    4.4954    9.9532    9.4340 C   0  0  2  0  0  0  0  0  0  0  0  0
    5.8020    9.4151    9.7252 O   0  0  0  0  0  0  0  0  0  0  0  0
    9.5924   11.2507    8.9685 C   0  0  2  0  0  0  0  0  0  0  0  0
    9.5395    9.8267    9.2823 O   0  0  0  0  0  0  0  0  0  0  0  0
    3.5079    9.2878   10.3166 C   0  0  0  0  0  0  0  0  0  0  0  0
    2.9021   10.2134   11.0925 N   0  0  0  0  0  0  0  0  0  0  0  0
   10.9005   11.8904    9.5507 C   0  0  1  0  0  0  0  0  0  0  0  0
   12.0226   11.2675    9.0116 O   0  0  0  0  0  0  0  0  0  0  0  0
  1  2  1  6  0  0  0
  1  5  1  0  0  0  0
  1 29  1  0  0  0  0
  3  4  1  1  0  0  0
  3  7  1  0  0  0  0
  3 34  1  0  0  0  0
  5  6  1  6  0  0  0
  5 16  1  0  0  0  0
  7 19  1  0  0  0  0
  8  4  1  0  0  0  0
  8 24  2  0  0  0  0
  9  8  1  6  0  0  0
  9 10  1  0  0  0  0
  9 13  1  0  0  0  0
 10 11  1  0  0  0  0
 11 12  1  0  0  0  0
 14 15  1  0  0  0  0
 14 35  1  0  0  0  0
 15 17  1  0  0  0  0
 16 18  1  6  0  0  0
 16 25  1  0  0  0  0
 19 20  1  1  0  0  0
 19 27  1  0  0  0  0
 21 22  1  0  0  0  0
 21 23  1  0  0  0  0
 23 17  1  0  0  0  0
 25 26  1  1  0  0  0
 25 28  1  0  0  0  0
 27  2  1  6  0  0  0
 27 30  1  0  0  0  0
 28 29  1  0  0  0  0
 28 32  1  1  0  0  0
 30 31  1  1  0  0  0
 30 34  1  0  0  0  0
 32 33  2  0  0  0  0
 34 35  1  6  0  0  0
M  END
>  <CHROM.1>
-119.52617204,-133.08512320,123.45224236,-79.16641159,128.65628700,60.01703538
170.37602063,-174.83214662,62.06873113,78.90446089,161.97420780,-117.58186438
53.67949563,9.63999153,11.40387149,8.57807488,-2.85703586,0.11834158,0.45217331

>  <Name>
2f4t_lig

>  <RI>
0

>  <Rbt.Current_Directory>
/home/itssahil/PROJECTS/Mol_Feturizer/New_Systems/rnas/2f4t

>  <Rbt.Executable>
rbdock ($Id: //depot/dev/client3/rdock/2013.1/src/exe/rbdock.cxx#4 $)

>  <Rbt.Library>
libRbt.so (2013.1, Build901 2013/11/27)

>  <Rbt.Parameter_File>
/export/apps/rDock/src/rDock_2013.1_src/data/scripts/dock_solv.prm

>  <Rbt.Receptor>
prm/blind_docking_80.prm

>  <SCORE>
3.25243

>  <SCORE.INTER>
-1.3738

>  <SCORE.INTER.CONST>
1

>  <SCORE.INTER.POLAR>
0

>  <SCORE.INTER.ROT>
13

>  <SCORE.INTER.SOLV>
15.2596

>  <SCORE.INTER.VDW>
-18.2691

>  <SCORE.INTER.norm>
-0.0392515

>  <SCORE.INTRA>
2.62601

>  <SCORE.INTRA.DIHEDRAL>
-3.51508

>  <SCORE.INTRA.DIHEDRAL.0>
23.8882

>  <SCORE.INTRA.POLAR>
0

>  <SCORE.INTRA.POLAR.0>
0

>  <SCORE.INTRA.REPUL>
0

>  <SCORE.INTRA.REPUL.0>
0

>  <SCORE.INTRA.SOLV>
8.62098

>  <SCORE.INTRA.SOLV.lig_0>
-97.6888

>  <SCORE.INTRA.VDW>
0.0730612

>  <SCORE.INTRA.VDW.0>
-3.9206

>  <SCORE.INTRA.norm>
0.0750288

>  <SCORE.RESTR>
2.00023

>  <SCORE.RESTR.CAVITY>
2.00023

>  <SCORE.RESTR.norm>
0.0571494

>  <SCORE.SYSTEM>
0

>  <SCORE.SYSTEM.CONST>
0

>  <SCORE.SYSTEM.DIHEDRAL>
0

>  <SCORE.SYSTEM.SOLV>
0

>  <SCORE.SYSTEM.norm>
0

>  <SCORE.heavy>
35

>  <SCORE.norm>
0.0929267

>  <RMSD>
29.546

$$$$
2f4t_lig
 OpenBabel11021811433D
libRbt.so/2013.1/901 2013/11/27
 35 36  0  0  0  0  0  0  0  0999 V2000
    7.0928    9.9238    9.1666 C   0  0  2  0  0  0  0  0  0  0  0  0
    7.6942   10.7848    8.1447 O   0  0  0  0  0  0  0  0  0  0  0  0
   11.5145   12.6747    7.4442 C   0  0  2  0  0  0  0  0  0  0  0  0
   12.7219   13.4806    7.6792 N   0  0  0  0  0  0  0  0  0  0  0  0
    6.1182    8.9756    8.4046 C   0  0  2  0  0  0  0  0  0  0  0  0
    6.8183    8.2478    7.3723 N   0  0  0  0  0  0  0  0  0  0  0  0
   10.2422   13.5350    7.7831 C   0  0  0  0  0  0  0  0  0  0  0  0
   13.2749   13.2460    9.3399 C   0  0  0  0  0  0  0  0  0  0  0  0
   14.3943   14.2009    8.9885 C   0  0  1  0  0  0  0  0  0  0  0  0
   13.9665   15.5994    9.4393 C   0  0  0  0  0  0  0  0  0  0  0  0
   12.5615   16.0409    8.9965 C   0  0  0  0  0  0  0  0  0  0  0  0
   11.5733   15.2518    9.7379 N   0  0  0  0  0  0  0  0  0  0  0  0
   15.5565   13.9011    9.7161 O   0  0  0  0  0  0  0  0  0  0  0  0
   13.5151    9.7814    7.3194 C   0  0  0  0  0  0  0  0  0  0  0  0
   12.7409    8.5239    6.9550 C   0  0  0  0  0  0  0  0  0  0  0  0
    4.9347    9.7991    7.7934 C   0  0  1  0  0  0  0  0  0  0  0  0
   12.0910    7.8732    8.1138 N   0  0  0  0  0  0  0  0  0  0  0  0
    4.0350    8.9558    7.1008 O   0  0  0  0  0  0  0  0  0  0  0  0
    8.9435   12.7454    7.5683 C   0  0  2  0  0  0  0  0  0  0  0  0
    7.7803   13.5503    7.9277 N   0  0  0  0  0  0  0  0  0  0  0  0
   10.4029    6.9773    6.5078 C   0  0  0  0  0  0  0  0  0  0  0  0
   11.2186    6.3641    5.3244 N   0  0  0  0  0  0  0  0  0  0  0  0
   11.0832    6.7968    7.8971 C   0  0  0  0  0  0  0  0  0  0  0  0
   12.9288   12.6725   10.1708 O   0  0  0  0  0  0  0  0  0  0  0  0
    4.2227   10.5285    8.9374 C   0  0  2  0  0  0  0  0  0  0  0  0
    3.1269   11.2872    8.4522 O   0  0  0  0  0  0  0  0  0  0  0  0
    8.9484   11.4874    8.4004 C   0  0  2  0  0  0  0  0  0  0  0  0
    5.2285   11.4494    9.6866 C   0  0  2  0  0  0  0  0  0  0  0  0
    6.3494   10.6935   10.1904 O   0  0  0  0  0  0  0  0  0  0  0  0
   10.2150   10.5977    8.0409 C   0  0  2  0  0  0  0  0  0  0  0  0
   10.1832    9.3897    8.8586 O   0  0  0  0  0  0  0  0  0  0  0  0
    4.5919   12.1562   10.8234 C   0  0  0  0  0  0  0  0  0  0  0  0
    5.5302   12.8508   11.5037 N   0  0  0  0  0  0  0  0  0  0  0  0
   11.5146   11.4240    8.3369 C   0  0  1  0  0  0  0  0  0  0  0  0
   12.6447   10.6605    8.0582 O   0  0  0  0  0  0  0  0  0  0  0  0
  1  2  1  6  0  0  0
  1  5  1  0  0  0  0
  1 29  1  0  0  0  0
  3  4  1  1  0  0  0
  3  7  1  0  0  0  0
  3 34  1  0  0  0  0
  5  6  1  6  0  0  0
  5 16  1  0  0  0  0
  7 19  1  0  0  0  0
  8  4  1  0  0  0  0
  8 24  2  0  0  0  0
  9  8  1  1  0  0  0
  9 10  1  0  0  0  0
  9 13  1  0  0  0  0
 10 11  1  0  0  0  0
 11 12  1  0  0  0  0
 14 15  1  0  0  0  0
 14 35  1  0  0  0  0
 15 17  1  0  0  0  0
 16 18  1  1  0  0  0
 16 25  1  0  0  0  0
 19 20  1  1  0  0  0
 19 27  1  0  0  0  0
 21 22  1  0  0  0  0
 21 23  1  0  0  0  0
 23 17  1  0  0  0  0
 25 26  1  6  0  0  0
 25 28  1  0  0  0  0
 27  2  1  6  0  0  0
 27 30  1  0  0  0  0
 28 29  1  0  0  0  0
 28 32  1  1  0  0  0
 30 31  1  1  0  0  0
 30 34  1  0  0  0  0
 32 33  2  0  0  0  0
 34 35  1  6  0  0  0
M  END
>  <CHROM.1>
-159.87244168,90.83344800,95.39466299,-49.47734899,70.09815166,-52.69195907
-53.90050811,167.96401352,83.55198028,-26.38896790,-151.42035820,174.89534112
-72.23436346,9.59669679,11.19559421,8.46657080,-2.82167743,0.11373186,0.35976804

>  <Name>
2f4t_lig

>  <RI>
0

>  <Rbt.Current_Directory>
/home/itssahil/PROJECTS/Mol_Feturizer/New_Systems/rnas/2f4t

>  <Rbt.Executable>
rbdock ($Id: //depot/dev/client3/rdock/2013.1/src/exe/rbdock.cxx#4 $)

>  <Rbt.Library>
libRbt.so (2013.1, Build901 2013/11/27)

>  <Rbt.Parameter_File>
/export/apps/rDock/src/rDock_2013.1_src/data/scripts/dock_solv.prm

>  <Rbt.Receptor>
prm/blind_docking_80.prm

>  <SCORE>
12.4194

>  <SCORE.INTER>
3.82989

>  <SCORE.INTER.CONST>
1

>  <SCORE.INTER.POLAR>
-1.07703

>  <SCORE.INTER.ROT>
13

>  <SCORE.INTER.SOLV>
19.3891

>  <SCORE.INTER.VDW>
-12.5863

>  <SCORE.INTER.norm>
0.109426

>  <SCORE.INTRA>
4.97163

>  <SCORE.INTRA.DIHEDRAL>
-9.89341

>  <SCORE.INTRA.DIHEDRAL.0>
23.8882

>  <SCORE.INTRA.POLAR>
0

>  <SCORE.INTRA.POLAR.0>
0

>  <SCORE.INTRA.REPUL>
0

>  <SCORE.INTRA.REPUL.0>
0

>  <SCORE.INTRA.SOLV>
11.8567

>  <SCORE.INTRA.SOLV.lig_0>
-97.6888

>  <SCORE.INTRA.VDW>
3.98999

>  <SCORE.INTRA.VDW.0>
-3.9206

>  <SCORE.INTRA.norm>
0.142047

>  <SCORE.RESTR>
3.6179

>  <SCORE.RESTR.CAVITY>
3.6179

>  <SCORE.RESTR.norm>
0.103368

>  <SCORE.SYSTEM>
0

>  <SCORE.SYSTEM.CONST>
0

>  <SCORE.SYSTEM.DIHEDRAL>
0

>  <SCORE.SYSTEM.SOLV>
0

>  <SCORE.SYSTEM.norm>
0

>  <SCORE.heavy>
35

>  <SCORE.norm>
0.354841

>  <RMSD>
29.547

$$$$
2f4t_lig
 OpenBabel11021811433D
libRbt.so/2013.1/901 2013/11/27
 35 36  0  0  0  0  0  0  0  0999 V2000
   11.0890   14.3350   10.0376 C   0  0  2  0  0  0  0  0  0  0  0  0
   10.3384   14.3371    8.7791 O   0  0  0  0  0  0  0  0  0  0  0  0
    7.9627   10.7340    8.9539 C   0  0  2  0  0  0  0  0  0  0  0  0
    6.8060    9.8336    8.8356 N   0  0  0  0  0  0  0  0  0  0  0  0
   12.5327   14.7959    9.6729 C   0  0  2  0  0  0  0  0  0  0  0  0
   12.5065   16.0816    9.0160 N   0  0  0  0  0  0  0  0  0  0  0  0
    7.5437   12.0132    9.7672 C   0  0  0  0  0  0  0  0  0  0  0  0
    5.4400   10.7145    8.1450 C   0  0  0  0  0  0  0  0  0  0  0  0
    4.6805    9.4111    8.2580 C   0  0  1  0  0  0  0  0  0  0  0  0
    3.2692    9.7404    8.7496 C   0  0  0  0  0  0  0  0  0  0  0  0
    3.1220    9.9362   10.2679 C   0  0  0  0  0  0  0  0  0  0  0  0
    3.7937   11.1846   10.6408 N   0  0  0  0  0  0  0  0  0  0  0  0
    4.5191    8.8136    6.9982 O   0  0  0  0  0  0  0  0  0  0  0  0
    9.2019    9.2712    5.6788 C   0  0  0  0  0  0  0  0  0  0  0  0
   10.4484    9.8946    5.0698 C   0  0  0  0  0  0  0  0  0  0  0  0
   13.2255   13.7255    8.7637 C   0  0  1  0  0  0  0  0  0  0  0  0
   11.6149    9.8933    5.9796 N   0  0  0  0  0  0  0  0  0  0  0  0
   14.5399   14.1227    8.4248 O   0  0  0  0  0  0  0  0  0  0  0  0
    8.7078   13.0024    9.9179 C   0  0  2  0  0  0  0  0  0  0  0  0
    8.2839   14.1979   10.6399 N   0  0  0  0  0  0  0  0  0  0  0  0
   11.7896    7.5645    6.8615 C   0  0  0  0  0  0  0  0  0  0  0  0
   11.4843    7.9441    8.3462 N   0  0  0  0  0  0  0  0  0  0  0  0
   12.4983    8.6955    6.0590 C   0  0  0  0  0  0  0  0  0  0  0  0
    5.2847   11.7179    7.8160 O   0  0  0  0  0  0  0  0  0  0  0  0
   13.2399   12.3947    9.5230 C   0  0  2  0  0  0  0  0  0  0  0  0
   13.8681   11.3796    8.7570 O   0  0  0  0  0  0  0  0  0  0  0  0
    9.2348   13.4057    8.5634 C   0  0  2  0  0  0  0  0  0  0  0  0
   11.7863   11.9760    9.8870 C   0  0  2  0  0  0  0  0  0  0  0  0
   11.1320   12.9963   10.6696 O   0  0  0  0  0  0  0  0  0  0  0  0
    9.6895   12.1202    7.7476 C   0  0  2  0  0  0  0  0  0  0  0  0
   10.1978   12.5483    6.4485 O   0  0  0  0  0  0  0  0  0  0  0  0
   11.7500   10.7058   10.6500 C   0  0  0  0  0  0  0  0  0  0  0  0
   11.0634   10.8904   11.7990 N   0  0  0  0  0  0  0  0  0  0  0  0
    8.4533   11.1726    7.5654 C   0  0  1  0  0  0  0  0  0  0  0  0
    8.8130   10.0477    6.8284 O   0  0  0  0  0  0  0  0  0  0  0  0
  1  2  1  6  0  0  0
  1  5  1  0  0  0  0
  1 29  1  0  0  0  0
  3  4  1  6  0  0  0
  3  7  1  0  0  0  0
  3 34  1  0  0  0  0
  5  6  1  6  0  0  0
  5 16  1  0  0  0  0
  7 19  1  0  0  0  0
  8  4  1  0  0  0  0
  8 24  2  0  0  0  0
  9  8  1  6  0  0  0
  9 10  1  0  0  0  0
  9 13  1  0  0  0  0
 10 11  1  0  0  0  0
 11 12  1  0  0  0  0
 14 15  1  0  0  0  0
 14 35  1  0  0  0  0
 15 17  1  0  0  0  0
 16 18  1  1  0  0  0
 16 25  1  0  0  0  0
 19 20  1  6  0  0  0
 19 27  1  0  0  0  0
 21 22  1  0  0  0  0
 21 23  1  0  0  0  0
 23 17  1  0  0  0  0
 25 26  1  6  0  0  0
 25 28  1  0  0  0  0
 27  2  1  1  0  0  0
 27 30  1  0  0  0  0
 28 29  1  0  0  0  0
 28 32  1  1  0  0  0
 30 31  1  6  0  0  0
 30 34  1  0  0  0  0
 32 33  2  0  0  0  0
 34 35  1  6  0  0  0
M  END
>  <CHROM.1>
149.84434405,54.23522855,138.86362573,-82.08183957,69.87854867,62.19048650
54.76269948,85.29259464,-62.47865301,-74.87896181,23.98333838,125.86642211
169.93988645,9.43660641,11.47340016,8.54721142,0.29695468,0.17252922,0.61376948

>  <Name>
2f4t_lig

>  <RI>
0

>  <Rbt.Current_Directory>
/home/itssahil/PROJECTS/Mol_Feturizer/New_Systems/rnas/2f4t

>  <Rbt.Executable>
rbdock ($Id: //depot/dev/client3/rdock/2013.1/src/exe/rbdock.cxx#4 $)

>  <Rbt.Library>
libRbt.so (2013.1, Build901 2013/11/27)

>  <Rbt.Parameter_File>
/export/apps/rDock/src/rDock_2013.1_src/data/scripts/dock_solv.prm

>  <Rbt.Receptor>
prm/blind_docking_80.prm

>  <SCORE>
2.68714

>  <SCORE.INTER>
-0.548132

>  <SCORE.INTER.CONST>
1

>  <SCORE.INTER.POLAR>
0

>  <SCORE.INTER.ROT>
13

>  <SCORE.INTER.SOLV>
11.6818

>  <SCORE.INTER.VDW>
-16.526

>  <SCORE.INTER.norm>
-0.0156609

>  <SCORE.INTRA>
3.04475

>  <SCORE.INTRA.DIHEDRAL>
-9.44254

>  <SCORE.INTRA.DIHEDRAL.0>
23.8882

>  <SCORE.INTRA.POLAR>
0

>  <SCORE.INTRA.POLAR.0>
0

>  <SCORE.INTRA.REPUL>
0

>  <SCORE.INTRA.REPUL.0>
0

>  <SCORE.INTRA.SOLV>
10.5139

>  <SCORE.INTRA.SOLV.lig_0>
-97.6888

>  <SCORE.INTRA.VDW>
2.50907

>  <SCORE.INTRA.VDW.0>
-3.9206

>  <SCORE.INTRA.norm>
0.0869929

>  <SCORE.RESTR>
0.190519

>  <SCORE.RESTR.CAVITY>
0.190519

>  <SCORE.RESTR.norm>
0.0054434

>  <SCORE.SYSTEM>
0

>  <SCORE.SYSTEM.CONST>
0

>  <SCORE.SYSTEM.DIHEDRAL>
0

>  <SCORE.SYSTEM.SOLV>
0

>  <SCORE.SYSTEM.norm>
0

>  <SCORE.heavy>
35

>  <SCORE.norm>
0.0767754

>  <RMSD>
29.552

$$$$
2f4t_lig
 OpenBabel11021811433D
libRbt.so/2013.1/901 2013/11/27
 35 36  0  0  0  0  0  0  0  0999 V2000
    6.1457    9.4590    9.2205 C   0  0  2  0  0  0  0  0  0  0  0  0
    5.9358   10.8175    9.7279 O   0  0  0  0  0  0  0  0  0  0  0  0
    9.3752   13.3945    9.2956 C   0  0  2  0  0  0  0  0  0  0  0  0
   10.4443   14.3429    9.6422 N   0  0  0  0  0  0  0  0  0  0  0  0
    6.2237    9.5913    7.6693 C   0  0  2  0  0  0  0  0  0  0  0  0
    7.2627   10.5192    7.2886 N   0  0  0  0  0  0  0  0  0  0  0  0
    7.9934   13.9721    9.7757 C   0  0  0  0  0  0  0  0  0  0  0  0
   10.8613   15.3077    8.2230 C   0  0  0  0  0  0  0  0  0  0  0  0
   11.8666   15.9963    9.1193 C   0  0  1  0  0  0  0  0  0  0  0  0
   13.1381   15.1447    9.1265 C   0  0  0  0  0  0  0  0  0  0  0  0
   13.6201   14.6565    7.7501 C   0  0  0  0  0  0  0  0  0  0  0  0
   13.8266   15.8260    6.8905 N   0  0  0  0  0  0  0  0  0  0  0  0
   12.2407   17.2413    8.5900 O   0  0  0  0  0  0  0  0  0  0  0  0
   11.8960   11.1464    8.6789 C   0  0  0  0  0  0  0  0  0  0  0  0
   11.2914   10.3952    7.5026 C   0  0  0  0  0  0  0  0  0  0  0  0
    4.8390   10.0484    7.0982 C   0  0  1  0  0  0  0  0  0  0  0  0
   10.2669    9.4039    7.8979 N   0  0  0  0  0  0  0  0  0  0  0  0
    4.8869   10.1701    5.6899 O   0  0  0  0  0  0  0  0  0  0  0  0
    6.8322   13.0215    9.4523 C   0  0  2  0  0  0  0  0  0  0  0  0
    5.5676   13.5599    9.9431 N   0  0  0  0  0  0  0  0  0  0  0  0
    9.4930    8.6529    5.6466 C   0  0  0  0  0  0  0  0  0  0  0  0
   10.5967    9.2723    4.7300 N   0  0  0  0  0  0  0  0  0  0  0  0
   10.0167    8.2081    7.0441 C   0  0  0  0  0  0  0  0  0  0  0  0
   10.5190   15.3407    7.2126 O   0  0  0  0  0  0  0  0  0  0  0  0
    3.7877    9.0158    7.5178 C   0  0  2  0  0  0  0  0  0  0  0  0
    2.5061    9.3646    7.0200 O   0  0  0  0  0  0  0  0  0  0  0  0
    7.0684   11.6698   10.0785 C   0  0  2  0  0  0  0  0  0  0  0  0
    3.7512    8.8962    9.0687 C   0  0  2  0  0  0  0  0  0  0  0  0
    5.0468    8.5387    9.5931 O   0  0  0  0  0  0  0  0  0  0  0  0
    8.4487   11.0658    9.5735 C   0  0  2  0  0  0  0  0  0  0  0  0
    8.6402    9.7589   10.1936 O   0  0  0  0  0  0  0  0  0  0  0  0
    2.7671    7.8854    9.5235 C   0  0  0  0  0  0  0  0  0  0  0  0
    2.1215    8.3462   10.6174 N   0  0  0  0  0  0  0  0  0  0  0  0
    9.6076   12.0399    9.9827 C   0  0  1  0  0  0  0  0  0  0  0  0
   10.8357   11.5241    9.5784 O   0  0  0  0  0  0  0  0  0  0  0  0
  1  2  1  1  0  0  0
  1  5  1  0  0  0  0
  1 29  1  0  0  0  0
  3  4  1  1  0  0  0
  3  7  1  0  0  0  0
  3 34  1  0  0  0  0
  5  6  1  1  0  0  0
  5 16  1  0  0  0  0
  7 19  1  0  0  0  0
  8  4  1  0  0  0  0
  8 24  2  0  0  0  0
  9  8  1  6  0  0  0
  9 10  1  0  0  0  0
  9 13  1  0  0  0  0
 10 11  1  0  0  0  0
 11 12  1  0  0  0  0
 14 15  1  0  0  0  0
 14 35  1  0  0  0  0
 15 17  1  0  0  0  0
 16 18  1  6  0  0  0
 16 25  1  0  0  0  0
 19 20  1  1  0  0  0
 19 27  1  0  0  0  0
 21 22  1  0  0  0  0
 21 23  1  0  0  0  0
 23 17  1  0  0  0  0
 25 26  1  1  0  0  0
 25 28  1  0  0  0  0
 27  2  1  6  0  0  0
 27 30  1  0  0  0  0
 28 29  1  0  0  0  0
 28 32  1  6  0  0  0
 30 31  1  1  0  0  0
 30 34  1  0  0  0  0
 32 33  2  0  0  0  0
 34 35  1  6  0  0  0
M  END
>  <CHROM.1>
-90.72686981,-99.16826051,84.55286067,45.99437612,56.96833073,-43.64198918
-47.34038232,-152.82138203,73.95714723,-63.01097120,132.67190771,-139.74621315
-46.38978195,8.28270058,11.53066684,8.44440180,2.60119798,-0.32777944,-2.68301509

>  <Name>
2f4t_lig

>  <RI>
0

>  <Rbt.Current_Directory>
/home/itssahil/PROJECTS/Mol_Feturizer/New_Systems/rnas/2f4t

>  <Rbt.Executable>
rbdock ($Id: //depot/dev/client3/rdock/2013.1/src/exe/rbdock.cxx#4 $)

>  <Rbt.Library>
libRbt.so (2013.1, Build901 2013/11/27)

>  <Rbt.Parameter_File>
/export/apps/rDock/src/rDock_2013.1_src/data/scripts/dock_solv.prm

>  <Rbt.Receptor>
prm/blind_docking_40.prm

>  <SCORE>
4.13248

>  <SCORE.INTER>
-2.02564

>  <SCORE.INTER.CONST>
1

>  <SCORE.INTER.POLAR>
-0.915476

>  <SCORE.INTER.ROT>
13

>  <SCORE.INTER.SOLV>
11.3294

>  <SCORE.INTER.VDW>
-14.342

>  <SCORE.INTER.norm>
-0.0578754

>  <SCORE.INTRA>
4.7581

>  <SCORE.INTRA.DIHEDRAL>
-5.82321

>  <SCORE.INTRA.DIHEDRAL.0>
23.8882

>  <SCORE.INTRA.POLAR>
0

>  <SCORE.INTRA.POLAR.0>
0

>  <SCORE.INTRA.REPUL>
0

>  <SCORE.INTRA.REPUL.0>
0

>  <SCORE.INTRA.SOLV>
12.5505

>  <SCORE.INTRA.SOLV.lig_0>
-97.6888

>  <SCORE.INTRA.VDW>
1.39446

>  <SCORE.INTRA.VDW.0>
-3.9206

>  <SCORE.INTRA.norm>
0.135946

>  <SCORE.RESTR>
1.40001

>  <SCORE.RESTR.CAVITY>
1.40001

>  <SCORE.RESTR.norm>
0.0400003

>  <SCORE.SYSTEM>
0

>  <SCORE.SYSTEM.CONST>
0

>  <SCORE.SYSTEM.DIHEDRAL>
0

>  <SCORE.SYSTEM.SOLV>
0

>  <SCORE.SYSTEM.norm>
0

>  <SCORE.heavy>
35

>  <SCORE.norm>
0.118071

>  <RMSD>
29.557

$$$$
2f4t_lig
 OpenBabel11021811433D
libRbt.so/2013.1/901 2013/11/27
 35 36  0  0  0  0  0  0  0  0999 V2000
   10.6294   13.5232    9.3262 C   0  0  2  0  0  0  0  0  0  0  0  0
   10.2504   13.3970    7.9163 O   0  0  0  0  0  0  0  0  0  0  0  0
    7.3435   10.2032    8.0002 C   0  0  2  0  0  0  0  0  0  0  0  0
    6.1611    9.4006    7.6532 N   0  0  0  0  0  0  0  0  0  0  0  0
   11.0755   15.0046    9.5161 C   0  0  2  0  0  0  0  0  0  0  0  0
   10.0233   15.9090    9.1157 N   0  0  0  0  0  0  0  0  0  0  0  0
    6.9060   11.6948    8.2401 C   0  0  0  0  0  0  0  0  0  0  0  0
    5.0921    9.2870    9.0543 C   0  0  0  0  0  0  0  0  0  0  0  0
    4.1888    8.4629    8.1637 C   0  0  1  0  0  0  0  0  0  0  0  0
    3.8138    7.1947    8.9336 C   0  0  0  0  0  0  0  0  0  0  0  0
    3.1599    6.0793    8.1009 C   0  0  0  0  0  0  0  0  0  0  0  0
    1.9209    6.6029    7.5179 N   0  0  0  0  0  0  0  0  0  0  0  0
    2.9809    9.1337    7.9160 O   0  0  0  0  0  0  0  0  0  0  0  0
    9.4524    7.7528    6.0068 C   0  0  0  0  0  0  0  0  0  0  0  0
   10.9153    7.8036    6.4201 C   0  0  0  0  0  0  0  0  0  0  0  0
   12.3822   15.2819    8.6988 C   0  0  1  0  0  0  0  0  0  0  0  0
   11.7378    8.6963    5.5744 N   0  0  0  0  0  0  0  0  0  0  0  0
   12.8071   16.6210    8.8614 O   0  0  0  0  0  0  0  0  0  0  0  0
    8.1000   12.5911    8.5970 C   0  0  2  0  0  0  0  0  0  0  0  0
    7.6754   13.9761    8.7747 N   0  0  0  0  0  0  0  0  0  0  0  0
   13.2095    9.9753    7.1332 C   0  0  0  0  0  0  0  0  0  0  0  0
   12.5061    9.4507    8.4263 N   0  0  0  0  0  0  0  0  0  0  0  0
   13.1554    8.9746    5.9412 C   0  0  0  0  0  0  0  0  0  0  0  0
    5.1262    9.6575   10.0547 O   0  0  0  0  0  0  0  0  0  0  0  0
   13.4613   14.3080    9.1833 C   0  0  2  0  0  0  0  0  0  0  0  0
   14.6809   14.5147    8.4891 O   0  0  0  0  0  0  0  0  0  0  0  0
    9.1460   12.5317    7.5120 C   0  0  2  0  0  0  0  0  0  0  0  0
   12.9749   12.8418    8.9968 C   0  0  2  0  0  0  0  0  0  0  0  0
   11.7358   12.6120    9.6993 O   0  0  0  0  0  0  0  0  0  0  0  0
    9.6158   11.0306    7.2856 C   0  0  2  0  0  0  0  0  0  0  0  0
   10.6293   11.0128    6.2361 O   0  0  0  0  0  0  0  0  0  0  0  0
   13.9753   11.8604    9.4794 C   0  0  0  0  0  0  0  0  0  0  0  0
   15.1623   12.0949    8.8779 N   0  0  0  0  0  0  0  0  0  0  0  0
    8.3751   10.1702    6.8619 C   0  0  1  0  0  0  0  0  0  0  0  0
    8.7596    8.8528    6.6282 O   0  0  0  0  0  0  0  0  0  0  0  0
  1  2  1  6  0  0  0
  1  5  1  0  0  0  0
  1 29  1  0  0  0  0
  3  4  1  6  0  0  0
  3  7  1  0  0  0  0
  3 34  1  0  0  0  0
  5  6  1  6  0  0  0
  5 16  1  0  0  0  0
  7 19  1  0  0  0  0
  8  4  1  0  0  0  0
  8 24  2  0  0  0  0
  9  8  1  1  0  0  0
  9 10  1  0  0  0  0
  9 13  1  0  0  0  0
 10 11  1  0  0  0  0
 11 12  1  0  0  0  0
 14 15  1  0  0  0  0
 14 35  1  0  0  0  0
 15 17  1  0  0  0  0
 16 18  1  1  0  0  0
 16 25  1  0  0  0  0
 19 20  1  6  0  0  0
 19 27  1  0  0  0  0
 21 22  1  0  0  0  0
 21 23  1  0  0  0  0
 23 17  1  0  0  0  0
 25 26  1  6  0  0  0
 25 28  1  0  0  0  0
 27  2  1  1  0  0  0
 27 30  1  0  0  0  0
 28 29  1  0  0  0  0
 28 32  1  1  0  0  0
 30 31  1  6  0  0  0
 30 34  1  0  0  0  0
 32 33  2  0  0  0  0
 34 35  1  1  0  0  0
M  END
>  <CHROM.1>
-144.63519909,-67.61608319,130.85070211,-166.94226787,-60.15812016,-85.06898796
72.20130171,173.12376823,60.45247314,-75.66602249,34.90330058,-54.37693524
178.97447276,9.41110180,11.10573144,8.08232836,0.55118430,0.16527865,0.36764368

>  <Name>
2f4t_lig

>  <RI>
0

>  <Rbt.Current_Directory>
/home/itssahil/PROJECTS/Mol_Feturizer/New_Systems/rnas/2f4t

>  <Rbt.Executable>
rbdock ($Id: //depot/dev/client3/rdock/2013.1/src/exe/rbdock.cxx#4 $)

>  <Rbt.Library>
libRbt.so (2013.1, Build901 2013/11/27)

>  <Rbt.Parameter_File>
/export/apps/rDock/src/rDock_2013.1_src/data/scripts/dock_solv.prm

>  <Rbt.Receptor>
prm/blind_docking_40.prm

>  <SCORE>
-2.14573

>  <SCORE.INTER>
-5.03934

>  <SCORE.INTER.CONST>
1

>  <SCORE.INTER.POLAR>
-0.831933

>  <SCORE.INTER.ROT>
13

>  <SCORE.INTER.SOLV>
7.27617

>  <SCORE.INTER.VDW>
-15.2785

>  <SCORE.INTER.norm>
-0.143981

>  <SCORE.INTRA>
2.74926

>  <SCORE.INTRA.DIHEDRAL>
-8.79482

>  <SCORE.INTRA.DIHEDRAL.0>
23.8882

>  <SCORE.INTRA.POLAR>
0

>  <SCORE.INTRA.POLAR.0>
0

>  <SCORE.INTRA.REPUL>
0

>  <SCORE.INTRA.REPUL.0>
0

>  <SCORE.INTRA.SOLV>
12.5606

>  <SCORE.INTRA.SOLV.lig_0>
-97.6888

>  <SCORE.INTRA.VDW>
0.866375

>  <SCORE.INTRA.VDW.0>
-3.9206

>  <SCORE.INTRA.norm>
0.0785502

>  <SCORE.RESTR>
0.144349

>  <SCORE.RESTR.CAVITY>
0.144349

>  <SCORE.RESTR.norm>
0.00412426

>  <SCORE.SYSTEM>
0

>  <SCORE.SYSTEM.CONST>
0

>  <SCORE.SYSTEM.DIHEDRAL>
0

>  <SCORE.SYSTEM.SOLV>
0

>  <SCORE.SYSTEM.norm>
0

>  <SCORE.heavy>
35

>  <SCORE.norm>
-0.0613066

>  <RMSD>
29.569

$$$$
2f4t_lig
 OpenBabel11021811433D
libRbt.so/2013.1/901 2013/11/27
 35 36  0  0  0  0  0  0  0  0999 V2000
   11.7892   14.8192    9.8401 C   0  0  2  0  0  0  0  0  0  0  0  0
   11.0856   14.8890    8.5567 O   0  0  0  0  0  0  0  0  0  0  0  0
    7.4837   12.6220    9.2940 C   0  0  2  0  0  0  0  0  0  0  0  0
    6.0715   12.2149    9.2423 N   0  0  0  0  0  0  0  0  0  0  0  0
   13.3089   14.8314    9.4936 C   0  0  2  0  0  0  0  0  0  0  0  0
   13.6440   15.9984    8.7118 N   0  0  0  0  0  0  0  0  0  0  0  0
    7.5715   14.1420    9.6880 C   0  0  0  0  0  0  0  0  0  0  0  0
    5.8071   10.8583   10.3416 C   0  0  0  0  0  0  0  0  0  0  0  0
    4.3636   10.9151    9.8930 C   0  0  1  0  0  0  0  0  0  0  0  0
    4.2414   10.0705    8.6228 C   0  0  0  0  0  0  0  0  0  0  0  0
    4.5839    8.5794    8.7793 C   0  0  0  0  0  0  0  0  0  0  0  0
    4.2468    7.8934    7.5284 N   0  0  0  0  0  0  0  0  0  0  0  0
    3.5201   10.3115   10.8387 O   0  0  0  0  0  0  0  0  0  0  0  0
    7.4580    9.8128    7.2885 C   0  0  0  0  0  0  0  0  0  0  0  0
    8.4816    8.9154    6.6101 C   0  0  0  0  0  0  0  0  0  0  0  0
   13.6961   13.5227    8.7256 C   0  0  1  0  0  0  0  0  0  0  0  0
    9.8639    9.1245    7.0940 N   0  0  0  0  0  0  0  0  0  0  0  0
   15.0737   13.5117    8.4056 O   0  0  0  0  0  0  0  0  0  0  0  0
    9.0241   14.6344    9.7493 C   0  0  2  0  0  0  0  0  0  0  0  0
    9.0778   16.0558   10.0765 N   0  0  0  0  0  0  0  0  0  0  0  0
   10.7869    7.1115    5.9418 C   0  0  0  0  0  0  0  0  0  0  0  0
   11.7017    5.8469    6.0182 N   0  0  0  0  0  0  0  0  0  0  0  0
   10.7853    7.9628    7.2458 C   0  0  0  0  0  0  0  0  0  0  0  0
    6.4301   10.2955   11.0006 O   0  0  0  0  0  0  0  0  0  0  0  0
   13.3360   12.3268    9.6131 C   0  0  2  0  0  0  0  0  0  0  0  0
   13.6740   11.1038    8.9792 O   0  0  0  0  0  0  0  0  0  0  0  0
    9.7135   14.4067    8.4272 C   0  0  2  0  0  0  0  0  0  0  0  0
   11.8182   12.3575    9.9543 C   0  0  2  0  0  0  0  0  0  0  0  0
   11.4562   13.5943   10.6031 O   0  0  0  0  0  0  0  0  0  0  0  0
    9.6561   12.8673    8.0375 C   0  0  2  0  0  0  0  0  0  0  0  0
   10.3362   12.6845    6.7595 O   0  0  0  0  0  0  0  0  0  0  0  0
   11.4258   11.2336   10.8374 C   0  0  0  0  0  0  0  0  0  0  0  0
   10.2110   10.7728   10.4665 N   0  0  0  0  0  0  0  0  0  0  0  0
    8.1546   12.4291    7.9251 C   0  0  1  0  0  0  0  0  0  0  0  0
    8.0701   11.0894    7.5566 O   0  0  0  0  0  0  0  0  0  0  0  0
  1  2  1  6  0  0  0
  1  5  1  0  0  0  0
  1 29  1  0  0  0  0
  3  4  1  6  0  0  0
  3  7  1  0  0  0  0
  3 34  1  0  0  0  0
  5  6  1  6  0  0  0
  5 16  1  0  0  0  0
  7 19  1  0  0  0  0
  8  4  1  0  0  0  0
  8 24  2  0  0  0  0
  9  8  1  1  0  0  0
  9 10  1  0  0  0  0
  9 13  1  0  0  0  0
 10 11  1  0  0  0  0
 11 12  1  0  0  0  0
 14 15  1  0  0  0  0
 14 35  1  0  0  0  0
 15 17  1  0  0  0  0
 16 18  1  1  0  0  0
 16 25  1  0  0  0  0
 19 20  1  6  0  0  0
 19 27  1  0  0  0  0
 21 22  1  0  0  0  0
 21 23  1  0  0  0  0
 23 17  1  0  0  0  0
 25 26  1  6  0  0  0
 25 28  1  0  0  0  0
 27  2  1  1  0  0  0
 27 30  1  0  0  0  0
 28 29  1  0  0  0  0
 28 32  1  1  0  0  0
 30 31  1  6  0  0  0
 30 34  1  0  0  0  0
 32 33  2  0  0  0  0
 34 35  1  1  0  0  0
M  END
>  <CHROM.1>
156.80029905,-122.99630316,86.41591048,61.52604259,172.62729198,35.08287736
170.01937348,142.59831597,-178.61736792,50.16984736,31.72391073,-141.62569597
52.44075043,9.38015007,11.69392298,8.79448771,0.50352697,0.18669231,0.40095260

>  <Name>
2f4t_lig

>  <RI>
0

>  <Rbt.Current_Directory>
/home/itssahil/PROJECTS/Mol_Feturizer/New_Systems/rnas/2f4t

>  <Rbt.Executable>
rbdock ($Id: //depot/dev/client3/rdock/2013.1/src/exe/rbdock.cxx#4 $)

>  <Rbt.Library>
libRbt.so (2013.1, Build901 2013/11/27)

>  <Rbt.Parameter_File>
/export/apps/rDock/src/rDock_2013.1_src/data/scripts/dock_solv.prm

>  <Rbt.Receptor>
prm/blind_docking_80.prm

>  <SCORE>
-3.45708

>  <SCORE.INTER>
-1.75763

>  <SCORE.INTER.CONST>
1

>  <SCORE.INTER.POLAR>
-1.15548

>  <SCORE.INTER.ROT>
13

>  <SCORE.INTER.SOLV>
18.3076

>  <SCORE.INTER.VDW>
-15.6894

>  <SCORE.INTER.norm>
-0.0502181

>  <SCORE.INTRA>
-2.71239

>  <SCORE.INTRA.DIHEDRAL>
-10.5257

>  <SCORE.INTRA.DIHEDRAL.0>
23.8882

>  <SCORE.INTRA.POLAR>
0

>  <SCORE.INTRA.POLAR.0>
0

>  <SCORE.INTRA.REPUL>
0.00604484

>  <SCORE.INTRA.REPUL.0>
0

>  <SCORE.INTRA.SOLV>
3.60906

>  <SCORE.INTRA.SOLV.lig_0>
-97.6888

>  <SCORE.INTRA.VDW>
0.715703

>  <SCORE.INTRA.VDW.0>
-3.9206

>  <SCORE.INTRA.norm>
-0.0774968

>  <SCORE.RESTR>
1.01294

>  <SCORE.RESTR.CAVITY>
1.01294

>  <SCORE.RESTR.norm>
0.0289412

>  <SCORE.SYSTEM>
0

>  <SCORE.SYSTEM.CONST>
0

>  <SCORE.SYSTEM.DIHEDRAL>
0

>  <SCORE.SYSTEM.SOLV>
0

>  <SCORE.SYSTEM.norm>
0

>  <SCORE.heavy>
35

>  <SCORE.norm>
-0.0987737

>  <RMSD>
29.602

$$$$
2f4t_lig
 OpenBabel11021811433D
libRbt.so/2013.1/901 2013/11/27
 35 36  0  0  0  0  0  0  0  0999 V2000
   11.7295   14.5069    9.8358 C   0  0  2  0  0  0  0  0  0  0  0  0
   11.0655   14.5728    8.5312 O   0  0  0  0  0  0  0  0  0  0  0  0
    7.2909   12.5987    9.2473 C   0  0  2  0  0  0  0  0  0  0  0  0
    5.8538   12.2950    9.1742 N   0  0  0  0  0  0  0  0  0  0  0  0
   13.2561   14.6213    9.5426 C   0  0  2  0  0  0  0  0  0  0  0  0
   13.5445   15.8294    8.8059 N   0  0  0  0  0  0  0  0  0  0  0  0
    7.4826   14.1191    9.6012 C   0  0  0  0  0  0  0  0  0  0  0  0
    5.5017   10.8655   10.1497 C   0  0  0  0  0  0  0  0  0  0  0  0
    4.0635   11.0609    9.7234 C   0  0  1  0  0  0  0  0  0  0  0  0
    3.8156   10.1620    8.5100 C   0  0  0  0  0  0  0  0  0  0  0  0
    4.1362    8.6711    8.7093 C   0  0  0  0  0  0  0  0  0  0  0  0
    3.9679    7.9858    7.4244 N   0  0  0  0  0  0  0  0  0  0  0  0
    3.1801   10.6152   10.7190 O   0  0  0  0  0  0  0  0  0  0  0  0
    7.1005    9.7720    7.1975 C   0  0  0  0  0  0  0  0  0  0  0  0
    8.0753    8.6061    7.2616 C   0  0  0  0  0  0  0  0  0  0  0  0
   13.7479   13.3621    8.7520 C   0  0  1  0  0  0  0  0  0  0  0  0
    9.4211    8.9315    6.7405 N   0  0  0  0  0  0  0  0  0  0  0  0
   15.1333   13.4439    8.4797 O   0  0  0  0  0  0  0  0  0  0  0  0
    8.9662   14.5051    9.6824 C   0  0  2  0  0  0  0  0  0  0  0  0
    9.1180   15.9277    9.9714 N   0  0  0  0  0  0  0  0  0  0  0  0
   11.8389    8.5131    6.2814 C   0  0  0  0  0  0  0  0  0  0  0  0
   12.8699    7.4803    5.7227 N   0  0  0  0  0  0  0  0  0  0  0  0
   10.4756    7.8795    6.6881 C   0  0  0  0  0  0  0  0  0  0  0  0
    6.0875   10.2043   10.7486 O   0  0  0  0  0  0  0  0  0  0  0  0
   13.4329   12.1204    9.5927 C   0  0  2  0  0  0  0  0  0  0  0  0
   13.8660   10.9397    8.9368 O   0  0  0  0  0  0  0  0  0  0  0  0
    9.6644   14.1889    8.3834 C   0  0  2  0  0  0  0  0  0  0  0  0
   11.9057   12.0492    9.8819 C   0  0  2  0  0  0  0  0  0  0  0  0
   11.4474   13.2418   10.5522 O   0  0  0  0  0  0  0  0  0  0  0  0
    9.5015   12.6471    8.0351 C   0  0  2  0  0  0  0  0  0  0  0  0
   10.1928   12.3776    6.7787 O   0  0  0  0  0  0  0  0  0  0  0  0
   11.5543   10.8776   10.7190 C   0  0  0  0  0  0  0  0  0  0  0  0
   11.1771    9.8528    9.9232 N   0  0  0  0  0  0  0  0  0  0  0  0
    7.9743   12.3171    7.9002 C   0  0  1  0  0  0  0  0  0  0  0  0
    7.7987   10.9770    7.5669 O   0  0  0  0  0  0  0  0  0  0  0  0
  1  2  1  6  0  0  0
  1  5  1  0  0  0  0
  1 29  1  0  0  0  0
  3  4  1  6  0  0  0
  3  7  1  0  0  0  0
  3 34  1  0  0  0  0
  5  6  1  6  0  0  0
  5 16  1  0  0  0  0
  7 19  1  0  0  0  0
  8  4  1  0  0  0  0
  8 24  2  0  0  0  0
  9  8  1  1  0  0  0
  9 10  1  0  0  0  0
  9 13  1  0  0  0  0
 10 11  1  0  0  0  0
 11 12  1  0  0  0  0
 14 15  1  0  0  0  0
 14 35  1  0  0  0  0
 15 17  1  0  0  0  0
 16 18  1  1  0  0  0
 16 25  1  0  0  0  0
 19 20  1  6  0  0  0
 19 27  1  0  0  0  0
 21 22  1  0  0  0  0
 21 23  1  0  0  0  0
 23 17  1  0  0  0  0
 25 26  1  6  0  0  0
 25 28  1  0  0  0  0
 27  2  1  1  0  0  0
 27 30  1  0  0  0  0
 28 29  1  0  0  0  0
 28 32  1  1  0  0  0
 30 31  1  6  0  0  0
 30 34  1  0  0  0  0
 32 33  2  0  0  0  0
 34 35  1  1  0  0  0
M  END
>  <CHROM.1>
165.63306662,-130.02657870,95.49789053,55.20092443,-174.59307852,-40.32211654
-171.95356921,-177.73623185,-159.98842570,-172.62444719,30.85415734,-94.89937808
65.91517172,9.33050924,11.64573654,8.72711888,0.34116201,0.15452940,0.41830566

>  <Name>
2f4t_lig

>  <RI>
0

>  <Rbt.Current_Directory>
/home/itssahil/PROJECTS/Mol_Feturizer/New_Systems/rnas/2f4t

>  <Rbt.Executable>
rbdock ($Id: //depot/dev/client3/rdock/2013.1/src/exe/rbdock.cxx#4 $)

>  <Rbt.Library>
libRbt.so (2013.1, Build901 2013/11/27)

>  <Rbt.Parameter_File>
/export/apps/rDock/src/rDock_2013.1_src/data/scripts/dock_solv.prm

>  <Rbt.Receptor>
prm/blind_docking_80.prm

>  <SCORE>
-3.05292

>  <SCORE.INTER>
1.14679

>  <SCORE.INTER.CONST>
1

>  <SCORE.INTER.POLAR>
-0.725828

>  <SCORE.INTER.ROT>
13

>  <SCORE.INTER.SOLV>
15.9156

>  <SCORE.INTER.VDW>
-14.3879

>  <SCORE.INTER.norm>
0.0327653

>  <SCORE.INTRA>
-5.15444

>  <SCORE.INTRA.DIHEDRAL>
-11.9084

>  <SCORE.INTRA.DIHEDRAL.0>
23.8882

>  <SCORE.INTRA.POLAR>
0

>  <SCORE.INTRA.POLAR.0>
0

>  <SCORE.INTRA.REPUL>
0

>  <SCORE.INTRA.REPUL.0>
0

>  <SCORE.INTRA.SOLV>
3.60444

>  <SCORE.INTRA.SOLV.lig_0>
-97.6888

>  <SCORE.INTRA.VDW>
-1.00244

>  <SCORE.INTRA.VDW.0>
-3.9206

>  <SCORE.INTRA.norm>
-0.14727

>  <SCORE.RESTR>
0.954728

>  <SCORE.RESTR.CAVITY>
0.954728

>  <SCORE.RESTR.norm>
0.027278

>  <SCORE.SYSTEM>
0

>  <SCORE.SYSTEM.CONST>
0

>  <SCORE.SYSTEM.DIHEDRAL>
0

>  <SCORE.SYSTEM.SOLV>
0

>  <SCORE.SYSTEM.norm>
0

>  <SCORE.heavy>
35

>  <SCORE.norm>
-0.0872264

>  <RMSD>
29.611

$$$$
2f4t_lig
 OpenBabel11021811433D
libRbt.so/2013.1/901 2013/11/27
 35 36  0  0  0  0  0  0  0  0999 V2000
    7.3354    8.8782    8.4622 C   0  0  2  0  0  0  0  0  0  0  0  0
    7.8792    9.3252    7.1770 O   0  0  0  0  0  0  0  0  0  0  0  0
   11.9134   10.3909    8.2938 C   0  0  2  0  0  0  0  0  0  0  0  0
   13.3381   10.7329    8.1679 N   0  0  0  0  0  0  0  0  0  0  0  0
    5.7977    8.7389    8.2483 C   0  0  2  0  0  0  0  0  0  0  0  0
    5.5146    7.8392    7.1548 N   0  0  0  0  0  0  0  0  0  0  0  0
   11.6239    9.0695    7.4914 C   0  0  0  0  0  0  0  0  0  0  0  0
   13.8010   11.8263    9.4751 C   0  0  0  0  0  0  0  0  0  0  0  0
   15.1863   11.7927    8.8684 C   0  0  1  0  0  0  0  0  0  0  0  0
   15.4695   13.1799    8.2875 C   0  0  0  0  0  0  0  0  0  0  0  0
   15.4356   14.3426    9.2936 C   0  0  0  0  0  0  0  0  0  0  0  0
   15.5002   15.6026    8.5470 N   0  0  0  0  0  0  0  0  0  0  0  0
   16.1616   11.5830    9.8558 O   0  0  0  0  0  0  0  0  0  0  0  0
   11.2505   14.1033    8.7184 C   0  0  0  0  0  0  0  0  0  0  0  0
    9.7972   14.5501    8.7604 C   0  0  0  0  0  0  0  0  0  0  0  0
    5.1617   10.1455    7.9846 C   0  0  1  0  0  0  0  0  0  0  0  0
    9.6294   15.9882    9.0644 N   0  0  0  0  0  0  0  0  0  0  0  0
    3.7643   10.0418    7.7924 O   0  0  0  0  0  0  0  0  0  0  0  0
   10.1463    8.6619    7.5738 C   0  0  2  0  0  0  0  0  0  0  0  0
    9.8949    7.4573    6.7891 N   0  0  0  0  0  0  0  0  0  0  0  0
    7.3032   15.8812    9.9638 C   0  0  0  0  0  0  0  0  0  0  0  0
    7.9289   15.5582   11.3588 N   0  0  0  0  0  0  0  0  0  0  0  0
    8.2781   16.6131    8.9947 C   0  0  0  0  0  0  0  0  0  0  0  0
   13.2855   12.2737   10.2956 O   0  0  0  0  0  0  0  0  0  0  0  0
    5.4789   11.0430    9.1852 C   0  0  2  0  0  0  0  0  0  0  0  0
    4.9183   12.3349    9.0159 O   0  0  0  0  0  0  0  0  0  0  0  0
    9.2640    9.7745    7.0650 C   0  0  2  0  0  0  0  0  0  0  0  0
    7.0193   11.1434    9.3801 C   0  0  2  0  0  0  0  0  0  0  0  0
    7.6070    9.8377    9.5571 O   0  0  0  0  0  0  0  0  0  0  0  0
    9.5286   11.1052    7.8922 C   0  0  2  0  0  0  0  0  0  0  0  0
    8.6558   12.1551    7.3776 O   0  0  0  0  0  0  0  0  0  0  0  0
    7.3765   11.9799   10.5504 C   0  0  0  0  0  0  0  0  0  0  0  0
    7.7894   13.1945   10.1263 N   0  0  0  0  0  0  0  0  0  0  0  0
   11.0332   11.5146    7.7249 C   0  0  1  0  0  0  0  0  0  0  0  0
   11.2909   12.6950    8.4164 O   0  0  0  0  0  0  0  0  0  0  0  0
  1  2  1  6  0  0  0
  1  5  1  0  0  0  0
  1 29  1  0  0  0  0
  3  4  1  6  0  0  0
  3  7  1  0  0  0  0
  3 34  1  0  0  0  0
  5  6  1  6  0  0  0
  5 16  1  0  0  0  0
  7 19  1  0  0  0  0
  8  4  1  0  0  0  0
  8 24  2  0  0  0  0
  9  8  1  1  0  0  0
  9 10  1  0  0  0  0
  9 13  1  0  0  0  0
 10 11  1  0  0  0  0
 11 12  1  0  0  0  0
 14 15  1  0  0  0  0
 14 35  1  0  0  0  0
 15 17  1  0  0  0  0
 16 18  1  1  0  0  0
 16 25  1  0  0  0  0
 19 20  1  6  0  0  0
 19 27  1  0  0  0  0
 21 22  1  0  0  0  0
 21 23  1  0  0  0  0
 23 17  1  0  0  0  0
 25 26  1  6  0  0  0
 25 28  1  0  0  0  0
 27  2  1  1  0  0  0
 27 30  1  0  0  0  0
 28 29  1  0  0  0  0
 28 32  1  1  0  0  0
 30 31  1  6  0  0  0
 30 34  1  0  0  0  0
 32 33  2  0  0  0  0
 34 35  1  1  0  0  0
M  END
>  <CHROM.1>
169.72134383,-159.94997139,111.59733820,59.98590788,-170.61640049,179.98711935
53.44956255,173.30127072,43.06816668,58.18058097,55.90281472,-102.99612220
169.88606082,9.74274610,11.76984773,8.65756235,-2.80675737,0.02642789,0.29873318

>  <Name>
2f4t_lig

>  <RI>
0

>  <Rbt.Current_Directory>
/home/itssahil/PROJECTS/Mol_Feturizer/New_Systems/rnas/2f4t

>  <Rbt.Executable>
rbdock ($Id: //depot/dev/client3/rdock/2013.1/src/exe/rbdock.cxx#4 $)

>  <Rbt.Library>
libRbt.so (2013.1, Build901 2013/11/27)

>  <Rbt.Parameter_File>
/export/apps/rDock/src/rDock_2013.1_src/data/scripts/dock_solv.prm

>  <Rbt.Receptor>
prm/blind_docking_100.prm

>  <SCORE>
1.74972

>  <SCORE.INTER>
3.9984

>  <SCORE.INTER.CONST>
1

>  <SCORE.INTER.POLAR>
0

>  <SCORE.INTER.ROT>
13

>  <SCORE.INTER.SOLV>
10.9294

>  <SCORE.INTER.VDW>
-13.2442

>  <SCORE.INTER.norm>
0.11424

>  <SCORE.INTRA>
-4.49138

>  <SCORE.INTRA.DIHEDRAL>
-17.5824

>  <SCORE.INTRA.DIHEDRAL.0>
23.8882

>  <SCORE.INTRA.POLAR>
0

>  <SCORE.INTRA.POLAR.0>
0

>  <SCORE.INTRA.REPUL>
0

>  <SCORE.INTRA.REPUL.0>
0

>  <SCORE.INTRA.SOLV>
6.07467

>  <SCORE.INTRA.SOLV.lig_0>
-97.6888

>  <SCORE.INTRA.VDW>
1.26247

>  <SCORE.INTRA.VDW.0>
-3.9206

>  <SCORE.INTRA.norm>
-0.128325

>  <SCORE.RESTR>
2.2427

>  <SCORE.RESTR.CAVITY>
2.2427

>  <SCORE.RESTR.norm>
0.0640771

>  <SCORE.SYSTEM>
0

>  <SCORE.SYSTEM.CONST>
0

>  <SCORE.SYSTEM.DIHEDRAL>
0

>  <SCORE.SYSTEM.SOLV>
0

>  <SCORE.SYSTEM.norm>
0

>  <SCORE.heavy>
35

>  <SCORE.norm>
0.0499919

>  <RMSD>
29.615

$$$$
2f4t_lig
 OpenBabel11021811433D
libRbt.so/2013.1/901 2013/11/27
 35 36  0  0  0  0  0  0  0  0999 V2000
   10.7963   14.5653    9.6760 C   0  0  2  0  0  0  0  0  0  0  0  0
   10.4009   14.5612    8.2651 O   0  0  0  0  0  0  0  0  0  0  0  0
    7.0141   11.8810    8.3213 C   0  0  2  0  0  0  0  0  0  0  0  0
    5.7554   11.2351    7.9197 N   0  0  0  0  0  0  0  0  0  0  0  0
   12.2301   15.1757    9.7145 C   0  0  2  0  0  0  0  0  0  0  0  0
   12.2431   16.4849    9.1051 N   0  0  0  0  0  0  0  0  0  0  0  0
    6.8067   13.4394    8.3656 C   0  0  0  0  0  0  0  0  0  0  0  0
    5.0701   10.3686    9.2976 C   0  0  0  0  0  0  0  0  0  0  0  0
    3.9438    9.9892    8.3618 C   0  0  1  0  0  0  0  0  0  0  0  0
    3.3004    8.7125    8.9078 C   0  0  0  0  0  0  0  0  0  0  0  0
    4.1656    7.4437    8.8265 C   0  0  0  0  0  0  0  0  0  0  0  0
    3.3446    6.2972    9.2272 N   0  0  0  0  0  0  0  0  0  0  0  0
    2.9334   10.9635    8.3718 O   0  0  0  0  0  0  0  0  0  0  0  0
    8.9799    8.9341    6.9830 C   0  0  0  0  0  0  0  0  0  0  0  0
    9.6243    9.0161    5.6077 C   0  0  0  0  0  0  0  0  0  0  0  0
   13.2406   14.2211    8.9933 C   0  0  1  0  0  0  0  0  0  0  0  0
   10.7636    8.0889    5.4325 N   0  0  0  0  0  0  0  0  0  0  0  0
   14.5500   14.7549    9.0212 O   0  0  0  0  0  0  0  0  0  0  0  0
    8.0912   14.1765    8.7694 C   0  0  2  0  0  0  0  0  0  0  0  0
    7.8850   15.6213    8.7638 N   0  0  0  0  0  0  0  0  0  0  0  0
   12.6159    9.2279    6.6585 C   0  0  0  0  0  0  0  0  0  0  0  0
   13.3977    9.3284    8.0078 N   0  0  0  0  0  0  0  0  0  0  0  0
   11.7693    7.9281    6.5206 C   0  0  0  0  0  0  0  0  0  0  0  0
    5.3677   10.2187   10.3115 O   0  0  0  0  0  0  0  0  0  0  0  0
   13.1944   12.8610    9.6972 C   0  0  2  0  0  0  0  0  0  0  0  0
   14.1001   11.9482    9.0986 O   0  0  0  0  0  0  0  0  0  0  0  0
    9.2140   13.8354    7.8218 C   0  0  2  0  0  0  0  0  0  0  0  0
   11.7469   12.2916    9.6565 C   0  0  2  0  0  0  0  0  0  0  0  0
   10.8113   13.2063   10.2645 O   0  0  0  0  0  0  0  0  0  0  0  0
    9.4503   12.2642    7.7954 C   0  0  2  0  0  0  0  0  0  0  0  0
   10.5446   11.9729    6.8752 O   0  0  0  0  0  0  0  0  0  0  0  0
   11.6449   10.9868   10.3522 C   0  0  0  0  0  0  0  0  0  0  0  0
   10.9764   10.1109    9.5702 N   0  0  0  0  0  0  0  0  0  0  0  0
    8.1323   11.5619    7.3168 C   0  0  1  0  0  0  0  0  0  0  0  0
    8.3158   10.1834    7.2559 O   0  0  0  0  0  0  0  0  0  0  0  0
  1  2  1  6  0  0  0
  1  5  1  0  0  0  0
  1 29  1  0  0  0  0
  3  4  1  6  0  0  0
  3  7  1  0  0  0  0
  3 34  1  0  0  0  0
  5  6  1  6  0  0  0
  5 16  1  0  0  0  0
  7 19  1  0  0  0  0
  8  4  1  0  0  0  0
  8 24  2  0  0  0  0
  9  8  1  1  0  0  0
  9 10  1  0  0  0  0
  9 13  1  0  0  0  0
 10 11  1  0  0  0  0
 11 12  1  0  0  0  0
 14 15  1  0  0  0  0
 14 35  1  0  0  0  0
 15 17  1  0  0  0  0
 16 18  1  1  0  0  0
 16 25  1  0  0  0  0
 19 20  1  6  0  0  0
 19 27  1  0  0  0  0
 21 22  1  0  0  0  0
 21 23  1  0  0  0  0
 23 17  1  0  0  0  0
 25 26  1  6  0  0  0
 25 28  1  0  0  0  0
 27  2  1  1  0  0  0
 27 30  1  0  0  0  0
 28 29  1  0  0  0  0
 28 32  1  1  0  0  0
 30 31  1  6  0  0  0
 30 34  1  0  0  0  0
 32 33  2  0  0  0  0
 34 35  1  1  0  0  0
M  END
>  <CHROM.1>
168.69844012,-109.88757621,156.49096951,-68.87142978,-172.87719324,155.92686251
-43.98662754,-43.00590043,163.18722376,-69.42158466,46.84847348,-132.25567472
-160.82309763,9.22561286,11.53429441,8.42609915,0.47082461,0.10623057,0.29428745

>  <Name>
2f4t_lig

>  <RI>
0

>  <Rbt.Current_Directory>
/home/itssahil/PROJECTS/Mol_Feturizer/New_Systems/rnas/2f4t

>  <Rbt.Executable>
rbdock ($Id: //depot/dev/client3/rdock/2013.1/src/exe/rbdock.cxx#4 $)

>  <Rbt.Library>
libRbt.so (2013.1, Build901 2013/11/27)

>  <Rbt.Parameter_File>
/export/apps/rDock/src/rDock_2013.1_src/data/scripts/dock_solv.prm

>  <Rbt.Receptor>
prm/blind_docking_40.prm

>  <SCORE>
-6.15818

>  <SCORE.INTER>
-2.09959

>  <SCORE.INTER.CONST>
1

>  <SCORE.INTER.POLAR>
-0.513476

>  <SCORE.INTER.ROT>
13

>  <SCORE.INTER.SOLV>
11.8328

>  <SCORE.INTER.VDW>
-15.8991

>  <SCORE.INTER.norm>
-0.0599882

>  <SCORE.INTRA>
-4.15842

>  <SCORE.INTRA.DIHEDRAL>
-12.5043

>  <SCORE.INTRA.DIHEDRAL.0>
23.8882

>  <SCORE.INTRA.POLAR>
0

>  <SCORE.INTRA.POLAR.0>
0

>  <SCORE.INTRA.REPUL>
0

>  <SCORE.INTRA.REPUL.0>
0

>  <SCORE.INTRA.SOLV>
5.30892

>  <SCORE.INTRA.SOLV.lig_0>
-97.6888

>  <SCORE.INTRA.VDW>
-0.560745

>  <SCORE.INTRA.VDW.0>
-3.9206

>  <SCORE.INTRA.norm>
-0.118812

>  <SCORE.RESTR>
0.0998243

>  <SCORE.RESTR.CAVITY>
0.0998243

>  <SCORE.RESTR.norm>
0.00285212

>  <SCORE.SYSTEM>
0

>  <SCORE.SYSTEM.CONST>
0

>  <SCORE.SYSTEM.DIHEDRAL>
0

>  <SCORE.SYSTEM.SOLV>
0

>  <SCORE.SYSTEM.norm>
0

>  <SCORE.heavy>
35

>  <SCORE.norm>
-0.175948

>  <RMSD>
29.617

$$$$
2f4t_lig
 OpenBabel11021811433D
libRbt.so/2013.1/901 2013/11/27
 35 36  0  0  0  0  0  0  0  0999 V2000
    5.2076    9.9334    6.6311 C   0  0  2  0  0  0  0  0  0  0  0  0
    5.2572   11.1319    7.4728 O   0  0  0  0  0  0  0  0  0  0  0  0
    8.9830   13.2515    8.0047 C   0  0  2  0  0  0  0  0  0  0  0  0
   10.1891   13.7855    8.6550 N   0  0  0  0  0  0  0  0  0  0  0  0
    3.8380    9.9909    5.8891 C   0  0  2  0  0  0  0  0  0  0  0  0
    3.7107   11.2244    5.1491 N   0  0  0  0  0  0  0  0  0  0  0  0
    7.7225   13.6111    8.8739 C   0  0  0  0  0  0  0  0  0  0  0  0
   11.2419   14.5152    7.4393 C   0  0  0  0  0  0  0  0  0  0  0  0
   12.1673   14.8401    8.5909 C   0  0  1  0  0  0  0  0  0  0  0  0
   13.5988   14.8290    8.0499 C   0  0  0  0  0  0  0  0  0  0  0  0
   14.7116   14.8823    9.1101 C   0  0  0  0  0  0  0  0  0  0  0  0
   16.0033   14.9629    8.4215 N   0  0  0  0  0  0  0  0  0  0  0  0
   11.9443   16.1436    9.0615 O   0  0  0  0  0  0  0  0  0  0  0  0
   11.5828   11.3140    6.7540 C   0  0  0  0  0  0  0  0  0  0  0  0
   12.3773   10.8501    7.9652 C   0  0  0  0  0  0  0  0  0  0  0  0
    2.6640    9.8385    6.9142 C   0  0  1  0  0  0  0  0  0  0  0  0
   12.0818   11.6171    9.1952 N   0  0  0  0  0  0  0  0  0  0  0  0
    1.4109    9.8833    6.2599 O   0  0  0  0  0  0  0  0  0  0  0  0
    6.4264   13.0711    8.2533 C   0  0  2  0  0  0  0  0  0  0  0  0
    5.2771   13.3819    9.0975 N   0  0  0  0  0  0  0  0  0  0  0  0
   10.4111   10.1639   10.3477 C   0  0  0  0  0  0  0  0  0  0  0  0
    9.9290    9.5150   11.6850 N   0  0  0  0  0  0  0  0  0  0  0  0
   11.7778   10.9010   10.4665 C   0  0  0  0  0  0  0  0  0  0  0  0
   11.1901   14.6390    6.3804 O   0  0  0  0  0  0  0  0  0  0  0  0
    2.8447    8.5062    7.6490 C   0  0  2  0  0  0  0  0  0  0  0  0
    1.8025    8.2987    8.5885 O   0  0  0  0  0  0  0  0  0  0  0  0
    6.5134   11.5766    8.0698 C   0  0  2  0  0  0  0  0  0  0  0  0
    4.2281    8.4765    8.3608 C   0  0  2  0  0  0  0  0  0  0  0  0
    5.3016    8.6830    7.4192 O   0  0  0  0  0  0  0  0  0  0  0  0
    7.7673   11.2076    7.1663 C   0  0  2  0  0  0  0  0  0  0  0  0
    7.8158    9.7581    7.0058 O   0  0  0  0  0  0  0  0  0  0  0  0
    4.4624    7.1925    9.0633 C   0  0  0  0  0  0  0  0  0  0  0  0
    4.2450    7.3574   10.3866 N   0  0  0  0  0  0  0  0  0  0  0  0
    9.0693   11.7231    7.8722 C   0  0  1  0  0  0  0  0  0  0  0  0
   10.1906   11.3898    7.1176 O   0  0  0  0  0  0  0  0  0  0  0  0
  1  2  1  1  0  0  0
  1  5  1  0  0  0  0
  1 29  1  0  0  0  0
  3  4  1  1  0  0  0
  3  7  1  0  0  0  0
  3 34  1  0  0  0  0
  5  6  1  1  0  0  0
  5 16  1  0  0  0  0
  7 19  1  0  0  0  0
  8  4  1  0  0  0  0
  8 24  2  0  0  0  0
  9  8  1  6  0  0  0
  9 10  1  0  0  0  0
  9 13  1  0  0  0  0
 10 11  1  0  0  0  0
 11 12  1  0  0  0  0
 14 15  1  0  0  0  0
 14 35  1  0  0  0  0
 15 17  1  0  0  0  0
 16 18  1  6  0  0  0
 16 25  1  0  0  0  0
 19 20  1  1  0  0  0
 19 27  1  0  0  0  0
 21 22  1  0  0  0  0
 21 23  1  0  0  0  0
 23 17  1  0  0  0  0
 25 26  1  1  0  0  0
 25 28  1  0  0  0  0
 27  2  1  6  0  0  0
 27 30  1  0  0  0  0
 28 29  1  0  0  0  0
 28 32  1  6  0  0  0
 30 31  1  1  0  0  0
 30 34  1  0  0  0  0
 32 33  2  0  0  0  0
 34 35  1  6  0  0  0
M  END
>  <CHROM.1>
-165.43768365,-137.25502556,149.47528132,-169.24954246,-175.92080925,-50.03775602
48.48538937,130.86266912,-173.54190503,-68.02152440,152.13919982,-101.75182045
59.67841979,8.10712220,11.49494958,8.08635353,2.78842407,0.32047728,2.62710467

>  <Name>
2f4t_lig

>  <RI>
0

>  <Rbt.Current_Directory>
/home/itssahil/PROJECTS/Mol_Feturizer/New_Systems/rnas/2f4t

>  <Rbt.Executable>
rbdock ($Id: //depot/dev/client3/rdock/2013.1/src/exe/rbdock.cxx#4 $)

>  <Rbt.Library>
libRbt.so (2013.1, Build901 2013/11/27)

>  <Rbt.Parameter_File>
/export/apps/rDock/src/rDock_2013.1_src/data/scripts/dock_solv.prm

>  <Rbt.Receptor>
prm/blind_docking_40.prm

>  <SCORE>
-3.4167

>  <SCORE.INTER>
1.85351

>  <SCORE.INTER.CONST>
1

>  <SCORE.INTER.POLAR>
0

>  <SCORE.INTER.ROT>
13

>  <SCORE.INTER.SOLV>
12.2759

>  <SCORE.INTER.VDW>
-15.123

>  <SCORE.INTER.norm>
0.0529575

>  <SCORE.INTRA>
-6.32223

>  <SCORE.INTRA.DIHEDRAL>
-13.3266

>  <SCORE.INTRA.DIHEDRAL.0>
23.8882

>  <SCORE.INTRA.POLAR>
0

>  <SCORE.INTRA.POLAR.0>
0

>  <SCORE.INTRA.REPUL>
0

>  <SCORE.INTRA.REPUL.0>
0

>  <SCORE.INTRA.SOLV>
2.39338

>  <SCORE.INTRA.SOLV.lig_0>
-97.6888

>  <SCORE.INTRA.VDW>
-0.855634

>  <SCORE.INTRA.VDW.0>
-3.9206

>  <SCORE.INTRA.norm>
-0.180635

>  <SCORE.RESTR>
1.05203

>  <SCORE.RESTR.CAVITY>
1.05203

>  <SCORE.RESTR.norm>
0.0300579

>  <SCORE.SYSTEM>
0

>  <SCORE.SYSTEM.CONST>
0

>  <SCORE.SYSTEM.DIHEDRAL>
0

>  <SCORE.SYSTEM.SOLV>
0

>  <SCORE.SYSTEM.norm>
0

>  <SCORE.heavy>
35

>  <SCORE.norm>
-0.0976199

>  <RMSD>
29.621

$$$$
2f4t_lig
 OpenBabel11021811433D
libRbt.so/2013.1/901 2013/11/27
 35 36  0  0  0  0  0  0  0  0999 V2000
   11.6814   14.4784    9.7664 C   0  0  2  0  0  0  0  0  0  0  0  0
   11.0029   14.4720    8.4676 O   0  0  0  0  0  0  0  0  0  0  0  0
    7.3590   12.3035    9.2902 C   0  0  2  0  0  0  0  0  0  0  0  0
    5.9438   11.9071    9.2358 N   0  0  0  0  0  0  0  0  0  0  0  0
   13.2000   14.6366    9.4524 C   0  0  2  0  0  0  0  0  0  0  0  0
   13.4372   15.8262    8.6688 N   0  0  0  0  0  0  0  0  0  0  0  0
    7.4549   13.8486    9.5676 C   0  0  0  0  0  0  0  0  0  0  0  0
    5.7662   10.2639    9.8580 C   0  0  0  0  0  0  0  0  0  0  0  0
    4.2887   10.4339    9.5820 C   0  0  1  0  0  0  0  0  0  0  0  0
    3.6773    9.0360    9.4640 C   0  0  0  0  0  0  0  0  0  0  0  0
    3.9757    8.2872    8.1542 C   0  0  0  0  0  0  0  0  0  0  0  0
    5.3906    7.9034    8.1527 N   0  0  0  0  0  0  0  0  0  0  0  0
    3.6426   11.0457   10.6675 O   0  0  0  0  0  0  0  0  0  0  0  0
    8.1548    9.2200    7.8865 C   0  0  0  0  0  0  0  0  0  0  0  0
    9.6393    8.9460    8.0727 C   0  0  0  0  0  0  0  0  0  0  0  0
   13.7294   13.3674    8.7032 C   0  0  1  0  0  0  0  0  0  0  0  0
   10.4649    9.3497    6.9133 N   0  0  0  0  0  0  0  0  0  0  0  0
   15.1083   13.4888    8.4128 O   0  0  0  0  0  0  0  0  0  0  0  0
    8.9112   14.3304    9.6260 C   0  0  2  0  0  0  0  0  0  0  0  0
    8.9734   15.7722    9.8436 N   0  0  0  0  0  0  0  0  0  0  0  0
    9.3867    9.7514    4.6980 C   0  0  0  0  0  0  0  0  0  0  0  0
   10.1430   11.0821    4.3834 N   0  0  0  0  0  0  0  0  0  0  0  0
   10.2072    8.7561    5.5707 C   0  0  0  0  0  0  0  0  0  0  0  0
    6.4406    9.5313   10.2422 O   0  0  0  0  0  0  0  0  0  0  0  0
   13.4678   12.1472    9.5922 C   0  0  2  0  0  0  0  0  0  0  0  0
   13.9370   10.9593    8.9753 O   0  0  0  0  0  0  0  0  0  0  0  0
    9.6288   13.9943    8.3425 C   0  0  2  0  0  0  0  0  0  0  0  0
   11.9470   12.0320    9.9005 C   0  0  2  0  0  0  0  0  0  0  0  0
   11.4523   13.2313   10.5317 O   0  0  0  0  0  0  0  0  0  0  0  0
    9.5630   12.4300    8.0716 C   0  0  2  0  0  0  0  0  0  0  0  0
   10.2707   12.1421    6.8285 O   0  0  0  0  0  0  0  0  0  0  0  0
   11.6464   10.8803   10.7838 C   0  0  0  0  0  0  0  0  0  0  0  0
   11.6101   11.2961   12.0689 N   0  0  0  0  0  0  0  0  0  0  0  0
    8.0596   11.9987    7.9570 C   0  0  1  0  0  0  0  0  0  0  0  0
    7.9685   10.6353    7.6911 O   0  0  0  0  0  0  0  0  0  0  0  0
  1  2  1  6  0  0  0
  1  5  1  0  0  0  0
  1 29  1  0  0  0  0
  3  4  1  6  0  0  0
  3  7  1  0  0  0  0
  3 34  1  0  0  0  0
  5  6  1  6  0  0  0
  5 16  1  0  0  0  0
  7 19  1  0  0  0  0
  8  4  1  0  0  0  0
  8 24  2  0  0  0  0
  9  8  1  1  0  0  0
  9 10  1  0  0  0  0
  9 13  1  0  0  0  0
 10 11  1  0  0  0  0
 11 12  1  0  0  0  0
 14 15  1  0  0  0  0
 14 35  1  0  0  0  0
 15 17  1  0  0  0  0
 16 18  1  1  0  0  0
 16 25  1  0  0  0  0
 19 20  1  6  0  0  0
 19 27  1  0  0  0  0
 21 22  1  0  0  0  0
 21 23  1  0  0  0  0
 23 17  1  0  0  0  0
 25 26  1  6  0  0  0
 25 28  1  0  0  0  0
 27  2  1  1  0  0  0
 27 30  1  0  0  0  0
 28 29  1  0  0  0  0
 28 32  1  1  0  0  0
 30 31  1  6  0  0  0
 30 34  1  0  0  0  0
 32 33  2  0  0  0  0
 34 35  1  1  0  0  0
M  END
>  <CHROM.1>
163.73733880,-147.19356912,158.40393615,-75.21200887,70.68325111,-60.33154416
-54.09625649,-59.10843113,63.89512317,100.51861382,32.54523145,94.42142572
-61.13227902,9.36966117,11.69570847,8.71684271,0.37099016,0.27852518,0.65578779

>  <Name>
2f4t_lig

>  <RI>
0

>  <Rbt.Current_Directory>
/home/itssahil/PROJECTS/Mol_Feturizer/New_Systems/rnas/2f4t

>  <Rbt.Executable>
rbdock ($Id: //depot/dev/client3/rdock/2013.1/src/exe/rbdock.cxx#4 $)

>  <Rbt.Library>
libRbt.so (2013.1, Build901 2013/11/27)

>  <Rbt.Parameter_File>
/export/apps/rDock/src/rDock_2013.1_src/data/scripts/dock_solv.prm

>  <Rbt.Receptor>
prm/blind_docking_80.prm

>  <SCORE>
-2.61863

>  <SCORE.INTER>
-1.14685

>  <SCORE.INTER.CONST>
1

>  <SCORE.INTER.POLAR>
0

>  <SCORE.INTER.ROT>
13

>  <SCORE.INTER.SOLV>
10.1905

>  <SCORE.INTER.VDW>
-16.4281

>  <SCORE.INTER.norm>
-0.0327671

>  <SCORE.INTRA>
-1.88581

>  <SCORE.INTRA.DIHEDRAL>
-13.9581

>  <SCORE.INTRA.DIHEDRAL.0>
23.8882

>  <SCORE.INTRA.POLAR>
0

>  <SCORE.INTRA.POLAR.0>
0

>  <SCORE.INTRA.REPUL>
0

>  <SCORE.INTRA.REPUL.0>
0

>  <SCORE.INTRA.SOLV>
11.2291

>  <SCORE.INTRA.SOLV.lig_0>
-97.6888

>  <SCORE.INTRA.VDW>
-0.521278

>  <SCORE.INTRA.VDW.0>
-3.9206

>  <SCORE.INTRA.norm>
-0.0538804

>  <SCORE.RESTR>
0.414031

>  <SCORE.RESTR.CAVITY>
0.414031

>  <SCORE.RESTR.norm>
0.0118295

>  <SCORE.SYSTEM>
0

>  <SCORE.SYSTEM.CONST>
0

>  <SCORE.SYSTEM.DIHEDRAL>
0

>  <SCORE.SYSTEM.SOLV>
0

>  <SCORE.SYSTEM.norm>
0

>  <SCORE.heavy>
35

>  <SCORE.norm>
-0.0748181

>  <RMSD>
29.625

$$$$
2f4t_lig
 OpenBabel11021811433D
libRbt.so/2013.1/901 2013/11/27
 35 36  0  0  0  0  0  0  0  0999 V2000
    6.0162    9.3445    8.4756 C   0  0  2  0  0  0  0  0  0  0  0  0
    6.1049   10.6993    9.0270 O   0  0  0  0  0  0  0  0  0  0  0  0
    9.1325   13.4391    7.6184 C   0  0  2  0  0  0  0  0  0  0  0  0
   10.3359   14.2844    7.6098 N   0  0  0  0  0  0  0  0  0  0  0  0
    5.1955    9.4746    7.1568 C   0  0  2  0  0  0  0  0  0  0  0  0
    5.8146   10.4248    6.2628 N   0  0  0  0  0  0  0  0  0  0  0  0
    8.2684   13.7794    8.8877 C   0  0  0  0  0  0  0  0  0  0  0  0
   11.4880   13.6843    8.8063 C   0  0  0  0  0  0  0  0  0  0  0  0
   12.3833   14.8167    8.3545 C   0  0  1  0  0  0  0  0  0  0  0  0
   13.7167   14.6731    9.0917 C   0  0  0  0  0  0  0  0  0  0  0  0
   14.6485   15.8949    9.0264 C   0  0  0  0  0  0  0  0  0  0  0  0
   15.9630   15.5025    9.5431 N   0  0  0  0  0  0  0  0  0  0  0  0
   12.6851   14.7034    6.9884 O   0  0  0  0  0  0  0  0  0  0  0  0
   10.6473   11.5105    5.1662 C   0  0  0  0  0  0  0  0  0  0  0  0
   11.9616   10.7513    5.0673 C   0  0  0  0  0  0  0  0  0  0  0  0
    3.7229    9.8988    7.4794 C   0  0  1  0  0  0  0  0  0  0  0  0
   11.8277    9.3012    5.3281 N   0  0  0  0  0  0  0  0  0  0  0  0
    2.9589   10.0180    6.2951 O   0  0  0  0  0  0  0  0  0  0  0  0
    6.9981   12.9208    8.9623 C   0  0  2  0  0  0  0  0  0  0  0  0
    6.2346   13.2258   10.1681 N   0  0  0  0  0  0  0  0  0  0  0  0
   10.9036    7.4641    6.7431 C   0  0  0  0  0  0  0  0  0  0  0  0
   11.5674    6.3293    5.8985 N   0  0  0  0  0  0  0  0  0  0  0  0
   11.6984    8.8032    6.7269 C   0  0  0  0  0  0  0  0  0  0  0  0
   11.4906   12.8774    9.5049 O   0  0  0  0  0  0  0  0  0  0  0  0
    3.1178    8.8437    8.4111 C   0  0  2  0  0  0  0  0  0  0  0  0
    1.7739    9.1621    8.7342 O   0  0  0  0  0  0  0  0  0  0  0  0
    7.3527   11.4547    8.9613 C   0  0  2  0  0  0  0  0  0  0  0  0
    3.9722    8.7273    9.7063 C   0  0  2  0  0  0  0  0  0  0  0  0
    5.3430    8.4005    9.3970 O   0  0  0  0  0  0  0  0  0  0  0  0
    8.1997   11.0969    7.6653 C   0  0  2  0  0  0  0  0  0  0  0  0
    8.5185    9.6733    7.6954 O   0  0  0  0  0  0  0  0  0  0  0  0
    3.4420    7.6956   10.6291 C   0  0  0  0  0  0  0  0  0  0  0  0
    4.0977    6.5315   10.4272 N   0  0  0  0  0  0  0  0  0  0  0  0
    9.5145   11.9516    7.6677 C   0  0  1  0  0  0  0  0  0  0  0  0
   10.2936   11.6400    6.5570 O   0  0  0  0  0  0  0  0  0  0  0  0
  1  2  1  1  0  0  0
  1  5  1  0  0  0  0
  1 29  1  0  0  0  0
  3  4  1  1  0  0  0
  3  7  1  0  0  0  0
  3 34  1  0  0  0  0
  5  6  1  6  0  0  0
  5 16  1  0  0  0  0
  7 19  1  0  0  0  0
  8  4  1  0  0  0  0
  8 24  2  0  0  0  0
  9  8  1  1  0  0  0
  9 10  1  0  0  0  0
  9 13  1  0  0  0  0
 10 11  1  0  0  0  0
 11 12  1  0  0  0  0
 14 15  1  0  0  0  0
 14 35  1  0  0  0  0
 15 17  1  0  0  0  0
 16 18  1  6  0  0  0
 16 25  1  0  0  0  0
 19 20  1  1  0  0  0
 19 27  1  0  0  0  0
 21 22  1  0  0  0  0
 21 23  1  0  0  0  0
 23 17  1  0  0  0  0
 25 26  1  1  0  0  0
 25 28  1  0  0  0  0
 27  2  1  6  0  0  0
 27 30  1  0  0  0  0
 28 29  1  0  0  0  0
 28 32  1  1  0  0  0
 30 31  1  1  0  0  0
 30 34  1  0  0  0  0
 32 33  2  0  0  0  0
 34 35  1  6  0  0  0
M  END
>  <CHROM.1>
-106.07652906,75.33431031,-175.33749806,-166.42769487,-168.97511936,74.50522717
-172.28389276,-77.67989146,59.35061784,152.23601314,153.09622248,95.38354376
-57.52522220,8.49595959,11.10442557,7.98826120,-2.72536836,0.28519066,0.42731357

>  <Name>
2f4t_lig

>  <RI>
0

>  <Rbt.Current_Directory>
/home/itssahil/PROJECTS/Mol_Feturizer/New_Systems/rnas/2f4t

>  <Rbt.Executable>
rbdock ($Id: //depot/dev/client3/rdock/2013.1/src/exe/rbdock.cxx#4 $)

>  <Rbt.Library>
libRbt.so (2013.1, Build901 2013/11/27)

>  <Rbt.Parameter_File>
/export/apps/rDock/src/rDock_2013.1_src/data/scripts/dock_solv.prm

>  <Rbt.Receptor>
prm/blind_docking_40.prm

>  <SCORE>
-5.18515

>  <SCORE.INTER>
-6.10657

>  <SCORE.INTER.CONST>
1

>  <SCORE.INTER.POLAR>
-1.99355

>  <SCORE.INTER.ROT>
13

>  <SCORE.INTER.SOLV>
21.2421

>  <SCORE.INTER.VDW>
-16.7733

>  <SCORE.INTER.norm>
-0.174474

>  <SCORE.INTRA>
-0.513248

>  <SCORE.INTRA.DIHEDRAL>
-9.42051

>  <SCORE.INTRA.DIHEDRAL.0>
23.8882

>  <SCORE.INTRA.POLAR>
0

>  <SCORE.INTRA.POLAR.0>
0

>  <SCORE.INTRA.REPUL>
0

>  <SCORE.INTRA.REPUL.0>
0

>  <SCORE.INTRA.SOLV>
3.91641

>  <SCORE.INTRA.SOLV.lig_0>
-97.6888

>  <SCORE.INTRA.VDW>
2.2388

>  <SCORE.INTRA.VDW.0>
-3.9206

>  <SCORE.INTRA.norm>
-0.0146642

>  <SCORE.RESTR>
1.43467

>  <SCORE.RESTR.CAVITY>
1.43467

>  <SCORE.RESTR.norm>
0.0409905

>  <SCORE.SYSTEM>
0

>  <SCORE.SYSTEM.CONST>
0

>  <SCORE.SYSTEM.DIHEDRAL>
0

>  <SCORE.SYSTEM.SOLV>
0

>  <SCORE.SYSTEM.norm>
0

>  <SCORE.heavy>
35

>  <SCORE.norm>
-0.148147

>  <RMSD>
29.653

$$$$
2f4t_lig
 OpenBabel11021811433D
libRbt.so/2013.1/901 2013/11/27
 35 36  0  0  0  0  0  0  0  0999 V2000
    6.4619    9.2016    7.3802 C   0  0  2  0  0  0  0  0  0  0  0  0
    6.8549   10.3755    6.5961 O   0  0  0  0  0  0  0  0  0  0  0  0
   10.9248   11.0045    7.8991 C   0  0  2  0  0  0  0  0  0  0  0  0
   12.3380   11.4104    7.8718 N   0  0  0  0  0  0  0  0  0  0  0  0
    4.9491    9.3927    7.7035 C   0  0  2  0  0  0  0  0  0  0  0  0
    4.1857    9.5606    6.4892 N   0  0  0  0  0  0  0  0  0  0  0  0
   10.6130   10.1249    6.6331 C   0  0  0  0  0  0  0  0  0  0  0  0
   12.9510   11.5275    9.5239 C   0  0  0  0  0  0  0  0  0  0  0  0
   14.2695   11.9170    8.8928 C   0  0  1  0  0  0  0  0  0  0  0  0
   14.3898   13.4402    8.9777 C   0  0  0  0  0  0  0  0  0  0  0  0
   15.6780   14.0401    8.3897 C   0  0  0  0  0  0  0  0  0  0  0  0
   15.6137   15.4983    8.5262 N   0  0  0  0  0  0  0  0  0  0  0  0
   15.3490   11.4045    9.6292 O   0  0  0  0  0  0  0  0  0  0  0  0
   10.3476   13.4164   10.3759 C   0  0  0  0  0  0  0  0  0  0  0  0
   11.0246   14.7750   10.4730 C   0  0  0  0  0  0  0  0  0  0  0  0
    4.7531   10.6224    8.6531 C   0  0  1  0  0  0  0  0  0  0  0  0
   10.8045   15.6313    9.2869 N   0  0  0  0  0  0  0  0  0  0  0  0
    3.3860   10.8105    8.9629 O   0  0  0  0  0  0  0  0  0  0  0  0
    9.1456    9.6757    6.5957 C   0  0  2  0  0  0  0  0  0  0  0  0
    8.8712    8.8961    5.3927 N   0  0  0  0  0  0  0  0  0  0  0  0
    8.8039   15.5714    7.7950 C   0  0  0  0  0  0  0  0  0  0  0  0
    7.3987   16.1569    7.4424 N   0  0  0  0  0  0  0  0  0  0  0  0
    9.4641   16.2344    9.0400 C   0  0  0  0  0  0  0  0  0  0  0  0
   12.5283   11.3774   10.4923 O   0  0  0  0  0  0  0  0  0  0  0  0
    5.5684   10.3741    9.9264 C   0  0  2  0  0  0  0  0  0  0  0  0
    5.4246   11.4499   10.8395 O   0  0  0  0  0  0  0  0  0  0  0  0
    8.2277   10.8721    6.6275 C   0  0  2  0  0  0  0  0  0  0  0  0
    7.0678   10.1689    9.5644 C   0  0  2  0  0  0  0  0  0  0  0  0
    7.2339    9.0756    8.6378 O   0  0  0  0  0  0  0  0  0  0  0  0
    8.5157   11.7492    7.9208 C   0  0  2  0  0  0  0  0  0  0  0  0
    7.6076   12.8913    7.9210 O   0  0  0  0  0  0  0  0  0  0  0  0
    7.8950    9.8957   10.7636 C   0  0  0  0  0  0  0  0  0  0  0  0
    8.9701   10.7141   10.7647 N   0  0  0  0  0  0  0  0  0  0  0  0
   10.0059   12.2360    7.8808 C   0  0  1  0  0  0  0  0  0  0  0  0
   10.2825   13.0323    8.9887 O   0  0  0  0  0  0  0  0  0  0  0  0
  1  2  1  1  0  0  0
  1  5  1  0  0  0  0
  1 29  1  0  0  0  0
  3  4  1  6  0  0  0
  3  7  1  0  0  0  0
  3 34  1  0  0  0  0
  5  6  1  6  0  0  0
  5 16  1  0  0  0  0
  7 19  1  0  0  0  0
  8  4  1  0  0  0  0
  8 24  2  0  0  0  0
  9  8  1  1  0  0  0
  9 10  1  0  0  0  0
  9 13  1  0  0  0  0
 10 11  1  0  0  0  0
 11 12  1  0  0  0  0
 14 15  1  0  0  0  0
 14 35  1  0  0  0  0
 15 17  1  0  0  0  0
 16 18  1  1  0  0  0
 16 25  1  0  0  0  0
 19 20  1  6  0  0  0
 19 27  1  0  0  0  0
 21 22  1  0  0  0  0
 21 23  1  0  0  0  0
 23 17  1  0  0  0  0
 25 26  1  1  0  0  0
 25 28  1  0  0  0  0
 27  2  1  1  0  0  0
 27 30  1  0  0  0  0
 28 29  1  0  0  0  0
 28 32  1  1  0  0  0
 30 31  1  6  0  0  0
 30 34  1  0  0  0  0
 32 33  2  0  0  0  0
 34 35  1  1  0  0  0
M  END
>  <CHROM.1>
151.58039391,-147.28668808,100.08105743,179.72332096,178.73089551,30.01800172
177.78061003,71.66676449,-179.07350965,-110.62825283,41.18152314,-130.00058674
-68.16524766,9.35874006,11.85802767,8.55541197,-2.75033575,-0.00752636,0.23258861

>  <Name>
2f4t_lig

>  <RI>
0

>  <Rbt.Current_Directory>
/home/itssahil/PROJECTS/Mol_Feturizer/New_Systems/rnas/2f4t

>  <Rbt.Executable>
rbdock ($Id: //depot/dev/client3/rdock/2013.1/src/exe/rbdock.cxx#4 $)

>  <Rbt.Library>
libRbt.so (2013.1, Build901 2013/11/27)

>  <Rbt.Parameter_File>
/export/apps/rDock/src/rDock_2013.1_src/data/scripts/dock_solv.prm

>  <Rbt.Receptor>
prm/blind_docking_80.prm

>  <SCORE>
0.0974741

>  <SCORE.INTER>
2.86535

>  <SCORE.INTER.CONST>
1

>  <SCORE.INTER.POLAR>
0

>  <SCORE.INTER.ROT>
13

>  <SCORE.INTER.SOLV>
14.8956

>  <SCORE.INTER.VDW>
-15.3216

>  <SCORE.INTER.norm>
0.081867

>  <SCORE.INTRA>
-3.72456

>  <SCORE.INTRA.DIHEDRAL>
-10.992

>  <SCORE.INTRA.DIHEDRAL.0>
23.8882

>  <SCORE.INTRA.POLAR>
0

>  <SCORE.INTRA.POLAR.0>
0

>  <SCORE.INTRA.REPUL>
0

>  <SCORE.INTRA.REPUL.0>
0

>  <SCORE.INTRA.SOLV>
3.63335

>  <SCORE.INTRA.SOLV.lig_0>
-97.6888

>  <SCORE.INTRA.VDW>
-0.0452448

>  <SCORE.INTRA.VDW.0>
-3.9206

>  <SCORE.INTRA.norm>
-0.106416

>  <SCORE.RESTR>
0.956692

>  <SCORE.RESTR.CAVITY>
0.956692

>  <SCORE.RESTR.norm>
0.0273341

>  <SCORE.SYSTEM>
0

>  <SCORE.SYSTEM.CONST>
0

>  <SCORE.SYSTEM.DIHEDRAL>
0

>  <SCORE.SYSTEM.SOLV>
0

>  <SCORE.SYSTEM.norm>
0

>  <SCORE.heavy>
35

>  <SCORE.norm>
0.00278497

>  <RMSD>
29.670

$$$$
2f4t_lig
 OpenBabel11021811433D
libRbt.so/2013.1/901 2013/11/27
 35 36  0  0  0  0  0  0  0  0999 V2000
   11.7359   14.6816    9.8357 C   0  0  2  0  0  0  0  0  0  0  0  0
   11.0609   14.7833    8.5390 O   0  0  0  0  0  0  0  0  0  0  0  0
    7.3506   12.6618    9.1639 C   0  0  2  0  0  0  0  0  0  0  0  0
    5.9204   12.3272    9.0920 N   0  0  0  0  0  0  0  0  0  0  0  0
   13.2621   14.7574    9.5281 C   0  0  2  0  0  0  0  0  0  0  0  0
   13.5767   15.9667    8.8043 N   0  0  0  0  0  0  0  0  0  0  0  0
    7.5115   14.1548    9.6316 C   0  0  0  0  0  0  0  0  0  0  0  0
    5.5661   11.0052   10.2080 C   0  0  0  0  0  0  0  0  0  0  0  0
    4.1358   11.1287    9.7312 C   0  0  1  0  0  0  0  0  0  0  0  0
    3.9622   10.1810    8.5422 C   0  0  0  0  0  0  0  0  0  0  0  0
    4.2374    8.6954    8.8293 C   0  0  0  0  0  0  0  0  0  0  0  0
    4.1495    7.9561    7.5665 N   0  0  0  0  0  0  0  0  0  0  0  0
    3.2389   10.6811   10.7138 O   0  0  0  0  0  0  0  0  0  0  0  0
    7.1974   10.0111    6.8622 C   0  0  0  0  0  0  0  0  0  0  0  0
    7.8304    8.7874    7.5066 C   0  0  0  0  0  0  0  0  0  0  0  0
   13.7105   13.4957    8.7161 C   0  0  1  0  0  0  0  0  0  0  0  0
    9.3030    8.8739    7.6194 N   0  0  0  0  0  0  0  0  0  0  0  0
   15.0949   13.5426    8.4304 O   0  0  0  0  0  0  0  0  0  0  0  0
    8.9863   14.5720    9.7173 C   0  0  2  0  0  0  0  0  0  0  0  0
    9.1084   15.9714   10.1134 N   0  0  0  0  0  0  0  0  0  0  0  0
   11.5780    8.2042    6.8402 C   0  0  0  0  0  0  0  0  0  0  0  0
   12.4290    7.6302    5.6620 N   0  0  0  0  0  0  0  0  0  0  0  0
   10.1568    8.6770    6.4138 C   0  0  0  0  0  0  0  0  0  0  0  0
    6.1470   10.4225   10.8878 O   0  0  0  0  0  0  0  0  0  0  0  0
   13.3694   12.2521    9.5436 C   0  0  2  0  0  0  0  0  0  0  0  0
   13.7627   11.0686    8.8679 O   0  0  0  0  0  0  0  0  0  0  0  0
    9.6672   14.3755    8.3859 C   0  0  2  0  0  0  0  0  0  0  0  0
   11.8438   12.2195    9.8477 C   0  0  2  0  0  0  0  0  0  0  0  0
   11.4257   13.4153   10.5383 O   0  0  0  0  0  0  0  0  0  0  0  0
    9.5358   12.8616    7.9215 C   0  0  2  0  0  0  0  0  0  0  0  0
   10.2095   12.7082    6.6363 O   0  0  0  0  0  0  0  0  0  0  0  0
   11.4681   11.0470   10.6730 C   0  0  0  0  0  0  0  0  0  0  0  0
   11.6782    9.9140    9.9673 N   0  0  0  0  0  0  0  0  0  0  0  0
    8.0150   12.5032    7.7875 C   0  0  1  0  0  0  0  0  0  0  0  0
    7.8662   11.1888    7.3540 O   0  0  0  0  0  0  0  0  0  0  0  0
  1  2  1  6  0  0  0
  1  5  1  0  0  0  0
  1 29  1  0  0  0  0
  3  4  1  6  0  0  0
  3  7  1  0  0  0  0
  3 34  1  0  0  0  0
  5  6  1  6  0  0  0
  5 16  1  0  0  0  0
  7 19  1  0  0  0  0
  8  4  1  0  0  0  0
  8 24  2  0  0  0  0
  9  8  1  1  0  0  0
  9 10  1  0  0  0  0
  9 13  1  0  0  0  0
 10 11  1  0  0  0  0
 11 12  1  0  0  0  0
 14 15  1  0  0  0  0
 14 35  1  0  0  0  0
 15 17  1  0  0  0  0
 16 18  1  1  0  0  0
 16 25  1  0  0  0  0
 19 20  1  6  0  0  0
 19 27  1  0  0  0  0
 21 22  1  0  0  0  0
 21 23  1  0  0  0  0
 23 17  1  0  0  0  0
 25 26  1  6  0  0  0
 25 28  1  0  0  0  0
 27  2  1  1  0  0  0
 27 30  1  0  0  0  0
 28 29  1  0  0  0  0
 28 32  1  1  0  0  0
 30 31  1  6  0  0  0
 30 34  1  0  0  0  0
 32 33  2  0  0  0  0
 34 35  1  1  0  0  0
M  END
>  <CHROM.1>
162.46113224,-119.11469400,91.00490215,59.40284880,-174.73386046,-40.18243444
-144.10882176,-75.53626269,165.48924725,-155.54514958,28.51353187,-65.58545007
70.63338292,9.32623229,11.77854620,8.74652412,0.37588574,0.15859865,0.39939789

>  <Name>
2f4t_lig

>  <RI>
0

>  <Rbt.Current_Directory>
/home/itssahil/PROJECTS/Mol_Feturizer/New_Systems/rnas/2f4t

>  <Rbt.Executable>
rbdock ($Id: //depot/dev/client3/rdock/2013.1/src/exe/rbdock.cxx#4 $)

>  <Rbt.Library>
libRbt.so (2013.1, Build901 2013/11/27)

>  <Rbt.Parameter_File>
/export/apps/rDock/src/rDock_2013.1_src/data/scripts/dock_solv.prm

>  <Rbt.Receptor>
prm/blind_docking_80.prm

>  <SCORE>
-2.4419

>  <SCORE.INTER>
-2.33564

>  <SCORE.INTER.CONST>
1

>  <SCORE.INTER.POLAR>
-1.1757

>  <SCORE.INTER.ROT>
13

>  <SCORE.INTER.SOLV>
15.2653

>  <SCORE.INTER.VDW>
-14.9932

>  <SCORE.INTER.norm>
-0.0667324

>  <SCORE.INTRA>
-1.13041

>  <SCORE.INTRA.DIHEDRAL>
-5.81823

>  <SCORE.INTRA.DIHEDRAL.0>
23.8882

>  <SCORE.INTRA.POLAR>
0

>  <SCORE.INTRA.POLAR.0>
0

>  <SCORE.INTRA.REPUL>
0

>  <SCORE.INTRA.REPUL.0>
0

>  <SCORE.INTRA.SOLV>
3.86203

>  <SCORE.INTRA.SOLV.lig_0>
-97.6888

>  <SCORE.INTRA.VDW>
-0.152305

>  <SCORE.INTRA.VDW.0>
-3.9206

>  <SCORE.INTRA.norm>
-0.0322973

>  <SCORE.RESTR>
1.02414

>  <SCORE.RESTR.CAVITY>
1.02414

>  <SCORE.RESTR.norm>
0.0292611

>  <SCORE.SYSTEM>
0

>  <SCORE.SYSTEM.CONST>
0

>  <SCORE.SYSTEM.DIHEDRAL>
0

>  <SCORE.SYSTEM.SOLV>
0

>  <SCORE.SYSTEM.norm>
0

>  <SCORE.heavy>
35

>  <SCORE.norm>
-0.0697686

>  <RMSD>
29.672

$$$$
2f4t_lig
 OpenBabel11021811433D
libRbt.so/2013.1/901 2013/11/27
 35 36  0  0  0  0  0  0  0  0999 V2000
    6.0719    9.5767    8.4156 C   0  0  2  0  0  0  0  0  0  0  0  0
    6.1943   10.9500    8.9118 O   0  0  0  0  0  0  0  0  0  0  0  0
    9.7380   13.4196    8.8782 C   0  0  2  0  0  0  0  0  0  0  0  0
   10.9905   14.0465    9.3266 N   0  0  0  0  0  0  0  0  0  0  0  0
    5.8012    9.6995    6.8855 C   0  0  2  0  0  0  0  0  0  0  0  0
    6.8487   10.4570    6.2418 N   0  0  0  0  0  0  0  0  0  0  0  0
    8.6380   13.6073    9.9865 C   0  0  0  0  0  0  0  0  0  0  0  0
   11.8461   14.7179    7.9353 C   0  0  0  0  0  0  0  0  0  0  0  0
   12.8935   15.1651    8.9308 C   0  0  1  0  0  0  0  0  0  0  0  0
   14.2627   14.7861    8.3620 C   0  0  0  0  0  0  0  0  0  0  0  0
   15.1927   14.0214    9.3188 C   0  0  0  0  0  0  0  0  0  0  0  0
   14.6972   12.6475    9.4459 N   0  0  0  0  0  0  0  0  0  0  0  0
   12.9027   16.5632    9.0556 O   0  0  0  0  0  0  0  0  0  0  0  0
   11.6166   11.9120    6.4163 C   0  0  0  0  0  0  0  0  0  0  0  0
   12.6022   10.7671    6.2398 C   0  0  0  0  0  0  0  0  0  0  0  0
    4.4060   10.3663    6.6378 C   0  0  1  0  0  0  0  0  0  0  0  0
   11.9570    9.4770    5.9114 N   0  0  0  0  0  0  0  0  0  0  0  0
    4.1386   10.4829    5.2539 O   0  0  0  0  0  0  0  0  0  0  0  0
    7.3039   12.9637    9.5835 C   0  0  2  0  0  0  0  0  0  0  0  0
    6.3124   13.1155   10.6437 N   0  0  0  0  0  0  0  0  0  0  0  0
   10.7945    7.8841    7.4420 C   0  0  0  0  0  0  0  0  0  0  0  0
    9.7639    7.3111    6.4166 N   0  0  0  0  0  0  0  0  0  0  0  0
   12.1523    8.2970    6.8008 C   0  0  0  0  0  0  0  0  0  0  0  0
   11.6554   14.7571    6.8859 O   0  0  0  0  0  0  0  0  0  0  0  0
    3.3400    9.5071    7.3256 C   0  0  2  0  0  0  0  0  0  0  0  0
    2.0448   10.0506    7.1289 O   0  0  0  0  0  0  0  0  0  0  0  0
    7.4939   11.4958    9.2930 C   0  0  2  0  0  0  0  0  0  0  0  0
    3.6523    9.3904    8.8454 C   0  0  2  0  0  0  0  0  0  0  0  0
    4.9661    8.8359    9.0650 O   0  0  0  0  0  0  0  0  0  0  0  0
    8.5818   11.2997    8.1516 C   0  0  2  0  0  0  0  0  0  0  0  0
    8.7344    9.8717    7.8937 O   0  0  0  0  0  0  0  0  0  0  0  0
    2.6625    8.5423    9.5511 C   0  0  0  0  0  0  0  0  0  0  0  0
    3.2241    8.0298   10.6681 N   0  0  0  0  0  0  0  0  0  0  0  0
    9.9403   11.9158    8.6356 C   0  0  1  0  0  0  0  0  0  0  0  0
   10.9236   11.7346    7.6671 O   0  0  0  0  0  0  0  0  0  0  0  0
  1  2  1  1  0  0  0
  1  5  1  0  0  0  0
  1 29  1  0  0  0  0
  3  4  1  1  0  0  0
  3  7  1  0  0  0  0
  3 34  1  0  0  0  0
  5  6  1  6  0  0  0
  5 16  1  0  0  0  0
  7 19  1  0  0  0  0
  8  4  1  0  0  0  0
  8 24  2  0  0  0  0
  9  8  1  6  0  0  0
  9 10  1  0  0  0  0
  9 13  1  0  0  0  0
 10 11  1  0  0  0  0
 11 12  1  0  0  0  0
 14 15  1  0  0  0  0
 14 35  1  0  0  0  0
 15 17  1  0  0  0  0
 16 18  1  6  0  0  0
 16 25  1  0  0  0  0
 19 20  1  1  0  0  0
 19 27  1  0  0  0  0
 21 22  1  0  0  0  0
 21 23  1  0  0  0  0
 23 17  1  0  0  0  0
 25 26  1  1  0  0  0
 25 28  1  0  0  0  0
 27  2  1  6  0  0  0
 27 30  1  0  0  0  0
 28 29  1  0  0  0  0
 28 32  1  1  0  0  0
 30 31  1  1  0  0  0
 30 34  1  0  0  0  0
 32 33  2  0  0  0  0
 34 35  1  6  0  0  0
M  END
>  <CHROM.1>
-106.99246192,-146.08896857,133.40342725,-129.83661311,73.76482118,73.11861463
-163.85877498,-121.23304587,67.81564608,115.41347261,172.80149781,155.35163448
-50.02520453,8.69643257,11.36387169,8.09931603,-2.74011390,0.18320137,0.44828169

>  <Name>
2f4t_lig

>  <RI>
0

>  <Rbt.Current_Directory>
/home/itssahil/PROJECTS/Mol_Feturizer/New_Systems/rnas/2f4t

>  <Rbt.Executable>
rbdock ($Id: //depot/dev/client3/rdock/2013.1/src/exe/rbdock.cxx#4 $)

>  <Rbt.Library>
libRbt.so (2013.1, Build901 2013/11/27)

>  <Rbt.Parameter_File>
/export/apps/rDock/src/rDock_2013.1_src/data/scripts/dock_solv.prm

>  <Rbt.Receptor>
prm/blind_docking_40.prm

>  <SCORE>
6.01055

>  <SCORE.INTER>
2.32123

>  <SCORE.INTER.CONST>
1

>  <SCORE.INTER.POLAR>
0

>  <SCORE.INTER.ROT>
13

>  <SCORE.INTER.SOLV>
14.3976

>  <SCORE.INTER.VDW>
-15.5184

>  <SCORE.INTER.norm>
0.066321

>  <SCORE.INTRA>
2.54969

>  <SCORE.INTRA.DIHEDRAL>
-2.42885

>  <SCORE.INTRA.DIHEDRAL.0>
23.8882

>  <SCORE.INTRA.POLAR>
0

>  <SCORE.INTRA.POLAR.0>
0

>  <SCORE.INTRA.REPUL>
0

>  <SCORE.INTRA.REPUL.0>
0

>  <SCORE.INTRA.SOLV>
6.91717

>  <SCORE.INTRA.SOLV.lig_0>
-97.6888

>  <SCORE.INTRA.VDW>
0.305528

>  <SCORE.INTRA.VDW.0>
-3.9206

>  <SCORE.INTRA.norm>
0.0728482

>  <SCORE.RESTR>
1.13962

>  <SCORE.RESTR.CAVITY>
1.13962

>  <SCORE.RESTR.norm>
0.0325607

>  <SCORE.SYSTEM>
0

>  <SCORE.SYSTEM.CONST>
0

>  <SCORE.SYSTEM.DIHEDRAL>
0

>  <SCORE.SYSTEM.SOLV>
0

>  <SCORE.SYSTEM.norm>
0

>  <SCORE.heavy>
35

>  <SCORE.norm>
0.17173

>  <RMSD>
29.681

$$$$
2f4t_lig
 OpenBabel11021811433D
libRbt.so/2013.1/901 2013/11/27
 35 36  0  0  0  0  0  0  0  0999 V2000
    4.9287   12.0457    9.9286 C   0  0  2  0  0  0  0  0  0  0  0  0
    5.6649   12.4799    8.7384 O   0  0  0  0  0  0  0  0  0  0  0  0
    9.6344   13.7879    7.6480 C   0  0  2  0  0  0  0  0  0  0  0  0
   11.0762   14.0604    7.7471 N   0  0  0  0  0  0  0  0  0  0  0  0
    5.9795   11.3574   10.8515 C   0  0  2  0  0  0  0  0  0  0  0  0
    7.0706   12.2579   11.1414 N   0  0  0  0  0  0  0  0  0  0  0  0
    8.9042   14.3949    8.9018 C   0  0  0  0  0  0  0  0  0  0  0  0
   11.7716   13.0947    9.0520 C   0  0  0  0  0  0  0  0  0  0  0  0
   13.0902   13.7350    8.6785 C   0  0  1  0  0  0  0  0  0  0  0  0
   13.1813   15.0705    9.4202 C   0  0  0  0  0  0  0  0  0  0  0  0
   14.1359   16.1087    8.8071 C   0  0  0  0  0  0  0  0  0  0  0  0
   13.5981   16.5207    7.5070 N   0  0  0  0  0  0  0  0  0  0  0  0
   14.1699   12.9652    9.1388 O   0  0  0  0  0  0  0  0  0  0  0  0
   10.3773   11.5167    5.1303 C   0  0  0  0  0  0  0  0  0  0  0  0
    9.7911   10.1909    4.6698 C   0  0  0  0  0  0  0  0  0  0  0  0
    6.5098   10.0465   10.1786 C   0  0  1  0  0  0  0  0  0  0  0  0
   10.6153    9.0196    5.0403 N   0  0  0  0  0  0  0  0  0  0  0  0
    7.4622    9.4033   11.0030 O   0  0  0  0  0  0  0  0  0  0  0  0
    7.3918   14.1348    8.8648 C   0  0  2  0  0  0  0  0  0  0  0  0
    6.7428   14.6712   10.0570 N   0  0  0  0  0  0  0  0  0  0  0  0
   11.1416    6.9733    6.3697 C   0  0  0  0  0  0  0  0  0  0  0  0
   10.6061    5.6736    7.0523 N   0  0  0  0  0  0  0  0  0  0  0  0
   10.0172    7.9056    5.8294 C   0  0  0  0  0  0  0  0  0  0  0  0
   11.3811   12.3919    9.7539 O   0  0  0  0  0  0  0  0  0  0  0  0
    5.3112    9.1285    9.9168 C   0  0  2  0  0  0  0  0  0  0  0  0
    5.7249    7.9117    9.3167 O   0  0  0  0  0  0  0  0  0  0  0  0
    7.1140   12.6550    8.7761 C   0  0  2  0  0  0  0  0  0  0  0  0
    4.2757    9.8540    9.0099 C   0  0  2  0  0  0  0  0  0  0  0  0
    3.8409   11.0937    9.6063 O   0  0  0  0  0  0  0  0  0  0  0  0
    7.8232   12.0403    7.4939 C   0  0  2  0  0  0  0  0  0  0  0  0
    7.5282   10.6124    7.4377 O   0  0  0  0  0  0  0  0  0  0  0  0
    3.0816    9.0149    8.7514 C   0  0  0  0  0  0  0  0  0  0  0  0
    2.4150    8.8120    9.9091 N   0  0  0  0  0  0  0  0  0  0  0  0
    9.3695   12.2748    7.6091 C   0  0  1  0  0  0  0  0  0  0  0  0
   10.0237   11.7217    6.5119 O   0  0  0  0  0  0  0  0  0  0  0  0
  1  2  1  6  0  0  0
  1  5  1  0  0  0  0
  1 29  1  0  0  0  0
  3  4  1  1  0  0  0
  3  7  1  0  0  0  0
  3 34  1  0  0  0  0
  5  6  1  6  0  0  0
  5 16  1  0  0  0  0
  7 19  1  0  0  0  0
  8  4  1  0  0  0  0
  8 24  2  0  0  0  0
  9  8  1  1  0  0  0
  9 10  1  0  0  0  0
  9 13  1  0  0  0  0
 10 11  1  0  0  0  0
 11 12  1  0  0  0  0
 14 15  1  0  0  0  0
 14 35  1  0  0  0  0
 15 17  1  0  0  0  0
 16 18  1  1  0  0  0
 16 25  1  0  0  0  0
 19 20  1  1  0  0  0
 19 27  1  0  0  0  0
 21 22  1  0  0  0  0
 21 23  1  0  0  0  0
 23 17  1  0  0  0  0
 25 26  1  6  0  0  0
 25 28  1  0  0  0  0
 27  2  1  6  0  0  0
 27 30  1  0  0  0  0
 28 29  1  0  0  0  0
 28 32  1  1  0  0  0
 30 31  1  1  0  0  0
 30 34  1  0  0  0  0
 32 33  2  0  0  0  0
 34 35  1  6  0  0  0
M  END
>  <CHROM.1>
-20.86228128,69.90992868,85.51831988,-157.61099948,66.35519079,-82.15275104
-107.64854205,124.17847063,-172.46795403,-166.82711183,-102.75282247,65.28634379
-58.47672978,8.63451742,11.54457896,8.45310892,2.75960698,-0.36318725,-2.72226747

>  <Name>
2f4t_lig

>  <RI>
0

>  <Rbt.Current_Directory>
/home/itssahil/PROJECTS/Mol_Feturizer/New_Systems/rnas/2f4t

>  <Rbt.Executable>
rbdock ($Id: //depot/dev/client3/rdock/2013.1/src/exe/rbdock.cxx#4 $)

>  <Rbt.Library>
libRbt.so (2013.1, Build901 2013/11/27)

>  <Rbt.Parameter_File>
/export/apps/rDock/src/rDock_2013.1_src/data/scripts/dock_solv.prm

>  <Rbt.Receptor>
prm/blind_docking_40.prm

>  <SCORE>
6.8012

>  <SCORE.INTER>
-5.1733

>  <SCORE.INTER.CONST>
1

>  <SCORE.INTER.POLAR>
-1.61089

>  <SCORE.INTER.ROT>
13

>  <SCORE.INTER.SOLV>
13.4191

>  <SCORE.INTER.VDW>
-14.8189

>  <SCORE.INTER.norm>
-0.147809

>  <SCORE.INTRA>
10.4087

>  <SCORE.INTRA.DIHEDRAL>
1.96554

>  <SCORE.INTRA.DIHEDRAL.0>
23.8882

>  <SCORE.INTRA.POLAR>
0

>  <SCORE.INTRA.POLAR.0>
0

>  <SCORE.INTRA.REPUL>
0

>  <SCORE.INTRA.REPUL.0>
0

>  <SCORE.INTRA.SOLV>
8.1875

>  <SCORE.INTRA.SOLV.lig_0>
-97.6888

>  <SCORE.INTRA.VDW>
5.33223

>  <SCORE.INTRA.VDW.0>
-3.9206

>  <SCORE.INTRA.norm>
0.297393

>  <SCORE.RESTR>
1.56575

>  <SCORE.RESTR.CAVITY>
1.56575

>  <SCORE.RESTR.norm>
0.0447358

>  <SCORE.SYSTEM>
0

>  <SCORE.SYSTEM.CONST>
0

>  <SCORE.SYSTEM.DIHEDRAL>
0

>  <SCORE.SYSTEM.SOLV>
0

>  <SCORE.SYSTEM.norm>
0

>  <SCORE.heavy>
35

>  <SCORE.norm>
0.19432

>  <RMSD>
29.689

$$$$
2f4t_lig
 OpenBabel11021811433D
libRbt.so/2013.1/901 2013/11/27
 35 36  0  0  0  0  0  0  0  0999 V2000
   12.5484    9.9447    8.8734 C   0  0  2  0  0  0  0  0  0  0  0  0
   11.7087   10.4421    7.7803 O   0  0  0  0  0  0  0  0  0  0  0  0
    7.5550   10.6585    6.6156 C   0  0  2  0  0  0  0  0  0  0  0  0
    6.0971   10.4687    6.6526 N   0  0  0  0  0  0  0  0  0  0  0  0
   12.0878   10.7144   10.1481 C   0  0  2  0  0  0  0  0  0  0  0  0
   10.6735   10.5280   10.3728 N   0  0  0  0  0  0  0  0  0  0  0  0
    8.2644    9.2681    6.8079 C   0  0  0  0  0  0  0  0  0  0  0  0
    5.6204    9.8620    8.2411 C   0  0  0  0  0  0  0  0  0  0  0  0
    4.2054    9.8857    7.7068 C   0  0  1  0  0  0  0  0  0  0  0  0
    3.3227    9.1323    8.7043 C   0  0  0  0  0  0  0  0  0  0  0  0
    3.3858    9.6307   10.1579 C   0  0  0  0  0  0  0  0  0  0  0  0
    2.9164   11.0191   10.1918 N   0  0  0  0  0  0  0  0  0  0  0  0
    3.7065   11.1970    7.6658 O   0  0  0  0  0  0  0  0  0  0  0  0
    7.0732   14.2192    7.8407 C   0  0  0  0  0  0  0  0  0  0  0  0
    8.2996   15.0524    7.5012 C   0  0  0  0  0  0  0  0  0  0  0  0
   12.4287   12.2366   10.0099 C   0  0  1  0  0  0  0  0  0  0  0  0
    9.2118   15.2562    8.6479 N   0  0  0  0  0  0  0  0  0  0  0  0
   12.0227   12.9533   11.1596 O   0  0  0  0  0  0  0  0  0  0  0  0
    9.7938    9.3986    6.7898 C   0  0  2  0  0  0  0  0  0  0  0  0
   10.4286    8.1030    7.0104 N   0  0  0  0  0  0  0  0  0  0  0  0
   11.5360   15.4487    9.5382 C   0  0  0  0  0  0  0  0  0  0  0  0
   10.9607   15.5201   10.9894 N   0  0  0  0  0  0  0  0  0  0  0  0
   10.5323   15.9164    8.4431 C   0  0  0  0  0  0  0  0  0  0  0  0
    6.1455    9.6113    9.1359 O   0  0  0  0  0  0  0  0  0  0  0  0
   13.9402   12.3673    9.7951 C   0  0  2  0  0  0  0  0  0  0  0  0
   14.3202   13.7285    9.6741 O   0  0  0  0  0  0  0  0  0  0  0  0
   10.2529   10.3604    7.8570 C   0  0  2  0  0  0  0  0  0  0  0  0
   14.3665   11.5721    8.5275 C   0  0  2  0  0  0  0  0  0  0  0  0
   13.9904   10.1834    8.6342 O   0  0  0  0  0  0  0  0  0  0  0  0
    9.5638   11.7773    7.6506 C   0  0  2  0  0  0  0  0  0  0  0  0
   10.0349   12.6811    8.6948 O   0  0  0  0  0  0  0  0  0  0  0  0
   15.8283   11.6444    8.2935 C   0  0  0  0  0  0  0  0  0  0  0  0
   16.1946   12.9345    8.1290 N   0  0  0  0  0  0  0  0  0  0  0  0
    8.0081   11.6018    7.7408 C   0  0  1  0  0  0  0  0  0  0  0  0
    7.3750   12.8325    7.5918 O   0  0  0  0  0  0  0  0  0  0  0  0
  1  2  1  6  0  0  0
  1  5  1  0  0  0  0
  1 29  1  0  0  0  0
  3  4  1  1  0  0  0
  3  7  1  0  0  0  0
  3 34  1  0  0  0  0
  5  6  1  6  0  0  0
  5 16  1  0  0  0  0
  7 19  1  0  0  0  0
  8  4  1  0  0  0  0
  8 24  2  0  0  0  0
  9  8  1  1  0  0  0
  9 10  1  0  0  0  0
  9 13  1  0  0  0  0
 10 11  1  0  0  0  0
 11 12  1  0  0  0  0
 14 15  1  0  0  0  0
 14 35  1  0  0  0  0
 15 17  1  0  0  0  0
 16 18  1  1  0  0  0
 16 25  1  0  0  0  0
 19 20  1  1  0  0  0
 19 27  1  0  0  0  0
 21 22  1  0  0  0  0
 21 23  1  0  0  0  0
 23 17  1  0  0  0  0
 25 26  1  6  0  0  0
 25 28  1  0  0  0  0
 27  2  1  6  0  0  0
 27 30  1  0  0  0  0
 28 29  1  0  0  0  0
 28 32  1  1  0  0  0
 30 31  1  1  0  0  0
 30 34  1  0  0  0  0
 32 33  2  0  0  0  0
 34 35  1  6  0  0  0
M  END
>  <CHROM.1>
-56.96578230,63.11560700,168.65489710,54.61083698,61.88368110,-90.63272540
63.98864339,172.99646749,-48.45759640,-153.82096742,-113.84762862,-59.86648056
-172.25221405,9.54930023,11.68598312,8.57343352,-0.24193838,0.03765338,-2.92240663

>  <Name>
2f4t_lig

>  <RI>
0

>  <Rbt.Current_Directory>
/home/itssahil/PROJECTS/Mol_Feturizer/New_Systems/rnas/2f4t

>  <Rbt.Executable>
rbdock ($Id: //depot/dev/client3/rdock/2013.1/src/exe/rbdock.cxx#4 $)

>  <Rbt.Library>
libRbt.so (2013.1, Build901 2013/11/27)

>  <Rbt.Parameter_File>
/export/apps/rDock/src/rDock_2013.1_src/data/scripts/dock_solv.prm

>  <Rbt.Receptor>
prm/blind_docking_80.prm

>  <SCORE>
5.6807

>  <SCORE.INTER>
0.293907

>  <SCORE.INTER.CONST>
1

>  <SCORE.INTER.POLAR>
0

>  <SCORE.INTER.ROT>
13

>  <SCORE.INTER.SOLV>
11.2926

>  <SCORE.INTER.VDW>
-15.8349

>  <SCORE.INTER.norm>
0.00839735

>  <SCORE.INTRA>
3.59151

>  <SCORE.INTRA.DIHEDRAL>
-9.6611

>  <SCORE.INTRA.DIHEDRAL.0>
23.8882

>  <SCORE.INTRA.POLAR>
0

>  <SCORE.INTRA.POLAR.0>
0

>  <SCORE.INTRA.REPUL>
0

>  <SCORE.INTRA.REPUL.0>
0

>  <SCORE.INTRA.SOLV>
13.2701

>  <SCORE.INTRA.SOLV.lig_0>
-97.6888

>  <SCORE.INTRA.VDW>
1.78701

>  <SCORE.INTRA.VDW.0>
-3.9206

>  <SCORE.INTRA.norm>
0.102615

>  <SCORE.RESTR>
1.79528

>  <SCORE.RESTR.CAVITY>
1.79528

>  <SCORE.RESTR.norm>
0.0512937

>  <SCORE.SYSTEM>
0

>  <SCORE.SYSTEM.CONST>
0

>  <SCORE.SYSTEM.DIHEDRAL>
0

>  <SCORE.SYSTEM.SOLV>
0

>  <SCORE.SYSTEM.norm>
0

>  <SCORE.heavy>
35

>  <SCORE.norm>
0.162306

>  <RMSD>
29.690

$$$$
2f4t_lig
 OpenBabel11021811433D
libRbt.so/2013.1/901 2013/11/27
 35 36  0  0  0  0  0  0  0  0999 V2000
   12.7995   10.5766    7.5709 C   0  0  2  0  0  0  0  0  0  0  0  0
   11.9946   10.0374    8.6703 O   0  0  0  0  0  0  0  0  0  0  0  0
    8.0073   10.2433    7.0222 C   0  0  2  0  0  0  0  0  0  0  0  0
    6.5868    9.9362    6.7974 N   0  0  0  0  0  0  0  0  0  0  0  0
   14.1177   11.0939    8.2223 C   0  0  2  0  0  0  0  0  0  0  0  0
   14.7729   10.0365    8.9558 N   0  0  0  0  0  0  0  0  0  0  0  0
    8.8454    8.9152    6.9353 C   0  0  0  0  0  0  0  0  0  0  0  0
    5.8137    9.5545    8.3386 C   0  0  0  0  0  0  0  0  0  0  0  0
    4.5460    9.3690    7.5344 C   0  0  1  0  0  0  0  0  0  0  0  0
    3.4399    8.9516    8.5061 C   0  0  0  0  0  0  0  0  0  0  0  0
    3.1020    9.9703    9.6076 C   0  0  0  0  0  0  0  0  0  0  0  0
    2.8237    9.2373   10.8462 N   0  0  0  0  0  0  0  0  0  0  0  0
    4.1257   10.5848    6.9728 O   0  0  0  0  0  0  0  0  0  0  0  0
    6.8939   13.2101    9.1151 C   0  0  0  0  0  0  0  0  0  0  0  0
    7.3527   14.4325    8.3349 C   0  0  0  0  0  0  0  0  0  0  0  0
   13.8127   12.3097    9.1610 C   0  0  1  0  0  0  0  0  0  0  0  0
    8.8238   14.5768    8.2735 N   0  0  0  0  0  0  0  0  0  0  0  0
   14.9977   12.7979    9.7592 O   0  0  0  0  0  0  0  0  0  0  0  0
   10.3412    9.1659    7.1725 C   0  0  2  0  0  0  0  0  0  0  0  0
   11.0913    7.9147    7.1273 N   0  0  0  0  0  0  0  0  0  0  0  0
   10.5898   16.3307    8.4645 C   0  0  0  0  0  0  0  0  0  0  0  0
   11.7160   16.8987    9.3869 N   0  0  0  0  0  0  0  0  0  0  0  0
    9.5250   15.4856    9.2242 C   0  0  0  0  0  0  0  0  0  0  0  0
    6.1479    9.4977    9.3507 O   0  0  0  0  0  0  0  0  0  0  0  0
   13.1397   13.4008    8.3218 C   0  0  2  0  0  0  0  0  0  0  0  0
   12.8464   14.5414    9.1124 O   0  0  0  0  0  0  0  0  0  0  0  0
   10.5590    9.8229    8.5126 C   0  0  2  0  0  0  0  0  0  0  0  0
   11.8399   12.8444    7.6723 C   0  0  2  0  0  0  0  0  0  0  0  0
   12.1197   11.6845    6.8611 O   0  0  0  0  0  0  0  0  0  0  0  0
    9.7396   11.1818    8.5960 C   0  0  2  0  0  0  0  0  0  0  0  0
    9.9786   11.7908    9.9003 O   0  0  0  0  0  0  0  0  0  0  0  0
   11.1666   13.8569    6.8247 C   0  0  0  0  0  0  0  0  0  0  0  0
   10.3697   13.2351    5.9280 N   0  0  0  0  0  0  0  0  0  0  0  0
    8.2147   10.8658    8.4117 C   0  0  1  0  0  0  0  0  0  0  0  0
    7.4653   12.0350    8.5080 O   0  0  0  0  0  0  0  0  0  0  0  0
  1  2  1  1  0  0  0
  1  5  1  0  0  0  0
  1 29  1  0  0  0  0
  3  4  1  1  0  0  0
  3  7  1  0  0  0  0
  3 34  1  0  0  0  0
  5  6  1  1  0  0  0
  5 16  1  0  0  0  0
  7 19  1  0  0  0  0
  8  4  1  0  0  0  0
  8 24  2  0  0  0  0
  9  8  1  1  0  0  0
  9 10  1  0  0  0  0
  9 13  1  0  0  0  0
 10 11  1  0  0  0  0
 11 12  1  0  0  0  0
 14 15  1  0  0  0  0
 14 35  1  0  0  0  0
 15 17  1  0  0  0  0
 16 18  1  6  0  0  0
 16 25  1  0  0  0  0
 19 20  1  1  0  0  0
 19 27  1  0  0  0  0
 21 22  1  0  0  0  0
 21 23  1  0  0  0  0
 23 17  1  0  0  0  0
 25 26  1  1  0  0  0
 25 28  1  0  0  0  0
 27  2  1  6  0  0  0
 27 30  1  0  0  0  0
 28 29  1  0  0  0  0
 28 32  1  6  0  0  0
 30 31  1  1  0  0  0
 30 34  1  0  0  0  0
 32 33  2  0  0  0  0
 34 35  1  6  0  0  0
M  END
>  <CHROM.1>
161.99941852,89.26319478,178.69770731,61.62750032,-141.94044136,-58.01383913
120.67916753,-97.57828342,-158.36653406,-135.68072933,44.67022451,157.81026523
175.91669053,9.42103303,11.62917560,8.30591471,-0.35048548,-0.05251000,-3.00436454

>  <Name>
2f4t_lig

>  <RI>
0

>  <Rbt.Current_Directory>
/home/itssahil/PROJECTS/Mol_Feturizer/New_Systems/rnas/2f4t

>  <Rbt.Executable>
rbdock ($Id: //depot/dev/client3/rdock/2013.1/src/exe/rbdock.cxx#4 $)

>  <Rbt.Library>
libRbt.so (2013.1, Build901 2013/11/27)

>  <Rbt.Parameter_File>
/export/apps/rDock/src/rDock_2013.1_src/data/scripts/dock_solv.prm

>  <Rbt.Receptor>
prm/blind_docking_80.prm

>  <SCORE>
13.2236

>  <SCORE.INTER>
6.39853

>  <SCORE.INTER.CONST>
1

>  <SCORE.INTER.POLAR>
0

>  <SCORE.INTER.ROT>
13

>  <SCORE.INTER.SOLV>
13.6608

>  <SCORE.INTER.VDW>
-12.5546

>  <SCORE.INTER.norm>
0.182815

>  <SCORE.INTRA>
4.23713

>  <SCORE.INTRA.DIHEDRAL>
-3.80493

>  <SCORE.INTRA.DIHEDRAL.0>
23.8882

>  <SCORE.INTRA.POLAR>
0

>  <SCORE.INTRA.POLAR.0>
0

>  <SCORE.INTRA.REPUL>
0

>  <SCORE.INTRA.REPUL.0>
0

>  <SCORE.INTRA.SOLV>
8.30532

>  <SCORE.INTRA.SOLV.lig_0>
-97.6888

>  <SCORE.INTRA.VDW>
1.98694

>  <SCORE.INTRA.VDW.0>
-3.9206

>  <SCORE.INTRA.norm>
0.121061

>  <SCORE.RESTR>
2.58793

>  <SCORE.RESTR.CAVITY>
2.58793

>  <SCORE.RESTR.norm>
0.0739407

>  <SCORE.SYSTEM>
0

>  <SCORE.SYSTEM.CONST>
0

>  <SCORE.SYSTEM.DIHEDRAL>
0

>  <SCORE.SYSTEM.SOLV>
0

>  <SCORE.SYSTEM.norm>
0

>  <SCORE.heavy>
35

>  <SCORE.norm>
0.377817

>  <RMSD>
29.696

$$$$
2f4t_lig
 OpenBabel11021811433D
libRbt.so/2013.1/901 2013/11/27
 35 36  0  0  0  0  0  0  0  0999 V2000
    8.8709   15.1889    9.5245 C   0  0  2  0  0  0  0  0  0  0  0  0
    8.9270   14.6732    8.1540 O   0  0  0  0  0  0  0  0  0  0  0  0
    9.5381   10.8859    6.1690 C   0  0  2  0  0  0  0  0  0  0  0  0
   10.1276    9.5820    5.8302 N   0  0  0  0  0  0  0  0  0  0  0  0
    9.5453   16.5934    9.4787 C   0  0  2  0  0  0  0  0  0  0  0  0
    8.8889   17.4427    8.5126 N   0  0  0  0  0  0  0  0  0  0  0  0
   10.6685   11.9795    6.1797 C   0  0  0  0  0  0  0  0  0  0  0  0
   10.5305    8.7123    7.3135 C   0  0  0  0  0  0  0  0  0  0  0  0
   11.0164    7.6047    6.4050 C   0  0  1  0  0  0  0  0  0  0  0  0
   12.4766    7.9011    6.0560 C   0  0  0  0  0  0  0  0  0  0  0  0
   13.0298    9.2352    6.5845 C   0  0  0  0  0  0  0  0  0  0  0  0
   13.1542    9.1397    8.0421 N   0  0  0  0  0  0  0  0  0  0  0  0
   11.0241    6.3721    7.0765 O   0  0  0  0  0  0  0  0  0  0  0  0
    7.1628    8.7038    8.0111 C   0  0  0  0  0  0  0  0  0  0  0  0
    7.3176    8.5785    9.5190 C   0  0  0  0  0  0  0  0  0  0  0  0
   11.0678   16.4484    9.1418 C   0  0  1  0  0  0  0  0  0  0  0  0
    7.5125    9.8757   10.2031 N   0  0  0  0  0  0  0  0  0  0  0  0
   11.7002   17.7128    9.1000 O   0  0  0  0  0  0  0  0  0  0  0  0
   10.1189   13.3672    6.5383 C   0  0  2  0  0  0  0  0  0  0  0  0
   11.1918   14.3558    6.5815 N   0  0  0  0  0  0  0  0  0  0  0  0
    9.1946    9.7842   12.0453 C   0  0  0  0  0  0  0  0  0  0  0  0
    9.8124    8.4032   11.6540 N   0  0  0  0  0  0  0  0  0  0  0  0
    7.6862    9.9205   11.6827 C   0  0  0  0  0  0  0  0  0  0  0  0
   10.4443    8.9278    8.3553 O   0  0  0  0  0  0  0  0  0  0  0  0
   11.7081   15.5568   10.2108 C   0  0  2  0  0  0  0  0  0  0  0  0
   13.0966   15.3938    9.9712 O   0  0  0  0  0  0  0  0  0  0  0  0
    9.4289   13.3299    7.8790 C   0  0  2  0  0  0  0  0  0  0  0  0
   10.9985   14.1724   10.2414 C   0  0  2  0  0  0  0  0  0  0  0  0
    9.5844   14.3185   10.4873 O   0  0  0  0  0  0  0  0  0  0  0  0
    8.2646   12.2487    7.8659 C   0  0  2  0  0  0  0  0  0  0  0  0
    7.6174   12.2450    9.1737 O   0  0  0  0  0  0  0  0  0  0  0  0
   11.5649   13.2823   11.2824 C   0  0  0  0  0  0  0  0  0  0  0  0
   12.1873   12.2384   10.6919 N   0  0  0  0  0  0  0  0  0  0  0  0
    8.8840   10.8411    7.5587 C   0  0  1  0  0  0  0  0  0  0  0  0
    7.8911    9.8654    7.5681 O   0  0  0  0  0  0  0  0  0  0  0  0
  1  2  1  6  0  0  0
  1  5  1  0  0  0  0
  1 29  1  0  0  0  0
  3  4  1  1  0  0  0
  3  7  1  0  0  0  0
  3 34  1  0  0  0  0
  5  6  1  6  0  0  0
  5 16  1  0  0  0  0
  7 19  1  0  0  0  0
  8  4  1  0  0  0  0
  8 24  2  0  0  0  0
  9  8  1  1  0  0  0
  9 10  1  0  0  0  0
  9 13  1  0  0  0  0
 10 11  1  0  0  0  0
 11 12  1  0  0  0  0
 14 15  1  0  0  0  0
 14 35  1  0  0  0  0
 15 17  1  0  0  0  0
 16 18  1  1  0  0  0
 16 25  1  0  0  0  0
 19 20  1  1  0  0  0
 19 27  1  0  0  0  0
 21 22  1  0  0  0  0
 21 23  1  0  0  0  0
 23 17  1  0  0  0  0
 25 26  1  6  0  0  0
 25 28  1  0  0  0  0
 27  2  1  6  0  0  0
 27 30  1  0  0  0  0
 28 29  1  0  0  0  0
 28 32  1  1  0  0  0
 30 31  1  1  0  0  0
 30 34  1  0  0  0  0
 32 33  2  0  0  0  0
 34 35  1  6  0  0  0
M  END
>  <CHROM.1>
130.34981945,94.02022641,87.10951113,-4.68610109,69.82597883,29.07341067
30.52070280,-179.72080193,-64.80753744,89.12205641,-146.86587006,-113.17603996
126.65778807,10.06039400,11.85007063,8.61393705,1.48224654,0.74472795,0.25645547

>  <Name>
2f4t_lig

>  <RI>
0

>  <Rbt.Current_Directory>
/home/itssahil/PROJECTS/Mol_Feturizer/New_Systems/rnas/2f4t

>  <Rbt.Executable>
rbdock ($Id: //depot/dev/client3/rdock/2013.1/src/exe/rbdock.cxx#4 $)

>  <Rbt.Library>
libRbt.so (2013.1, Build901 2013/11/27)

>  <Rbt.Parameter_File>
/export/apps/rDock/src/rDock_2013.1_src/data/scripts/dock_solv.prm

>  <Rbt.Receptor>
prm/blind_docking_100.prm

>  <SCORE>
16.907

>  <SCORE.INTER>
-0.0306999

>  <SCORE.INTER.CONST>
1

>  <SCORE.INTER.POLAR>
-0.200014

>  <SCORE.INTER.ROT>
13

>  <SCORE.INTER.SOLV>
13.7666

>  <SCORE.INTER.VDW>
-16.2093

>  <SCORE.INTER.norm>
-0.000877141

>  <SCORE.INTRA>
13.9544

>  <SCORE.INTRA.DIHEDRAL>
9.45886

>  <SCORE.INTRA.DIHEDRAL.0>
23.8882

>  <SCORE.INTRA.POLAR>
0

>  <SCORE.INTRA.POLAR.0>
0

>  <SCORE.INTRA.REPUL>
0.0544145

>  <SCORE.INTRA.REPUL.0>
0

>  <SCORE.INTRA.SOLV>
12.5793

>  <SCORE.INTRA.SOLV.lig_0>
-97.6888

>  <SCORE.INTRA.VDW>
2.66321

>  <SCORE.INTRA.VDW.0>
-3.9206

>  <SCORE.INTRA.norm>
0.398696

>  <SCORE.RESTR>
2.98335

>  <SCORE.RESTR.CAVITY>
2.98335

>  <SCORE.RESTR.norm>
0.0852385

>  <SCORE.SYSTEM>
0

>  <SCORE.SYSTEM.CONST>
0

>  <SCORE.SYSTEM.DIHEDRAL>
0

>  <SCORE.SYSTEM.SOLV>
0

>  <SCORE.SYSTEM.norm>
0

>  <SCORE.heavy>
35

>  <SCORE.norm>
0.483057

>  <RMSD>
29.723

$$$$
2f4t_lig
 OpenBabel11021811433D
libRbt.so/2013.1/901 2013/11/27
 35 36  0  0  0  0  0  0  0  0999 V2000
   11.6795   14.7803    9.5235 C   0  0  2  0  0  0  0  0  0  0  0  0
   11.0503   14.6288    8.2088 O   0  0  0  0  0  0  0  0  0  0  0  0
    7.3146   12.6309    9.0517 C   0  0  2  0  0  0  0  0  0  0  0  0
    5.8831   12.2978    9.0022 N   0  0  0  0  0  0  0  0  0  0  0  0
   13.2010   14.9759    9.2471 C   0  0  2  0  0  0  0  0  0  0  0  0
   13.4188   16.1002    8.3674 N   0  0  0  0  0  0  0  0  0  0  0  0
    7.4800   14.1720    9.3186 C   0  0  0  0  0  0  0  0  0  0  0  0
    5.5557   10.9363   10.0782 C   0  0  0  0  0  0  0  0  0  0  0  0
    4.1144   11.0756    9.6406 C   0  0  1  0  0  0  0  0  0  0  0  0
    3.4294    9.7267    9.8716 C   0  0  0  0  0  0  0  0  0  0  0  0
    3.9883    8.5481    9.0569 C   0  0  0  0  0  0  0  0  0  0  0  0
    3.1037    7.3945    9.2455 N   0  0  0  0  0  0  0  0  0  0  0  0
    3.4313   11.9971   10.4495 O   0  0  0  0  0  0  0  0  0  0  0  0
    8.1250    9.5145    7.5278 C   0  0  0  0  0  0  0  0  0  0  0  0
    9.4219    9.2402    6.7819 C   0  0  0  0  0  0  0  0  0  0  0  0
   13.8086   13.6694    8.6337 C   0  0  1  0  0  0  0  0  0  0  0  0
    9.9227    7.8590    6.9550 N   0  0  0  0  0  0  0  0  0  0  0  0
   15.1913   13.8243    8.3795 O   0  0  0  0  0  0  0  0  0  0  0  0
    8.9565   14.5885    9.3714 C   0  0  2  0  0  0  0  0  0  0  0  0
    9.0835   16.0275    9.5792 N   0  0  0  0  0  0  0  0  0  0  0  0
   12.3253    8.2003    6.3699 C   0  0  0  0  0  0  0  0  0  0  0  0
   13.4741    7.9309    5.3454 N   0  0  0  0  0  0  0  0  0  0  0  0
   11.0415    7.3589    6.1068 C   0  0  0  0  0  0  0  0  0  0  0  0
    6.1528   10.3300   10.7224 O   0  0  0  0  0  0  0  0  0  0  0  0
   13.5638   12.5229    9.6203 C   0  0  2  0  0  0  0  0  0  0  0  0
   14.1032   11.3064    9.1294 O   0  0  0  0  0  0  0  0  0  0  0  0
    9.6559   14.2122    8.0891 C   0  0  2  0  0  0  0  0  0  0  0  0
   12.0386   12.3694    9.8872 C   0  0  2  0  0  0  0  0  0  0  0  0
   11.4728   13.5975   10.3905 O   0  0  0  0  0  0  0  0  0  0  0  0
    9.5197   12.6506    7.8288 C   0  0  2  0  0  0  0  0  0  0  0  0
   10.2115   12.3232    6.5865 O   0  0  0  0  0  0  0  0  0  0  0  0
   11.7523   11.2889   10.8606 C   0  0  0  0  0  0  0  0  0  0  0  0
   11.9469   11.7505   12.1155 N   0  0  0  0  0  0  0  0  0  0  0  0
    7.9984   12.2862    7.7195 C   0  0  1  0  0  0  0  0  0  0  0  0
    7.8459   10.9266    7.4628 O   0  0  0  0  0  0  0  0  0  0  0  0
  1  2  1  6  0  0  0
  1  5  1  0  0  0  0
  1 29  1  0  0  0  0
  3  4  1  6  0  0  0
  3  7  1  0  0  0  0
  3 34  1  0  0  0  0
  5  6  1  6  0  0  0
  5 16  1  0  0  0  0
  7 19  1  0  0  0  0
  8  4  1  0  0  0  0
  8 24  2  0  0  0  0
  9  8  1  1  0  0  0
  9 10  1  0  0  0  0
  9 13  1  0  0  0  0
 10 11  1  0  0  0  0
 11 12  1  0  0  0  0
 14 15  1  0  0  0  0
 14 35  1  0  0  0  0
 15 17  1  0  0  0  0
 16 18  1  1  0  0  0
 16 25  1  0  0  0  0
 19 20  1  6  0  0  0
 19 27  1  0  0  0  0
 21 22  1  0  0  0  0
 21 23  1  0  0  0  0
 23 17  1  0  0  0  0
 25 26  1  6  0  0  0
 25 28  1  0  0  0  0
 27  2  1  1  0  0  0
 27 30  1  0  0  0  0
 28 29  1  0  0  0  0
 28 32  1  1  0  0  0
 30 31  1  6  0  0  0
 30 34  1  0  0  0  0
 32 33  2  0  0  0  0
 34 35  1  1  0  0  0
M  END
>  <CHROM.1>
170.04543722,-129.10871225,157.05275556,-62.70515478,-171.74587423,171.09499570
-69.56895719,169.25381155,-169.27781534,62.42237507,24.54733802,80.78349903
-83.57921852,9.47508302,11.79140002,8.74857529,0.30758863,0.20347193,0.38770697

>  <Name>
2f4t_lig

>  <RI>
0

>  <Rbt.Current_Directory>
/home/itssahil/PROJECTS/Mol_Feturizer/New_Systems/rnas/2f4t

>  <Rbt.Executable>
rbdock ($Id: //depot/dev/client3/rdock/2013.1/src/exe/rbdock.cxx#4 $)

>  <Rbt.Library>
libRbt.so (2013.1, Build901 2013/11/27)

>  <Rbt.Parameter_File>
/export/apps/rDock/src/rDock_2013.1_src/data/scripts/dock_solv.prm

>  <Rbt.Receptor>
prm/blind_docking_40.prm

>  <SCORE>
-5.54584

>  <SCORE.INTER>
-2.02976

>  <SCORE.INTER.CONST>
1

>  <SCORE.INTER.POLAR>
-0.156105

>  <SCORE.INTER.ROT>
13

>  <SCORE.INTER.SOLV>
13.9311

>  <SCORE.INTER.VDW>
-17.7432

>  <SCORE.INTER.norm>
-0.057993

>  <SCORE.INTRA>
-3.64322

>  <SCORE.INTRA.DIHEDRAL>
-10.7482

>  <SCORE.INTRA.DIHEDRAL.0>
23.8882

>  <SCORE.INTRA.POLAR>
0

>  <SCORE.INTRA.POLAR.0>
0

>  <SCORE.INTRA.REPUL>
0

>  <SCORE.INTRA.REPUL.0>
0

>  <SCORE.INTRA.SOLV>
0.565166

>  <SCORE.INTRA.SOLV.lig_0>
-97.6888

>  <SCORE.INTRA.VDW>
1.44828

>  <SCORE.INTRA.VDW.0>
-3.9206

>  <SCORE.INTRA.norm>
-0.104092

>  <SCORE.RESTR>
0.12713

>  <SCORE.RESTR.CAVITY>
0.12713

>  <SCORE.RESTR.norm>
0.00363227

>  <SCORE.SYSTEM>
0

>  <SCORE.SYSTEM.CONST>
0

>  <SCORE.SYSTEM.DIHEDRAL>
0

>  <SCORE.SYSTEM.SOLV>
0

>  <SCORE.SYSTEM.norm>
0

>  <SCORE.heavy>
35

>  <SCORE.norm>
-0.158453

>  <RMSD>
29.726

$$$$
2f4t_lig
 OpenBabel11021811433D
libRbt.so/2013.1/901 2013/11/27
 35 36  0  0  0  0  0  0  0  0999 V2000
   12.9764   11.6558    8.7524 C   0  0  2  0  0  0  0  0  0  0  0  0
   11.9108   12.3034    7.9827 O   0  0  0  0  0  0  0  0  0  0  0  0
    7.6067   12.6576    7.9063 C   0  0  2  0  0  0  0  0  0  0  0  0
    6.1895   12.3475    8.1476 N   0  0  0  0  0  0  0  0  0  0  0  0
   12.9212   10.1460    8.3689 C   0  0  2  0  0  0  0  0  0  0  0  0
   13.0537    9.9778    6.9408 N   0  0  0  0  0  0  0  0  0  0  0  0
    8.3198   11.3916    7.3044 C   0  0  0  0  0  0  0  0  0  0  0  0
    6.0628   10.8650    9.0989 C   0  0  0  0  0  0  0  0  0  0  0  0
    4.5662   11.0722    9.0242 C   0  0  1  0  0  0  0  0  0  0  0  0
    4.0124   10.0744    8.0046 C   0  0  0  0  0  0  0  0  0  0  0  0
    4.4302   10.3139    6.5441 C   0  0  0  0  0  0  0  0  0  0  0  0
    5.8549    9.9947    6.4120 N   0  0  0  0  0  0  0  0  0  0  0  0
    3.9538   10.7531   10.2462 O   0  0  0  0  0  0  0  0  0  0  0  0
    7.5201   15.5070   10.2331 C   0  0  0  0  0  0  0  0  0  0  0  0
    7.9436   16.4533    9.1202 C   0  0  0  0  0  0  0  0  0  0  0  0
   11.5836    9.5103    8.8778 C   0  0  1  0  0  0  0  0  0  0  0  0
    9.2616   16.1245    8.5342 N   0  0  0  0  0  0  0  0  0  0  0  0
   11.5156    8.1376    8.5437 O   0  0  0  0  0  0  0  0  0  0  0  0
    9.8100   11.6465    7.0384 C   0  0  2  0  0  0  0  0  0  0  0  0
   10.4579   10.4462    6.5189 N   0  0  0  0  0  0  0  0  0  0  0  0
   11.7400   16.2770    8.2773 C   0  0  0  0  0  0  0  0  0  0  0  0
   13.0764   16.9457    8.7341 N   0  0  0  0  0  0  0  0  0  0  0  0
   10.4735   16.8872    8.9476 C   0  0  0  0  0  0  0  0  0  0  0  0
    6.7668   10.1769    9.5113 O   0  0  0  0  0  0  0  0  0  0  0  0
   11.5134    9.7029   10.3962 C   0  0  2  0  0  0  0  0  0  0  0  0
   10.3260    9.1359   10.9259 O   0  0  0  0  0  0  0  0  0  0  0  0
   10.5060   12.0724    8.3069 C   0  0  2  0  0  0  0  0  0  0  0  0
   11.5905   11.2178   10.7427 C   0  0  2  0  0  0  0  0  0  0  0  0
   12.7946   11.8114   10.2140 O   0  0  0  0  0  0  0  0  0  0  0  0
    9.8101   13.3700    8.9043 C   0  0  2  0  0  0  0  0  0  0  0  0
   10.5119   13.7555   10.1241 O   0  0  0  0  0  0  0  0  0  0  0  0
   11.5557   11.4542   12.2055 C   0  0  0  0  0  0  0  0  0  0  0  0
   12.6276   12.1927   12.5678 N   0  0  0  0  0  0  0  0  0  0  0  0
    8.3093   13.0408    9.2180 C   0  0  1  0  0  0  0  0  0  0  0  0
    7.6777   14.1516    9.7703 O   0  0  0  0  0  0  0  0  0  0  0  0
  1  2  1  6  0  0  0
  1  5  1  0  0  0  0
  1 29  1  0  0  0  0
  3  4  1  1  0  0  0
  3  7  1  0  0  0  0
  3 34  1  0  0  0  0
  5  6  1  6  0  0  0
  5 16  1  0  0  0  0
  7 19  1  0  0  0  0
  8  4  1  0  0  0  0
  8 24  2  0  0  0  0
  9  8  1  1  0  0  0
  9 10  1  0  0  0  0
  9 13  1  0  0  0  0
 10 11  1  0  0  0  0
 11 12  1  0  0  0  0
 14 15  1  0  0  0  0
 14 35  1  0  0  0  0
 15 17  1  0  0  0  0
 16 18  1  1  0  0  0
 16 25  1  0  0  0  0
 19 20  1  1  0  0  0
 19 27  1  0  0  0  0
 21 22  1  0  0  0  0
 21 23  1  0  0  0  0
 23 17  1  0  0  0  0
 25 26  1  6  0  0  0
 25 28  1  0  0  0  0
 27  2  1  6  0  0  0
 27 30  1  0  0  0  0
 28 29  1  0  0  0  0
 28 32  1  1  0  0  0
 30 31  1  1  0  0  0
 30 34  1  0  0  0  0
 32 33  2  0  0  0  0
 34 35  1  6  0  0  0
M  END
>  <CHROM.1>
70.71124239,52.02594857,104.35013424,-67.34643461,70.44346763,-49.72198751
52.22062582,-100.28829314,-175.74134796,175.50950296,-127.45241150,125.40087387
-115.64340202,9.40069654,12.09624469,8.94477843,-0.25115337,0.13585430,-3.07744303

>  <Name>
2f4t_lig

>  <RI>
0

>  <Rbt.Current_Directory>
/home/itssahil/PROJECTS/Mol_Feturizer/New_Systems/rnas/2f4t

>  <Rbt.Executable>
rbdock ($Id: //depot/dev/client3/rdock/2013.1/src/exe/rbdock.cxx#4 $)

>  <Rbt.Library>
libRbt.so (2013.1, Build901 2013/11/27)

>  <Rbt.Parameter_File>
/export/apps/rDock/src/rDock_2013.1_src/data/scripts/dock_solv.prm

>  <Rbt.Receptor>
prm/blind_docking_100.prm

>  <SCORE>
9.85884

>  <SCORE.INTER>
2.07584

>  <SCORE.INTER.CONST>
1

>  <SCORE.INTER.POLAR>
0

>  <SCORE.INTER.ROT>
13

>  <SCORE.INTER.SOLV>
11.8149

>  <SCORE.INTER.VDW>
-14.8211

>  <SCORE.INTER.norm>
0.0593097

>  <SCORE.INTRA>
6.31057

>  <SCORE.INTRA.DIHEDRAL>
-3.99395

>  <SCORE.INTRA.DIHEDRAL.0>
23.8882

>  <SCORE.INTRA.POLAR>
0

>  <SCORE.INTRA.POLAR.0>
0

>  <SCORE.INTRA.REPUL>
0.0143283

>  <SCORE.INTRA.REPUL.0>
0

>  <SCORE.INTRA.SOLV>
14.0961

>  <SCORE.INTRA.SOLV.lig_0>
-97.6888

>  <SCORE.INTRA.VDW>
1.18787

>  <SCORE.INTRA.VDW.0>
-3.9206

>  <SCORE.INTRA.norm>
0.180302

>  <SCORE.RESTR>
1.47244

>  <SCORE.RESTR.CAVITY>
1.47244

>  <SCORE.RESTR.norm>
0.0420696

>  <SCORE.SYSTEM>
0

>  <SCORE.SYSTEM.CONST>
0

>  <SCORE.SYSTEM.DIHEDRAL>
0

>  <SCORE.SYSTEM.SOLV>
0

>  <SCORE.SYSTEM.norm>
0

>  <SCORE.heavy>
35

>  <SCORE.norm>
0.281681

>  <RMSD>
29.727

$$$$
2f4t_lig
 OpenBabel11021811433D
libRbt.so/2013.1/901 2013/11/27
 35 36  0  0  0  0  0  0  0  0999 V2000
   11.7236   14.9636    9.5595 C   0  0  2  0  0  0  0  0  0  0  0  0
   11.1113   14.8045    8.2377 O   0  0  0  0  0  0  0  0  0  0  0  0
    7.5344   12.5301    9.0685 C   0  0  2  0  0  0  0  0  0  0  0  0
    6.1397   12.0702    8.9920 N   0  0  0  0  0  0  0  0  0  0  0  0
   13.2439   15.1894    9.3001 C   0  0  2  0  0  0  0  0  0  0  0  0
   13.4492   16.3207    8.4263 N   0  0  0  0  0  0  0  0  0  0  0  0
    7.5565   14.0912    9.2582 C   0  0  0  0  0  0  0  0  0  0  0  0
    5.8044   10.9747   10.3360 C   0  0  0  0  0  0  0  0  0  0  0  0
    4.4048   10.8805    9.7696 C   0  0  1  0  0  0  0  0  0  0  0  0
    3.8708    9.4824   10.0890 C   0  0  0  0  0  0  0  0  0  0  0  0
    2.6193    9.0527    9.3052 C   0  0  0  0  0  0  0  0  0  0  0  0
    2.9711    8.9629    7.8849 N   0  0  0  0  0  0  0  0  0  0  0  0
    3.5409   11.7788   10.4152 O   0  0  0  0  0  0  0  0  0  0  0  0
    8.6227    9.4191    7.7852 C   0  0  0  0  0  0  0  0  0  0  0  0
    9.9760    9.1685    7.1375 C   0  0  0  0  0  0  0  0  0  0  0  0
   13.8830   13.8969    8.6890 C   0  0  1  0  0  0  0  0  0  0  0  0
   11.0279    8.7738    8.0999 N   0  0  0  0  0  0  0  0  0  0  0  0
   15.2651   14.0793    8.4501 O   0  0  0  0  0  0  0  0  0  0  0  0
    8.9887   14.6383    9.3349 C   0  0  2  0  0  0  0  0  0  0  0  0
    8.9834   16.0916    9.4699 N   0  0  0  0  0  0  0  0  0  0  0  0
   12.7618    8.6162    6.3109 C   0  0  0  0  0  0  0  0  0  0  0  0
   12.2842    7.1723    5.9515 N   0  0  0  0  0  0  0  0  0  0  0  0
   12.4622    9.0264    7.7831 C   0  0  0  0  0  0  0  0  0  0  0  0
    6.3773   10.5908   11.1505 O   0  0  0  0  0  0  0  0  0  0  0  0
   13.6499   12.7425    9.6692 C   0  0  2  0  0  0  0  0  0  0  0  0
   14.2178   11.5383    9.1801 O   0  0  0  0  0  0  0  0  0  0  0  0
    9.7634   14.2612    8.0969 C   0  0  2  0  0  0  0  0  0  0  0  0
   12.1252   12.5588    9.9192 C   0  0  2  0  0  0  0  0  0  0  0  0
   11.5305   13.7740   10.4204 O   0  0  0  0  0  0  0  0  0  0  0  0
    9.7719   12.6826    7.9157 C   0  0  2  0  0  0  0  0  0  0  0  0
   10.5333   12.3555    6.7147 O   0  0  0  0  0  0  0  0  0  0  0  0
   11.8495   11.4696   10.8860 C   0  0  0  0  0  0  0  0  0  0  0  0
   11.0011   10.5776   10.3290 N   0  0  0  0  0  0  0  0  0  0  0  0
    8.2926   12.1806    7.7784 C   0  0  1  0  0  0  0  0  0  0  0  0
    8.2673   10.8017    7.5897 O   0  0  0  0  0  0  0  0  0  0  0  0
  1  2  1  6  0  0  0
  1  5  1  0  0  0  0
  1 29  1  0  0  0  0
  3  4  1  6  0  0  0
  3  7  1  0  0  0  0
  3 34  1  0  0  0  0
  5  6  1  6  0  0  0
  5 16  1  0  0  0  0
  7 19  1  0  0  0  0
  8  4  1  0  0  0  0
  8 24  2  0  0  0  0
  9  8  1  1  0  0  0
  9 10  1  0  0  0  0
  9 13  1  0  0  0  0
 10 11  1  0  0  0  0
 11 12  1  0  0  0  0
 14 15  1  0  0  0  0
 14 35  1  0  0  0  0
 15 17  1  0  0  0  0
 16 18  1  1  0  0  0
 16 25  1  0  0  0  0
 19 20  1  6  0  0  0
 19 27  1  0  0  0  0
 21 22  1  0  0  0  0
 21 23  1  0  0  0  0
 23 17  1  0  0  0  0
 25 26  1  6  0  0  0
 25 28  1  0  0  0  0
 27  2  1  1  0  0  0
 27 30  1  0  0  0  0
 28 29  1  0  0  0  0
 28 32  1  1  0  0  0
 30 31  1  6  0  0  0
 30 34  1  0  0  0  0
 32 33  2  0  0  0  0
 34 35  1  1  0  0  0
M  END
>  <CHROM.1>
165.15463408,-117.89810906,148.75791190,-165.08140134,64.62389543,116.82176737
-74.95415866,-154.91905665,-51.21468668,-44.64668651,30.10688238,-125.06668465
-76.83734732,9.60000120,11.91992041,8.82901169,0.29184744,0.16979556,0.29704300

>  <Name>
2f4t_lig

>  <RI>
0

>  <Rbt.Current_Directory>
/home/itssahil/PROJECTS/Mol_Feturizer/New_Systems/rnas/2f4t

>  <Rbt.Executable>
rbdock ($Id: //depot/dev/client3/rdock/2013.1/src/exe/rbdock.cxx#4 $)

>  <Rbt.Library>
libRbt.so (2013.1, Build901 2013/11/27)

>  <Rbt.Parameter_File>
/export/apps/rDock/src/rDock_2013.1_src/data/scripts/dock_solv.prm

>  <Rbt.Receptor>
prm/blind_docking_40.prm

>  <SCORE>
-4.24218

>  <SCORE.INTER>
-3.71968

>  <SCORE.INTER.CONST>
1

>  <SCORE.INTER.POLAR>
-1.07703

>  <SCORE.INTER.ROT>
13

>  <SCORE.INTER.SOLV>
12.323

>  <SCORE.INTER.VDW>
-15.264

>  <SCORE.INTER.norm>
-0.106276

>  <SCORE.INTRA>
-0.527961

>  <SCORE.INTRA.DIHEDRAL>
-5.98988

>  <SCORE.INTRA.DIHEDRAL.0>
23.8882

>  <SCORE.INTRA.POLAR>
0

>  <SCORE.INTRA.POLAR.0>
0

>  <SCORE.INTRA.REPUL>
0

>  <SCORE.INTRA.REPUL.0>
0

>  <SCORE.INTRA.SOLV>
5.5069

>  <SCORE.INTRA.SOLV.lig_0>
-97.6888

>  <SCORE.INTRA.VDW>
-0.28647

>  <SCORE.INTRA.VDW.0>
-3.9206

>  <SCORE.INTRA.norm>
-0.0150846

>  <SCORE.RESTR>
0.00545951

>  <SCORE.RESTR.CAVITY>
0.00545951

>  <SCORE.RESTR.norm>
0.000155986

>  <SCORE.SYSTEM>
0

>  <SCORE.SYSTEM.CONST>
0

>  <SCORE.SYSTEM.DIHEDRAL>
0

>  <SCORE.SYSTEM.SOLV>
0

>  <SCORE.SYSTEM.norm>
0

>  <SCORE.heavy>
35

>  <SCORE.norm>
-0.121205

>  <RMSD>
29.736

$$$$
2f4t_lig
 OpenBabel11021811433D
libRbt.so/2013.1/901 2013/11/27
 35 36  0  0  0  0  0  0  0  0999 V2000
   12.8720   11.1843    5.8592 C   0  0  2  0  0  0  0  0  0  0  0  0
   11.4813   11.4463    5.4790 O   0  0  0  0  0  0  0  0  0  0  0  0
    7.4545   10.6632    6.8314 C   0  0  2  0  0  0  0  0  0  0  0  0
    6.3357   10.0414    7.5555 N   0  0  0  0  0  0  0  0  0  0  0  0
   13.1392    9.6926    5.4945 C   0  0  2  0  0  0  0  0  0  0  0  0
   12.8654    9.4527    4.0970 N   0  0  0  0  0  0  0  0  0  0  0  0
    8.2924    9.5441    6.1109 C   0  0  0  0  0  0  0  0  0  0  0  0
    5.1655   11.2824    8.0129 C   0  0  0  0  0  0  0  0  0  0  0  0
    4.3681   10.1526    8.6260 C   0  0  1  0  0  0  0  0  0  0  0  0
    3.3082   10.7766    9.5364 C   0  0  0  0  0  0  0  0  0  0  0  0
    2.8872    9.9273   10.7475 C   0  0  0  0  0  0  0  0  0  0  0  0
    2.7256    8.5390   10.3053 N   0  0  0  0  0  0  0  0  0  0  0  0
    3.6608    9.4455    7.6410 O   0  0  0  0  0  0  0  0  0  0  0  0
    7.3781   13.6575    9.1174 C   0  0  0  0  0  0  0  0  0  0  0  0
    8.0864   13.6582   10.4634 C   0  0  0  0  0  0  0  0  0  0  0  0
   12.2685    8.7541    6.3965 C   0  0  1  0  0  0  0  0  0  0  0  0
    9.5527   13.4916   10.3599 N   0  0  0  0  0  0  0  0  0  0  0  0
   12.4998    7.3941    6.0844 O   0  0  0  0  0  0  0  0  0  0  0  0
    9.4862   10.1281    5.3426 C   0  0  2  0  0  0  0  0  0  0  0  0
   10.2705    9.0680    4.7171 N   0  0  0  0  0  0  0  0  0  0  0  0
    9.8691   15.5586    8.9965 C   0  0  0  0  0  0  0  0  0  0  0  0
   10.9624   16.0313    7.9850 N   0  0  0  0  0  0  0  0  0  0  0  0
   10.4266   14.6818   10.1565 C   0  0  0  0  0  0  0  0  0  0  0  0
    5.1063   12.3403    7.8841 O   0  0  0  0  0  0  0  0  0  0  0  0
   12.6197    9.0419    7.8598 C   0  0  2  0  0  0  0  0  0  0  0  0
   11.8718    8.2126    8.7343 O   0  0  0  0  0  0  0  0  0  0  0  0
   10.3754   10.9164    6.2715 C   0  0  2  0  0  0  0  0  0  0  0  0
   12.3595   10.5417    8.1826 C   0  0  2  0  0  0  0  0  0  0  0  0
   13.1151   11.4011    7.3040 O   0  0  0  0  0  0  0  0  0  0  0  0
    9.5424   12.0694    6.9799 C   0  0  2  0  0  0  0  0  0  0  0  0
   10.4341   12.8127    7.8639 O   0  0  0  0  0  0  0  0  0  0  0  0
   12.7128   10.8767    9.5825 C   0  0  0  0  0  0  0  0  0  0  0  0
   12.6703   12.2169    9.7490 N   0  0  0  0  0  0  0  0  0  0  0  0
    8.3755   11.4194    7.8016 C   0  0  1  0  0  0  0  0  0  0  0  0
    7.6423   12.4037    8.4584 O   0  0  0  0  0  0  0  0  0  0  0  0
  1  2  1  1  0  0  0
  1  5  1  0  0  0  0
  1 29  1  0  0  0  0
  3  4  1  1  0  0  0
  3  7  1  0  0  0  0
  3 34  1  0  0  0  0
  5  6  1  6  0  0  0
  5 16  1  0  0  0  0
  7 19  1  0  0  0  0
  8  4  1  0  0  0  0
  8 24  2  0  0  0  0
  9  8  1  6  0  0  0
  9 10  1  0  0  0  0
  9 13  1  0  0  0  0
 10 11  1  0  0  0  0
 11 12  1  0  0  0  0
 14 15  1  0  0  0  0
 14 35  1  0  0  0  0
 15 17  1  0  0  0  0
 16 18  1  6  0  0  0
 16 25  1  0  0  0  0
 19 20  1  1  0  0  0
 19 27  1  0  0  0  0
 21 22  1  0  0  0  0
 21 23  1  0  0  0  0
 23 17  1  0  0  0  0
 25 26  1  1  0  0  0
 25 28  1  0  0  0  0
 27  2  1  6  0  0  0
 27 30  1  0  0  0  0
 28 29  1  0  0  0  0
 28 32  1  1  0  0  0
 30 31  1  1  0  0  0
 30 34  1  0  0  0  0
 32 33  2  0  0  0  0
 34 35  1  6  0  0  0
M  END
>  <CHROM.1>
73.78070315,-165.50964759,165.54031360,-150.13599953,-42.96570061,59.60175580
-69.48062056,86.56692373,-134.46526897,-48.68867931,-125.13628655,170.41432780
-148.57541034,9.19944720,11.11092668,7.79268879,0.17506942,-0.22960139,-2.63348436

>  <Name>
2f4t_lig

>  <RI>
0

>  <Rbt.Current_Directory>
/home/itssahil/PROJECTS/Mol_Feturizer/New_Systems/rnas/2f4t

>  <Rbt.Executable>
rbdock ($Id: //depot/dev/client3/rdock/2013.1/src/exe/rbdock.cxx#4 $)

>  <Rbt.Library>
libRbt.so (2013.1, Build901 2013/11/27)

>  <Rbt.Parameter_File>
/export/apps/rDock/src/rDock_2013.1_src/data/scripts/dock_solv.prm

>  <Rbt.Receptor>
prm/blind_docking_80.prm

>  <SCORE>
9.12904

>  <SCORE.INTER>
-3.91981

>  <SCORE.INTER.CONST>
1

>  <SCORE.INTER.POLAR>
-2.26284

>  <SCORE.INTER.ROT>
13

>  <SCORE.INTER.SOLV>
18.5604

>  <SCORE.INTER.VDW>
-13.5239

>  <SCORE.INTER.norm>
-0.111995

>  <SCORE.INTRA>
8.92675

>  <SCORE.INTRA.DIHEDRAL>
0.267548

>  <SCORE.INTRA.DIHEDRAL.0>
23.8882

>  <SCORE.INTRA.POLAR>
0

>  <SCORE.INTRA.POLAR.0>
0

>  <SCORE.INTRA.REPUL>
0

>  <SCORE.INTRA.REPUL.0>
0

>  <SCORE.INTRA.SOLV>
12.6876

>  <SCORE.INTRA.SOLV.lig_0>
-97.6888

>  <SCORE.INTRA.VDW>
2.44917

>  <SCORE.INTRA.VDW.0>
-3.9206

>  <SCORE.INTRA.norm>
0.25505

>  <SCORE.RESTR>
4.1221

>  <SCORE.RESTR.CAVITY>
4.1221

>  <SCORE.RESTR.norm>
0.117774

>  <SCORE.SYSTEM>
0

>  <SCORE.SYSTEM.CONST>
0

>  <SCORE.SYSTEM.DIHEDRAL>
0

>  <SCORE.SYSTEM.SOLV>
0

>  <SCORE.SYSTEM.norm>
0

>  <SCORE.heavy>
35

>  <SCORE.norm>
0.26083

>  <RMSD>
29.738

$$$$
2f4t_lig
 OpenBabel11021811433D
libRbt.so/2013.1/901 2013/11/27
 35 36  0  0  0  0  0  0  0  0999 V2000
    4.4937   10.7340    7.9795 C   0  0  2  0  0  0  0  0  0  0  0  0
    5.6074    9.8058    7.7665 O   0  0  0  0  0  0  0  0  0  0  0  0
    9.1420   12.1124    8.6848 C   0  0  2  0  0  0  0  0  0  0  0  0
   10.4532   12.4678    9.2479 N   0  0  0  0  0  0  0  0  0  0  0  0
    3.3016    9.8616    8.4768 C   0  0  2  0  0  0  0  0  0  0  0  0
    3.6716    9.1194    9.6590 N   0  0  0  0  0  0  0  0  0  0  0  0
    8.2124   11.5744    9.8337 C   0  0  0  0  0  0  0  0  0  0  0  0
   11.2108   13.7077    8.2442 C   0  0  0  0  0  0  0  0  0  0  0  0
   12.3584   13.6508    9.2281 C   0  0  1  0  0  0  0  0  0  0  0  0
   13.5703   14.3063    8.5621 C   0  0  0  0  0  0  0  0  0  0  0  0
   14.9341   13.9814    9.1944 C   0  0  0  0  0  0  0  0  0  0  0  0
   15.9657   14.7469    8.4881 N   0  0  0  0  0  0  0  0  0  0  0  0
   12.0814   14.4228   10.3672 O   0  0  0  0  0  0  0  0  0  0  0  0
   10.6959   11.5673    5.2821 C   0  0  0  0  0  0  0  0  0  0  0  0
   10.8040   10.1666    4.6993 C   0  0  0  0  0  0  0  0  0  0  0  0
    2.8340    8.8915    7.3399 C   0  0  1  0  0  0  0  0  0  0  0  0
   11.8792    9.3538    5.3093 N   0  0  0  0  0  0  0  0  0  0  0  0
    1.7485    8.0931    7.7696 O   0  0  0  0  0  0  0  0  0  0  0  0
    6.8265   11.1743    9.3085 C   0  0  2  0  0  0  0  0  0  0  0  0
    5.9971   10.6408   10.3844 N   0  0  0  0  0  0  0  0  0  0  0  0
   10.8822    7.6354    6.8207 C   0  0  0  0  0  0  0  0  0  0  0  0
   11.4329    6.4285    5.9948 N   0  0  0  0  0  0  0  0  0  0  0  0
   11.7678    8.9131    6.7287 C   0  0  0  0  0  0  0  0  0  0  0  0
   10.9310   14.2247    7.3534 O   0  0  0  0  0  0  0  0  0  0  0  0
    2.4372    9.7382    6.1261 C   0  0  2  0  0  0  0  0  0  0  0  0
    1.9897    8.9180    5.0590 O   0  0  0  0  0  0  0  0  0  0  0  0
    6.9547   10.1347    8.2233 C   0  0  2  0  0  0  0  0  0  0  0  0
    3.6433   10.6089    5.6697 C   0  0  2  0  0  0  0  0  0  0  0  0
    4.1105   11.4529    6.7426 O   0  0  0  0  0  0  0  0  0  0  0  0
    7.8675   10.6834    7.0440 C   0  0  2  0  0  0  0  0  0  0  0  0
    7.9637    9.6559    6.0125 O   0  0  0  0  0  0  0  0  0  0  0  0
    3.2992   11.4697    4.5132 C   0  0  0  0  0  0  0  0  0  0  0  0
    3.1698   10.7056    3.4063 N   0  0  0  0  0  0  0  0  0  0  0  0
    9.2886   11.0172    7.6171 C   0  0  1  0  0  0  0  0  0  0  0  0
   10.1226   11.4748    6.6007 O   0  0  0  0  0  0  0  0  0  0  0  0
  1  2  1  6  0  0  0
  1  5  1  0  0  0  0
  1 29  1  0  0  0  0
  3  4  1  1  0  0  0
  3  7  1  0  0  0  0
  3 34  1  0  0  0  0
  5  6  1  1  0  0  0
  5 16  1  0  0  0  0
  7 19  1  0  0  0  0
  8  4  1  0  0  0  0
  8 24  2  0  0  0  0
  9  8  1  6  0  0  0
  9 10  1  0  0  0  0
  9 13  1  0  0  0  0
 10 11  1  0  0  0  0
 11 12  1  0  0  0  0
 14 15  1  0  0  0  0
 14 35  1  0  0  0  0
 15 17  1  0  0  0  0
 16 18  1  1  0  0  0
 16 25  1  0  0  0  0
 19 20  1  1  0  0  0
 19 27  1  0  0  0  0
 21 22  1  0  0  0  0
 21 23  1  0  0  0  0
 23 17  1  0  0  0  0
 25 26  1  6  0  0  0
 25 28  1  0  0  0  0
 27  2  1  6  0  0  0
 27 30  1  0  0  0  0
 28 29  1  0  0  0  0
 28 32  1  6  0  0  0
 30 31  1  6  0  0  0
 30 34  1  0  0  0  0
 32 33  2  0  0  0  0
 34 35  1  6  0  0  0
M  END
>  <CHROM.1>
-135.78682316,-153.84687931,162.91417665,-162.02167376,-176.73193599,-73.18992305
-38.45654195,67.94026067,59.36544782,82.28866423,21.61259117,-71.67512231
-155.92172597,8.04391049,10.94874091,7.40851190,2.81065755,-0.12114036,-2.37116185

>  <Name>
2f4t_lig

>  <RI>
0

>  <Rbt.Current_Directory>
/home/itssahil/PROJECTS/Mol_Feturizer/New_Systems/rnas/2f4t

>  <Rbt.Executable>
rbdock ($Id: //depot/dev/client3/rdock/2013.1/src/exe/rbdock.cxx#4 $)

>  <Rbt.Library>
libRbt.so (2013.1, Build901 2013/11/27)

>  <Rbt.Parameter_File>
/export/apps/rDock/src/rDock_2013.1_src/data/scripts/dock_solv.prm

>  <Rbt.Receptor>
prm/blind_docking_40.prm

>  <SCORE>
-5.74931

>  <SCORE.INTER>
-8.5781

>  <SCORE.INTER.CONST>
1

>  <SCORE.INTER.POLAR>
-1.96939

>  <SCORE.INTER.ROT>
13

>  <SCORE.INTER.SOLV>
17.4937

>  <SCORE.INTER.VDW>
-17.252

>  <SCORE.INTER.norm>
-0.245088

>  <SCORE.INTRA>
2.35874

>  <SCORE.INTRA.DIHEDRAL>
-2.69568

>  <SCORE.INTRA.DIHEDRAL.0>
23.8882

>  <SCORE.INTRA.POLAR>
0

>  <SCORE.INTRA.POLAR.0>
0

>  <SCORE.INTRA.REPUL>
0

>  <SCORE.INTRA.REPUL.0>
0

>  <SCORE.INTRA.SOLV>
5.32139

>  <SCORE.INTRA.SOLV.lig_0>
-97.6888

>  <SCORE.INTRA.VDW>
1.04589

>  <SCORE.INTRA.VDW.0>
-3.9206

>  <SCORE.INTRA.norm>
0.0673926

>  <SCORE.RESTR>
0.470046

>  <SCORE.RESTR.CAVITY>
0.470046

>  <SCORE.RESTR.norm>
0.0134299

>  <SCORE.SYSTEM>
0

>  <SCORE.SYSTEM.CONST>
0

>  <SCORE.SYSTEM.DIHEDRAL>
0

>  <SCORE.SYSTEM.SOLV>
0

>  <SCORE.SYSTEM.norm>
0

>  <SCORE.heavy>
35

>  <SCORE.norm>
-0.164266

>  <RMSD>
29.740

$$$$
2f4t_lig
 OpenBabel11021811433D
libRbt.so/2013.1/901 2013/11/27
 35 36  0  0  0  0  0  0  0  0999 V2000
    5.1838   11.2187    7.4065 C   0  0  2  0  0  0  0  0  0  0  0  0
    5.2523   11.7963    8.7514 O   0  0  0  0  0  0  0  0  0  0  0  0
    9.3551   13.1399    8.8897 C   0  0  2  0  0  0  0  0  0  0  0  0
   10.5562   13.8724    9.3180 N   0  0  0  0  0  0  0  0  0  0  0  0
    3.8386   10.4334    7.3485 C   0  0  2  0  0  0  0  0  0  0  0  0
    2.7281   11.3010    7.6638 N   0  0  0  0  0  0  0  0  0  0  0  0
    8.1827   14.1605    8.6500 C   0  0  0  0  0  0  0  0  0  0  0  0
   11.2640   14.7080    7.9324 C   0  0  0  0  0  0  0  0  0  0  0  0
   12.3085   15.2098    8.9048 C   0  0  1  0  0  0  0  0  0  0  0  0
   13.6814   14.8391    8.3394 C   0  0  0  0  0  0  0  0  0  0  0  0
   14.8882   15.2444    9.2022 C   0  0  0  0  0  0  0  0  0  0  0  0
   16.1113   14.8118    8.5195 N   0  0  0  0  0  0  0  0  0  0  0  0
   12.2901   16.6112    8.9819 O   0  0  0  0  0  0  0  0  0  0  0  0
   11.2532   10.7686   10.6178 C   0  0  0  0  0  0  0  0  0  0  0  0
   12.3135   11.4810    9.7922 C   0  0  0  0  0  0  0  0  0  0  0  0
    3.8839    9.2154    8.3318 C   0  0  1  0  0  0  0  0  0  0  0  0
   12.0481   11.4518    8.3371 N   0  0  0  0  0  0  0  0  0  0  0  0
    2.6729    8.4858    8.2909 O   0  0  0  0  0  0  0  0  0  0  0  0
    6.8918   13.4562    8.2096 C   0  0  2  0  0  0  0  0  0  0  0  0
    5.8089   14.4187    8.0331 N   0  0  0  0  0  0  0  0  0  0  0  0
   11.7580   10.1892    6.2033 C   0  0  0  0  0  0  0  0  0  0  0  0
   12.2388    9.0230    5.2810 N   0  0  0  0  0  0  0  0  0  0  0  0
   12.6073   10.3541    7.4983 C   0  0  0  0  0  0  0  0  0  0  0  0
   11.0165   14.7843    6.8970 O   0  0  0  0  0  0  0  0  0  0  0  0
    5.0663    8.3264    7.9328 C   0  0  2  0  0  0  0  0  0  0  0  0
    5.1578    7.1923    8.7798 O   0  0  0  0  0  0  0  0  0  0  0  0
    6.4765   12.4295    9.2335 C   0  0  2  0  0  0  0  0  0  0  0  0
    6.3875    9.1468    7.9832 C   0  0  2  0  0  0  0  0  0  0  0  0
    6.3139   10.3038    7.1244 O   0  0  0  0  0  0  0  0  0  0  0  0
    7.6449   11.3761    9.4580 C   0  0  2  0  0  0  0  0  0  0  0  0
    7.2063   10.3976   10.4475 O   0  0  0  0  0  0  0  0  0  0  0  0
    7.5594    8.3357    7.5761 C   0  0  0  0  0  0  0  0  0  0  0  0
    8.5420    9.1530    7.1379 N   0  0  0  0  0  0  0  0  0  0  0  0
    8.9195   12.1346    9.9671 C   0  0  1  0  0  0  0  0  0  0  0  0
    9.9549   11.2338   10.2007 O   0  0  0  0  0  0  0  0  0  0  0  0
  1  2  1  1  0  0  0
  1  5  1  0  0  0  0
  1 29  1  0  0  0  0
  3  4  1  1  0  0  0
  3  7  1  0  0  0  0
  3 34  1  0  0  0  0
  5  6  1  1  0  0  0
  5 16  1  0  0  0  0
  7 19  1  0  0  0  0
  8  4  1  0  0  0  0
  8 24  2  0  0  0  0
  9  8  1  6  0  0  0
  9 10  1  0  0  0  0
  9 13  1  0  0  0  0
 10 11  1  0  0  0  0
 11 12  1  0  0  0  0
 14 15  1  0  0  0  0
 14 35  1  0  0  0  0
 15 17  1  0  0  0  0
 16 18  1  6  0  0  0
 16 25  1  0  0  0  0
 19 20  1  1  0  0  0
 19 27  1  0  0  0  0
 21 22  1  0  0  0  0
 21 23  1  0  0  0  0
 23 17  1  0  0  0  0
 25 26  1  1  0  0  0
 25 28  1  0  0  0  0
 27  2  1  6  0  0  0
 27 30  1  0  0  0  0
 28 29  1  0  0  0  0
 28 32  1  6  0  0  0
 30 31  1  1  0  0  0
 30 34  1  0  0  0  0
 32 33  2  0  0  0  0
 34 35  1  6  0  0  0
M  END
>  <CHROM.1>
170.43474626,-74.46585643,125.78298331,-178.95920587,179.77780836,-49.17922132
-60.84627865,-91.58222159,-177.91794259,156.62905746,52.62204867,156.40533789
65.26390990,8.77447019,11.73148123,8.38868995,2.66132798,-0.04487244,-2.96416085

>  <Name>
2f4t_lig

>  <RI>
0

>  <Rbt.Current_Directory>
/home/itssahil/PROJECTS/Mol_Feturizer/New_Systems/rnas/2f4t

>  <Rbt.Executable>
rbdock ($Id: //depot/dev/client3/rdock/2013.1/src/exe/rbdock.cxx#4 $)

>  <Rbt.Library>
libRbt.so (2013.1, Build901 2013/11/27)

>  <Rbt.Parameter_File>
/export/apps/rDock/src/rDock_2013.1_src/data/scripts/dock_solv.prm

>  <Rbt.Receptor>
prm/blind_docking_40.prm

>  <SCORE>
-8.29961

>  <SCORE.INTER>
-1.10669

>  <SCORE.INTER.CONST>
1

>  <SCORE.INTER.POLAR>
-0.916515

>  <SCORE.INTER.ROT>
13

>  <SCORE.INTER.SOLV>
10.4212

>  <SCORE.INTER.VDW>
-13.4231

>  <SCORE.INTER.norm>
-0.0316199

>  <SCORE.INTRA>
-8.53022

>  <SCORE.INTRA.DIHEDRAL>
-17.5054

>  <SCORE.INTRA.DIHEDRAL.0>
23.8882

>  <SCORE.INTRA.POLAR>
0

>  <SCORE.INTRA.POLAR.0>
0

>  <SCORE.INTRA.REPUL>
0

>  <SCORE.INTRA.REPUL.0>
0

>  <SCORE.INTRA.SOLV>
2.92404

>  <SCORE.INTRA.SOLV.lig_0>
-97.6888

>  <SCORE.INTRA.VDW>
-1.23956

>  <SCORE.INTRA.VDW.0>
-3.9206

>  <SCORE.INTRA.norm>
-0.243721

>  <SCORE.RESTR>
1.3373

>  <SCORE.RESTR.CAVITY>
1.3373

>  <SCORE.RESTR.norm>
0.0382086

>  <SCORE.SYSTEM>
0

>  <SCORE.SYSTEM.CONST>
0

>  <SCORE.SYSTEM.DIHEDRAL>
0

>  <SCORE.SYSTEM.SOLV>
0

>  <SCORE.SYSTEM.norm>
0

>  <SCORE.heavy>
35

>  <SCORE.norm>
-0.237132

>  <RMSD>
29.746

$$$$
2f4t_lig
 OpenBabel11021811433D
libRbt.so/2013.1/901 2013/11/27
 35 36  0  0  0  0  0  0  0  0999 V2000
    5.2539   12.1637    9.0264 C   0  0  2  0  0  0  0  0  0  0  0  0
    5.9069   11.9322   10.3175 O   0  0  0  0  0  0  0  0  0  0  0  0
    9.9350   13.2612    9.5015 C   0  0  2  0  0  0  0  0  0  0  0  0
   11.2972   13.7661    9.7301 N   0  0  0  0  0  0  0  0  0  0  0  0
    3.8781   11.4357    9.1086 C   0  0  2  0  0  0  0  0  0  0  0  0
    3.1153   11.9137   10.2378 N   0  0  0  0  0  0  0  0  0  0  0  0
    8.9030   14.2124   10.2113 C   0  0  0  0  0  0  0  0  0  0  0  0
   11.6116   15.1276    8.6501 C   0  0  0  0  0  0  0  0  0  0  0  0
   12.9767   15.1885    9.2990 C   0  0  1  0  0  0  0  0  0  0  0  0
   13.9571   15.7386    8.2607 C   0  0  0  0  0  0  0  0  0  0  0  0
   15.4480   15.5486    8.5866 C   0  0  0  0  0  0  0  0  0  0  0  0
   15.7584   14.1176    8.5159 N   0  0  0  0  0  0  0  0  0  0  0  0
   12.9867   16.1059   10.3613 O   0  0  0  0  0  0  0  0  0  0  0  0
   11.9738   10.3971    9.1785 C   0  0  0  0  0  0  0  0  0  0  0  0
   11.8562    9.6046    7.8855 C   0  0  0  0  0  0  0  0  0  0  0  0
    4.0936    9.8875    9.2037 C   0  0  1  0  0  0  0  0  0  0  0  0
   11.6645   10.4520    6.6882 N   0  0  0  0  0  0  0  0  0  0  0  0
    2.8558    9.2070    9.2745 O   0  0  0  0  0  0  0  0  0  0  0  0
    7.4573   13.7335   10.0194 C   0  0  2  0  0  0  0  0  0  0  0  0
    6.5226   14.6083   10.7203 N   0  0  0  0  0  0  0  0  0  0  0  0
    9.7305   10.3402    5.1138 C   0  0  0  0  0  0  0  0  0  0  0  0
    8.9769    9.4671    4.0594 N   0  0  0  0  0  0  0  0  0  0  0  0
   11.1765    9.8475    5.4162 C   0  0  0  0  0  0  0  0  0  0  0  0
   11.0477   15.6330    7.8980 O   0  0  0  0  0  0  0  0  0  0  0  0
    4.8877    9.4418    7.9714 C   0  0  2  0  0  0  0  0  0  0  0  0
    5.1080    8.0407    7.9885 O   0  0  0  0  0  0  0  0  0  0  0  0
    7.2961   12.3255   10.5357 C   0  0  2  0  0  0  0  0  0  0  0  0
    6.2442   10.2017    7.9112 C   0  0  2  0  0  0  0  0  0  0  0  0
    6.0395   11.6297    7.8901 O   0  0  0  0  0  0  0  0  0  0  0  0
    8.3145   11.3524    9.8003 C   0  0  2  0  0  0  0  0  0  0  0  0
    8.1262   10.0019   10.3195 O   0  0  0  0  0  0  0  0  0  0  0  0
    7.0379    9.8250    6.7175 C   0  0  0  0  0  0  0  0  0  0  0  0
    8.0274    8.9807    7.0830 N   0  0  0  0  0  0  0  0  0  0  0  0
    9.7769   11.8458   10.0785 C   0  0  1  0  0  0  0  0  0  0  0  0
   10.6960   10.9960    9.4696 O   0  0  0  0  0  0  0  0  0  0  0  0
  1  2  1  1  0  0  0
  1  5  1  0  0  0  0
  1 29  1  0  0  0  0
  3  4  1  1  0  0  0
  3  7  1  0  0  0  0
  3 34  1  0  0  0  0
  5  6  1  1  0  0  0
  5 16  1  0  0  0  0
  7 19  1  0  0  0  0
  8  4  1  0  0  0  0
  8 24  2  0  0  0  0
  9  8  1  6  0  0  0
  9 10  1  0  0  0  0
  9 13  1  0  0  0  0
 10 11  1  0  0  0  0
 11 12  1  0  0  0  0
 14 15  1  0  0  0  0
 14 35  1  0  0  0  0
 15 17  1  0  0  0  0
 16 18  1  6  0  0  0
 16 25  1  0  0  0  0
 19 20  1  1  0  0  0
 19 27  1  0  0  0  0
 21 22  1  0  0  0  0
 21 23  1  0  0  0  0
 23 17  1  0  0  0  0
 25 26  1  1  0  0  0
 25 28  1  0  0  0  0
 27  2  1  6  0  0  0
 27 30  1  0  0  0  0
 28 29  1  0  0  0  0
 28 32  1  6  0  0  0
 30 31  1  1  0  0  0
 30 34  1  0  0  0  0
 32 33  2  0  0  0  0
 34 35  1  6  0  0  0
M  END
>  <CHROM.1>
171.93275006,-78.07507094,150.45898659,-165.00886823,68.08924314,68.57651615
-165.29322289,-163.80131674,-163.02002843,110.71228379,47.15574629,-103.10400854
75.11592035,8.85070346,11.93668386,8.66441256,2.77399302,-0.28778194,-2.51037010

>  <Name>
2f4t_lig

>  <RI>
0

>  <Rbt.Current_Directory>
/home/itssahil/PROJECTS/Mol_Feturizer/New_Systems/rnas/2f4t

>  <Rbt.Executable>
rbdock ($Id: //depot/dev/client3/rdock/2013.1/src/exe/rbdock.cxx#4 $)

>  <Rbt.Library>
libRbt.so (2013.1, Build901 2013/11/27)

>  <Rbt.Parameter_File>
/export/apps/rDock/src/rDock_2013.1_src/data/scripts/dock_solv.prm

>  <Rbt.Receptor>
prm/blind_docking_40.prm

>  <SCORE>
-2.15986

>  <SCORE.INTER>
3.7915

>  <SCORE.INTER.CONST>
1

>  <SCORE.INTER.POLAR>
0

>  <SCORE.INTER.ROT>
13

>  <SCORE.INTER.SOLV>
15.4527

>  <SCORE.INTER.VDW>
-14.8899

>  <SCORE.INTER.norm>
0.108329

>  <SCORE.INTRA>
-6.31162

>  <SCORE.INTRA.DIHEDRAL>
-14.2786

>  <SCORE.INTRA.DIHEDRAL.0>
23.8882

>  <SCORE.INTRA.POLAR>
0

>  <SCORE.INTRA.POLAR.0>
0

>  <SCORE.INTRA.REPUL>
0

>  <SCORE.INTRA.REPUL.0>
0

>  <SCORE.INTRA.SOLV>
3.68039

>  <SCORE.INTRA.SOLV.lig_0>
-97.6888

>  <SCORE.INTRA.VDW>
-1.01251

>  <SCORE.INTRA.VDW.0>
-3.9206

>  <SCORE.INTRA.norm>
-0.180332

>  <SCORE.RESTR>
0.360251

>  <SCORE.RESTR.CAVITY>
0.360251

>  <SCORE.RESTR.norm>
0.0102929

>  <SCORE.SYSTEM>
0

>  <SCORE.SYSTEM.CONST>
0

>  <SCORE.SYSTEM.DIHEDRAL>
0

>  <SCORE.SYSTEM.SOLV>
0

>  <SCORE.SYSTEM.norm>
0

>  <SCORE.heavy>
35

>  <SCORE.norm>
-0.0617104

>  <RMSD>
29.756

$$$$
2f4t_lig
 OpenBabel11021811433D
libRbt.so/2013.1/901 2013/11/27
 35 36  0  0  0  0  0  0  0  0999 V2000
    5.6719   11.8145    8.5659 C   0  0  2  0  0  0  0  0  0  0  0  0
    6.2072   11.6659    9.9219 O   0  0  0  0  0  0  0  0  0  0  0  0
    9.9754   13.7525    9.6003 C   0  0  2  0  0  0  0  0  0  0  0  0
   11.1813   14.4971    9.9929 N   0  0  0  0  0  0  0  0  0  0  0  0
    4.4680   10.8288    8.4731 C   0  0  2  0  0  0  0  0  0  0  0  0
    3.5023   11.1048    9.5108 N   0  0  0  0  0  0  0  0  0  0  0  0
    8.7068   14.4707   10.1906 C   0  0  0  0  0  0  0  0  0  0  0  0
   12.2249   14.7161    8.5852 C   0  0  0  0  0  0  0  0  0  0  0  0
   13.1533   15.4561    9.5226 C   0  0  1  0  0  0  0  0  0  0  0  0
   14.5157   15.5630    8.8338 C   0  0  0  0  0  0  0  0  0  0  0  0
   15.3037   14.2483    8.7091 C   0  0  0  0  0  0  0  0  0  0  0  0
   16.5140   14.5069    7.9234 N   0  0  0  0  0  0  0  0  0  0  0  0
   12.7184   16.7757    9.7214 O   0  0  0  0  0  0  0  0  0  0  0  0
   12.5455   11.3360    9.4954 C   0  0  0  0  0  0  0  0  0  0  0  0
   12.6896   10.3420    8.3532 C   0  0  0  0  0  0  0  0  0  0  0  0
    4.9746    9.3502    8.5698 C   0  0  1  0  0  0  0  0  0  0  0  0
   11.7170    9.2288    8.4119 N   0  0  0  0  0  0  0  0  0  0  0  0
    3.8969    8.4385    8.4828 O   0  0  0  0  0  0  0  0  0  0  0  0
    7.4103   13.7347    9.8247 C   0  0  2  0  0  0  0  0  0  0  0  0
    6.2521   14.3964   10.4170 N   0  0  0  0  0  0  0  0  0  0  0  0
   12.8106    8.3265    6.3574 C   0  0  0  0  0  0  0  0  0  0  0  0
   11.9929    8.9373    5.1741 N   0  0  0  0  0  0  0  0  0  0  0  0
   11.9465    7.9939    7.6096 C   0  0  0  0  0  0  0  0  0  0  0  0
   12.1681   14.4297    7.5586 O   0  0  0  0  0  0  0  0  0  0  0  0
    5.9760    9.1160    7.4340 C   0  0  2  0  0  0  0  0  0  0  0  0
    6.4670    7.7854    7.4560 O   0  0  0  0  0  0  0  0  0  0  0  0
    7.4617   12.3063   10.3065 C   0  0  2  0  0  0  0  0  0  0  0  0
    7.1523   10.1282    7.5468 C   0  0  2  0  0  0  0  0  0  0  0  0
    6.6717   11.4884    7.5230 O   0  0  0  0  0  0  0  0  0  0  0  0
    8.7243   11.5650    9.6890 C   0  0  2  0  0  0  0  0  0  0  0  0
    8.7379   10.1878   10.1710 O   0  0  0  0  0  0  0  0  0  0  0  0
    8.1353    9.9601    6.4502 C   0  0  0  0  0  0  0  0  0  0  0  0
    8.9983   10.9997    6.4562 N   0  0  0  0  0  0  0  0  0  0  0  0
   10.0243   12.3156   10.1426 C   0  0  1  0  0  0  0  0  0  0  0  0
   11.1520   11.6727    9.6400 O   0  0  0  0  0  0  0  0  0  0  0  0
  1  2  1  1  0  0  0
  1  5  1  0  0  0  0
  1 29  1  0  0  0  0
  3  4  1  1  0  0  0
  3  7  1  0  0  0  0
  3 34  1  0  0  0  0
  5  6  1  1  0  0  0
  5 16  1  0  0  0  0
  7 19  1  0  0  0  0
  8  4  1  0  0  0  0
  8 24  2  0  0  0  0
  9  8  1  6  0  0  0
  9 10  1  0  0  0  0
  9 13  1  0  0  0  0
 10 11  1  0  0  0  0
 11 12  1  0  0  0  0
 14 15  1  0  0  0  0
 14 35  1  0  0  0  0
 15 17  1  0  0  0  0
 16 18  1  6  0  0  0
 16 25  1  0  0  0  0
 19 20  1  1  0  0  0
 19 27  1  0  0  0  0
 21 22  1  0  0  0  0
 21 23  1  0  0  0  0
 23 17  1  0  0  0  0
 25 26  1  1  0  0  0
 25 28  1  0  0  0  0
 27  2  1  6  0  0  0
 27 30  1  0  0  0  0
 28 29  1  0  0  0  0
 28 32  1  6  0  0  0
 30 31  1  1  0  0  0
 30 34  1  0  0  0  0
 32 33  2  0  0  0  0
 34 35  1  6  0  0  0
M  END
>  <CHROM.1>
171.46636400,-133.19078943,164.14340948,-70.66956986,174.85294557,-47.05459401
-176.46605517,-163.35309438,-81.03761630,-26.45592862,46.90566384,169.26686056
74.78804844,9.48656590,11.79531822,8.64703862,2.71509967,-0.17344829,-2.71847078

>  <Name>
2f4t_lig

>  <RI>
0

>  <Rbt.Current_Directory>
/home/itssahil/PROJECTS/Mol_Feturizer/New_Systems/rnas/2f4t

>  <Rbt.Executable>
rbdock ($Id: //depot/dev/client3/rdock/2013.1/src/exe/rbdock.cxx#4 $)

>  <Rbt.Library>
libRbt.so (2013.1, Build901 2013/11/27)

>  <Rbt.Parameter_File>
/export/apps/rDock/src/rDock_2013.1_src/data/scripts/dock_solv.prm

>  <Rbt.Receptor>
prm/blind_docking_80.prm

>  <SCORE>
-2.63235

>  <SCORE.INTER>
-1.9147

>  <SCORE.INTER.CONST>
1

>  <SCORE.INTER.POLAR>
-0.89708

>  <SCORE.INTER.ROT>
13

>  <SCORE.INTER.SOLV>
11.534

>  <SCORE.INTER.VDW>
-14.3975

>  <SCORE.INTER.norm>
-0.0547057

>  <SCORE.INTRA>
-4.23979

>  <SCORE.INTRA.DIHEDRAL>
-14.2001

>  <SCORE.INTRA.DIHEDRAL.0>
23.8882

>  <SCORE.INTRA.POLAR>
0

>  <SCORE.INTRA.POLAR.0>
0

>  <SCORE.INTRA.REPUL>
0

>  <SCORE.INTRA.REPUL.0>
0

>  <SCORE.INTRA.SOLV>
4.14204

>  <SCORE.INTRA.SOLV.lig_0>
-97.6888

>  <SCORE.INTRA.VDW>
0.789212

>  <SCORE.INTRA.VDW.0>
-3.9206

>  <SCORE.INTRA.norm>
-0.121137

>  <SCORE.RESTR>
3.52214

>  <SCORE.RESTR.CAVITY>
3.52214

>  <SCORE.RESTR.norm>
0.100633

>  <SCORE.SYSTEM>
0

>  <SCORE.SYSTEM.CONST>
0

>  <SCORE.SYSTEM.DIHEDRAL>
0

>  <SCORE.SYSTEM.SOLV>
0

>  <SCORE.SYSTEM.norm>
0

>  <SCORE.heavy>
35

>  <SCORE.norm>
-0.0752101

>  <RMSD>
29.757

$$$$
2f4t_lig
 OpenBabel11021811433D
libRbt.so/2013.1/901 2013/11/27
 35 36  0  0  0  0  0  0  0  0999 V2000
   11.7531   15.0387    9.5764 C   0  0  2  0  0  0  0  0  0  0  0  0
   11.1476   14.9405    8.2456 O   0  0  0  0  0  0  0  0  0  0  0  0
    7.4986   12.7697    9.0388 C   0  0  2  0  0  0  0  0  0  0  0  0
    6.1012   12.3259    8.9241 N   0  0  0  0  0  0  0  0  0  0  0  0
   13.2693   15.3084    9.3353 C   0  0  2  0  0  0  0  0  0  0  0  0
   13.4543   16.4899    8.5259 N   0  0  0  0  0  0  0  0  0  0  0  0
    7.5382   14.3388    9.1383 C   0  0  0  0  0  0  0  0  0  0  0  0
    5.7684   11.0993   10.1503 C   0  0  0  0  0  0  0  0  0  0  0  0
    4.3652   11.0696    9.5859 C   0  0  1  0  0  0  0  0  0  0  0  0
    4.1721    9.7153    8.9001 C   0  0  0  0  0  0  0  0  0  0  0  0
    4.2114    8.4883    9.8264 C   0  0  0  0  0  0  0  0  0  0  0  0
    4.2317    7.2812    8.9949 N   0  0  0  0  0  0  0  0  0  0  0  0
    3.4100   11.1200   10.6132 O   0  0  0  0  0  0  0  0  0  0  0  0
    8.4114    9.5701    8.0990 C   0  0  0  0  0  0  0  0  0  0  0  0
    9.8427    9.3431    8.5609 C   0  0  0  0  0  0  0  0  0  0  0  0
   13.9357   14.0644    8.6565 C   0  0  1  0  0  0  0  0  0  0  0  0
   10.8321    9.3836    7.4618 N   0  0  0  0  0  0  0  0  0  0  0  0
   15.3144   14.2870    8.4331 O   0  0  0  0  0  0  0  0  0  0  0  0
    8.9744   14.8692    9.2500 C   0  0  2  0  0  0  0  0  0  0  0  0
    8.9874   16.3278    9.2999 N   0  0  0  0  0  0  0  0  0  0  0  0
   13.0127    8.7538    6.4229 C   0  0  0  0  0  0  0  0  0  0  0  0
   12.3183    7.6172    5.6058 N   0  0  0  0  0  0  0  0  0  0  0  0
   12.2715    9.1184    7.7431 C   0  0  0  0  0  0  0  0  0  0  0  0
    6.3441   10.6313   10.9175 O   0  0  0  0  0  0  0  0  0  0  0  0
   13.7231   12.8535    9.5708 C   0  0  2  0  0  0  0  0  0  0  0  0
   14.3161   11.6895    9.0184 O   0  0  0  0  0  0  0  0  0  0  0  0
    9.7986   14.4090    8.0736 C   0  0  2  0  0  0  0  0  0  0  0  0
   12.2017   12.6261    9.8048 C   0  0  2  0  0  0  0  0  0  0  0  0
   11.5816   13.7999   10.3698 O   0  0  0  0  0  0  0  0  0  0  0  0
    9.7888   12.8225    7.9851 C   0  0  2  0  0  0  0  0  0  0  0  0
   10.5990   12.4145    6.8421 O   0  0  0  0  0  0  0  0  0  0  0  0
   11.9452   11.4802   10.7092 C   0  0  0  0  0  0  0  0  0  0  0  0
   10.6315   11.1659   10.6760 N   0  0  0  0  0  0  0  0  0  0  0  0
    8.3091   12.3342    7.8082 C   0  0  1  0  0  0  0  0  0  0  0  0
    8.2694   10.9470    7.6990 O   0  0  0  0  0  0  0  0  0  0  0  0
  1  2  1  6  0  0  0
  1  5  1  0  0  0  0
  1 29  1  0  0  0  0
  3  4  1  6  0  0  0
  3  7  1  0  0  0  0
  3 34  1  0  0  0  0
  5  6  1  6  0  0  0
  5 16  1  0  0  0  0
  7 19  1  0  0  0  0
  8  4  1  0  0  0  0
  8 24  2  0  0  0  0
  9  8  1  1  0  0  0
  9 10  1  0  0  0  0
  9 13  1  0  0  0  0
 10 11  1  0  0  0  0
 11 12  1  0  0  0  0
 14 15  1  0  0  0  0
 14 35  1  0  0  0  0
 15 17  1  0  0  0  0
 16 18  1  1  0  0  0
 16 25  1  0  0  0  0
 19 20  1  6  0  0  0
 19 27  1  0  0  0  0
 21 22  1  0  0  0  0
 21 23  1  0  0  0  0
 23 17  1  0  0  0  0
 25 26  1  6  0  0  0
 25 28  1  0  0  0  0
 27  2  1  1  0  0  0
 27 30  1  0  0  0  0
 28 29  1  0  0  0  0
 28 32  1  1  0  0  0
 30 31  1  6  0  0  0
 30 34  1  0  0  0  0
 32 33  2  0  0  0  0
 34 35  1  1  0  0  0
M  END
>  <CHROM.1>
166.63733794,-127.64722505,111.50050383,64.99168830,-170.88917746,-70.19141548
-55.85921564,-177.27047789,-51.50889701,161.33315193,36.48594232,-168.31902366
-54.26433618,9.67761622,12.00121875,8.84681158,0.38093667,0.19424061,0.25121934

>  <Name>
2f4t_lig

>  <RI>
0

>  <Rbt.Current_Directory>
/home/itssahil/PROJECTS/Mol_Feturizer/New_Systems/rnas/2f4t

>  <Rbt.Executable>
rbdock ($Id: //depot/dev/client3/rdock/2013.1/src/exe/rbdock.cxx#4 $)

>  <Rbt.Library>
libRbt.so (2013.1, Build901 2013/11/27)

>  <Rbt.Parameter_File>
/export/apps/rDock/src/rDock_2013.1_src/data/scripts/dock_solv.prm

>  <Rbt.Receptor>
prm/blind_docking_40.prm

>  <SCORE>
-10.1306

>  <SCORE.INTER>
-3.84214

>  <SCORE.INTER.CONST>
1

>  <SCORE.INTER.POLAR>
-1.22279

>  <SCORE.INTER.ROT>
13

>  <SCORE.INTER.SOLV>
11.1679

>  <SCORE.INTER.VDW>
-14.4747

>  <SCORE.INTER.norm>
-0.109775

>  <SCORE.INTRA>
-6.57787

>  <SCORE.INTRA.DIHEDRAL>
-13.7447

>  <SCORE.INTRA.DIHEDRAL.0>
23.8882

>  <SCORE.INTRA.POLAR>
0

>  <SCORE.INTRA.POLAR.0>
0

>  <SCORE.INTRA.REPUL>
0

>  <SCORE.INTRA.REPUL.0>
0

>  <SCORE.INTRA.SOLV>
4.58794

>  <SCORE.INTRA.SOLV.lig_0>
-97.6888

>  <SCORE.INTRA.VDW>
-1.99949

>  <SCORE.INTRA.VDW.0>
-3.9206

>  <SCORE.INTRA.norm>
-0.187939

>  <SCORE.RESTR>
0.289391

>  <SCORE.RESTR.CAVITY>
0.289391

>  <SCORE.RESTR.norm>
0.00826832

>  <SCORE.SYSTEM>
0

>  <SCORE.SYSTEM.CONST>
0

>  <SCORE.SYSTEM.DIHEDRAL>
0

>  <SCORE.SYSTEM.SOLV>
0

>  <SCORE.SYSTEM.norm>
0

>  <SCORE.heavy>
35

>  <SCORE.norm>
-0.289446

>  <RMSD>
29.761

$$$$
2f4t_lig
 OpenBabel11021811433D
libRbt.so/2013.1/901 2013/11/27
 35 36  0  0  0  0  0  0  0  0999 V2000
   11.5876   15.0076    9.7784 C   0  0  2  0  0  0  0  0  0  0  0  0
   10.9020   15.0157    8.4834 O   0  0  0  0  0  0  0  0  0  0  0  0
    7.2228   12.9076    9.3058 C   0  0  2  0  0  0  0  0  0  0  0  0
    5.7986   12.5436    9.2622 N   0  0  0  0  0  0  0  0  0  0  0  0
   13.0967   15.2368    9.4626 C   0  0  2  0  0  0  0  0  0  0  0  0
   13.2813   16.4596    8.7168 N   0  0  0  0  0  0  0  0  0  0  0  0
    7.3566   14.4430    9.6190 C   0  0  0  0  0  0  0  0  0  0  0  0
    5.5706   10.9594   10.0086 C   0  0  0  0  0  0  0  0  0  0  0  0
    4.1015   11.1439    9.6988 C   0  0  1  0  0  0  0  0  0  0  0  0
    3.4121    9.7941    9.9100 C   0  0  0  0  0  0  0  0  0  0  0  0
    3.9070    8.6464    9.0139 C   0  0  0  0  0  0  0  0  0  0  0  0
    3.0910    7.4599    9.2887 N   0  0  0  0  0  0  0  0  0  0  0  0
    3.5036   12.0278   10.6106 O   0  0  0  0  0  0  0  0  0  0  0  0
    7.1182   10.0198    7.3519 C   0  0  0  0  0  0  0  0  0  0  0  0
    8.1789    8.9449    7.1700 C   0  0  0  0  0  0  0  0  0  0  0  0
   13.6720   14.0148    8.6701 C   0  0  1  0  0  0  0  0  0  0  0  0
    9.2235    9.3056    6.1865 N   0  0  0  0  0  0  0  0  0  0  0  0
   15.0432   14.2008    8.3772 O   0  0  0  0  0  0  0  0  0  0  0  0
    8.8240   14.8914    9.6680 C   0  0  2  0  0  0  0  0  0  0  0  0
    8.9210   16.3258    9.9194 N   0  0  0  0  0  0  0  0  0  0  0  0
   11.1533    7.8017    6.6822 C   0  0  0  0  0  0  0  0  0  0  0  0
   12.1459    6.7100    6.1676 N   0  0  0  0  0  0  0  0  0  0  0  0
   10.1092    8.2505    5.6175 C   0  0  0  0  0  0  0  0  0  0  0  0
    6.2209   10.2427   10.4587 O   0  0  0  0  0  0  0  0  0  0  0  0
   13.4650   12.7571    9.5203 C   0  0  2  0  0  0  0  0  0  0  0  0
   13.9777   11.6095    8.8631 O   0  0  0  0  0  0  0  0  0  0  0  0
    9.5161   14.5712    8.3666 C   0  0  2  0  0  0  0  0  0  0  0  0
   11.9519   12.5708    9.8320 C   0  0  2  0  0  0  0  0  0  0  0  0
   11.4134   13.7283   10.5040 O   0  0  0  0  0  0  0  0  0  0  0  0
    9.4119   13.0158    8.0590 C   0  0  2  0  0  0  0  0  0  0  0  0
   10.0958   12.7430    6.7993 O   0  0  0  0  0  0  0  0  0  0  0  0
   11.7031   11.3801   10.6790 C   0  0  0  0  0  0  0  0  0  0  0  0
   11.4102   10.3214    9.8921 N   0  0  0  0  0  0  0  0  0  0  0  0
    7.8980   12.6203    7.9557 C   0  0  1  0  0  0  0  0  0  0  0  0
    7.7730   11.2661    7.6583 O   0  0  0  0  0  0  0  0  0  0  0  0
  1  2  1  6  0  0  0
  1  5  1  0  0  0  0
  1 29  1  0  0  0  0
  3  4  1  6  0  0  0
  3  7  1  0  0  0  0
  3 34  1  0  0  0  0
  5  6  1  6  0  0  0
  5 16  1  0  0  0  0
  7 19  1  0  0  0  0
  8  4  1  0  0  0  0
  8 24  2  0  0  0  0
  9  8  1  1  0  0  0
  9 10  1  0  0  0  0
  9 13  1  0  0  0  0
 10 11  1  0  0  0  0
 11 12  1  0  0  0  0
 14 15  1  0  0  0  0
 14 35  1  0  0  0  0
 15 17  1  0  0  0  0
 16 18  1  1  0  0  0
 16 25  1  0  0  0  0
 19 20  1  6  0  0  0
 19 27  1  0  0  0  0
 21 22  1  0  0  0  0
 21 23  1  0  0  0  0
 23 17  1  0  0  0  0
 25 26  1  6  0  0  0
 25 28  1  0  0  0  0
 27  2  1  1  0  0  0
 27 30  1  0  0  0  0
 28 29  1  0  0  0  0
 28 32  1  1  0  0  0
 30 31  1  6  0  0  0
 30 34  1  0  0  0  0
 32 33  2  0  0  0  0
 34 35  1  1  0  0  0
M  END
>  <CHROM.1>
167.90778022,-141.08631545,167.64843693,-61.14619954,-176.60079517,-53.37352702
179.37385372,-163.34727149,-179.02978314,-74.13876644,30.97787513,-94.15839736
63.48027975,9.21320702,11.96056375,8.77691589,0.43021535,0.19943360,0.36718699

>  <Name>
2f4t_lig

>  <RI>
0

>  <Rbt.Current_Directory>
/home/itssahil/PROJECTS/Mol_Feturizer/New_Systems/rnas/2f4t

>  <Rbt.Executable>
rbdock ($Id: //depot/dev/client3/rdock/2013.1/src/exe/rbdock.cxx#4 $)

>  <Rbt.Library>
libRbt.so (2013.1, Build901 2013/11/27)

>  <Rbt.Parameter_File>
/export/apps/rDock/src/rDock_2013.1_src/data/scripts/dock_solv.prm

>  <Rbt.Receptor>
prm/blind_docking_40.prm

>  <SCORE>
-10.6164

>  <SCORE.INTER>
-3.84252

>  <SCORE.INTER.CONST>
1

>  <SCORE.INTER.POLAR>
-1.07703

>  <SCORE.INTER.ROT>
13

>  <SCORE.INTER.SOLV>
14.6739

>  <SCORE.INTER.VDW>
-16.1295

>  <SCORE.INTER.norm>
-0.109786

>  <SCORE.INTRA>
-7.33872

>  <SCORE.INTRA.DIHEDRAL>
-16.127

>  <SCORE.INTRA.DIHEDRAL.0>
23.8882

>  <SCORE.INTRA.POLAR>
0

>  <SCORE.INTRA.POLAR.0>
0

>  <SCORE.INTRA.REPUL>
0

>  <SCORE.INTRA.REPUL.0>
0

>  <SCORE.INTRA.SOLV>
1.7304

>  <SCORE.INTRA.SOLV.lig_0>
-97.6888

>  <SCORE.INTRA.VDW>
-0.140439

>  <SCORE.INTRA.VDW.0>
-3.9206

>  <SCORE.INTRA.norm>
-0.209678

>  <SCORE.RESTR>
0.564829

>  <SCORE.RESTR.CAVITY>
0.564829

>  <SCORE.RESTR.norm>
0.016138

>  <SCORE.SYSTEM>
0

>  <SCORE.SYSTEM.CONST>
0

>  <SCORE.SYSTEM.DIHEDRAL>
0

>  <SCORE.SYSTEM.SOLV>
0

>  <SCORE.SYSTEM.norm>
0

>  <SCORE.heavy>
35

>  <SCORE.norm>
-0.303326

>  <RMSD>
29.761

$$$$
2f4t_lig
 OpenBabel11021811433D
libRbt.so/2013.1/901 2013/11/27
 35 36  0  0  0  0  0  0  0  0999 V2000
   11.6485   14.4691    9.7942 C   0  0  2  0  0  0  0  0  0  0  0  0
   10.9748   14.4654    8.4929 O   0  0  0  0  0  0  0  0  0  0  0  0
    7.2863   12.3799    9.3309 C   0  0  2  0  0  0  0  0  0  0  0  0
    5.8652   12.0061    9.2715 N   0  0  0  0  0  0  0  0  0  0  0  0
   13.1698   14.6107    9.4856 C   0  0  2  0  0  0  0  0  0  0  0  0
   13.4221   15.7952    8.6990 N   0  0  0  0  0  0  0  0  0  0  0  0
    7.4057   13.9297    9.5705 C   0  0  0  0  0  0  0  0  0  0  0  0
    5.6554   10.3764    9.9189 C   0  0  0  0  0  0  0  0  0  0  0  0
    4.1831   10.5663    9.6280 C   0  0  1  0  0  0  0  0  0  0  0  0
    3.7849    9.5350    8.5698 C   0  0  0  0  0  0  0  0  0  0  0  0
    4.3596    9.7691    7.1627 C   0  0  0  0  0  0  0  0  0  0  0  0
    3.8140   11.0267    6.6434 N   0  0  0  0  0  0  0  0  0  0  0  0
    3.4064   10.2749   10.7603 O   0  0  0  0  0  0  0  0  0  0  0  0
    8.2021    9.3694    7.2291 C   0  0  0  0  0  0  0  0  0  0  0  0
    8.6501    9.5530    5.7872 C   0  0  0  0  0  0  0  0  0  0  0  0
   13.6890   13.3338    8.7424 C   0  0  1  0  0  0  0  0  0  0  0  0
    9.9010    8.8338    5.4607 N   0  0  0  0  0  0  0  0  0  0  0  0
   15.0702   13.4401    8.4569 O   0  0  0  0  0  0  0  0  0  0  0  0
    8.8694   14.3882    9.6322 C   0  0  2  0  0  0  0  0  0  0  0  0
    8.9539   15.8338    9.8142 N   0  0  0  0  0  0  0  0  0  0  0  0
   12.1754    8.2191    6.2858 C   0  0  0  0  0  0  0  0  0  0  0  0
   13.5909    8.6979    6.7429 N   0  0  0  0  0  0  0  0  0  0  0  0
   11.2145    9.3830    5.9017 C   0  0  0  0  0  0  0  0  0  0  0  0
    6.3144    9.6392   10.3204 O   0  0  0  0  0  0  0  0  0  0  0  0
   13.4116   12.1192    9.6343 C   0  0  2  0  0  0  0  0  0  0  0  0
   13.8709   10.9245    9.0230 O   0  0  0  0  0  0  0  0  0  0  0  0
    9.5941   14.0079    8.3653 C   0  0  2  0  0  0  0  0  0  0  0  0
   11.8886   12.0205    9.9372 C   0  0  2  0  0  0  0  0  0  0  0  0
   11.4037   13.2268   10.5626 O   0  0  0  0  0  0  0  0  0  0  0  0
    9.5044   12.4385    8.1330 C   0  0  2  0  0  0  0  0  0  0  0  0
   10.2197   12.1075    6.9050 O   0  0  0  0  0  0  0  0  0  0  0  0
   11.5728   10.8748   10.8230 C   0  0  0  0  0  0  0  0  0  0  0  0
   11.5424   11.2938   12.1072 N   0  0  0  0  0  0  0  0  0  0  0  0
    7.9951   12.0298    8.0133 C   0  0  1  0  0  0  0  0  0  0  0  0
    7.8835   10.6618    7.7807 O   0  0  0  0  0  0  0  0  0  0  0  0
  1  2  1  6  0  0  0
  1  5  1  0  0  0  0
  1 29  1  0  0  0  0
  3  4  1  6  0  0  0
  3  7  1  0  0  0  0
  3 34  1  0  0  0  0
  5  6  1  6  0  0  0
  5 16  1  0  0  0  0
  7 19  1  0  0  0  0
  8  4  1  0  0  0  0
  8 24  2  0  0  0  0
  9  8  1  1  0  0  0
  9 10  1  0  0  0  0
  9 13  1  0  0  0  0
 10 11  1  0  0  0  0
 11 12  1  0  0  0  0
 14 15  1  0  0  0  0
 14 35  1  0  0  0  0
 15 17  1  0  0  0  0
 16 18  1  1  0  0  0
 16 25  1  0  0  0  0
 19 20  1  6  0  0  0
 19 27  1  0  0  0  0
 21 22  1  0  0  0  0
 21 23  1  0  0  0  0
 23 17  1  0  0  0  0
 25 26  1  6  0  0  0
 25 28  1  0  0  0  0
 27  2  1  1  0  0  0
 27 30  1  0  0  0  0
 28 29  1  0  0  0  0
 28 32  1  1  0  0  0
 30 31  1  6  0  0  0
 30 34  1  0  0  0  0
 32 33  2  0  0  0  0
 34 35  1  1  0  0  0
M  END
>  <CHROM.1>
164.05509099,-147.71791617,116.24697188,-69.62388001,-64.14795906,131.86951757
-37.56624122,-77.14491581,179.15154596,144.16831040,33.72260327,94.12252731
-158.66733626,9.45312041,11.74347411,8.64821630,0.26450232,0.13454477,0.56900651

>  <Name>
2f4t_lig

>  <RI>
0

>  <Rbt.Current_Directory>
/home/itssahil/PROJECTS/Mol_Feturizer/New_Systems/rnas/2f4t

>  <Rbt.Executable>
rbdock ($Id: //depot/dev/client3/rdock/2013.1/src/exe/rbdock.cxx#4 $)

>  <Rbt.Library>
libRbt.so (2013.1, Build901 2013/11/27)

>  <Rbt.Parameter_File>
/export/apps/rDock/src/rDock_2013.1_src/data/scripts/dock_solv.prm

>  <Rbt.Receptor>
prm/blind_docking_80.prm

>  <SCORE>
-1.9211

>  <SCORE.INTER>
-1.4249

>  <SCORE.INTER.CONST>
1

>  <SCORE.INTER.POLAR>
0

>  <SCORE.INTER.ROT>
13

>  <SCORE.INTER.SOLV>
13.1056

>  <SCORE.INTER.VDW>
-17.5851

>  <SCORE.INTER.norm>
-0.0407115

>  <SCORE.INTRA>
-1.03216

>  <SCORE.INTRA.DIHEDRAL>
-4.78219

>  <SCORE.INTRA.DIHEDRAL.0>
23.8882

>  <SCORE.INTRA.POLAR>
0

>  <SCORE.INTRA.POLAR.0>
0

>  <SCORE.INTRA.REPUL>
0.00231494

>  <SCORE.INTRA.REPUL.0>
0

>  <SCORE.INTRA.SOLV>
4.42648

>  <SCORE.INTRA.SOLV.lig_0>
-97.6888

>  <SCORE.INTRA.VDW>
-0.865881

>  <SCORE.INTRA.VDW.0>
-3.9206

>  <SCORE.INTRA.norm>
-0.0294903

>  <SCORE.RESTR>
0.535968

>  <SCORE.RESTR.CAVITY>
0.535968

>  <SCORE.RESTR.norm>
0.0153134

>  <SCORE.SYSTEM>
0

>  <SCORE.SYSTEM.CONST>
0

>  <SCORE.SYSTEM.DIHEDRAL>
0

>  <SCORE.SYSTEM.SOLV>
0

>  <SCORE.SYSTEM.norm>
0

>  <SCORE.heavy>
35

>  <SCORE.norm>
-0.0548884

>  <RMSD>
29.771

$$$$
2f4t_lig
 OpenBabel11021811433D
libRbt.so/2013.1/901 2013/11/27
 35 36  0  0  0  0  0  0  0  0999 V2000
    5.3322   11.6013    7.6759 C   0  0  2  0  0  0  0  0  0  0  0  0
    5.4889   12.2972    8.9560 O   0  0  0  0  0  0  0  0  0  0  0  0
    9.4464   13.9753    8.5328 C   0  0  2  0  0  0  0  0  0  0  0  0
   10.6125   14.8416    8.7620 N   0  0  0  0  0  0  0  0  0  0  0  0
    3.9453   10.8932    7.7435 C   0  0  2  0  0  0  0  0  0  0  0  0
    2.8976   11.8492    8.0155 N   0  0  0  0  0  0  0  0  0  0  0  0
    8.1684   14.8688    8.3280 C   0  0  0  0  0  0  0  0  0  0  0  0
   11.7504   14.6673    7.4228 C   0  0  0  0  0  0  0  0  0  0  0  0
   12.6013   15.6816    8.1546 C   0  0  1  0  0  0  0  0  0  0  0  0
   13.5167   14.9127    9.1100 C   0  0  0  0  0  0  0  0  0  0  0  0
   14.5869   14.0327    8.4427 C   0  0  0  0  0  0  0  0  0  0  0  0
   15.2862   13.2810    9.4892 N   0  0  0  0  0  0  0  0  0  0  0  0
   13.4528   16.3566    7.2661 O   0  0  0  0  0  0  0  0  0  0  0  0
   11.1585   11.2131   10.4932 C   0  0  0  0  0  0  0  0  0  0  0  0
   10.7520    9.8944    9.8536 C   0  0  0  0  0  0  0  0  0  0  0  0
    3.9665    9.7718    8.8363 C   0  0  1  0  0  0  0  0  0  0  0  0
   11.2025    9.7538    8.4515 N   0  0  0  0  0  0  0  0  0  0  0  0
    2.7173    9.1128    8.9106 O   0  0  0  0  0  0  0  0  0  0  0  0
    6.9097   14.0220    8.0937 C   0  0  2  0  0  0  0  0  0  0  0  0
    5.7318   14.8713    7.9471 N   0  0  0  0  0  0  0  0  0  0  0  0
   12.4363    8.4776    6.6963 C   0  0  0  0  0  0  0  0  0  0  0  0
   11.8373    9.0616    5.3765 N   0  0  0  0  0  0  0  0  0  0  0  0
   11.4127    8.3988    7.8673 C   0  0  0  0  0  0  0  0  0  0  0  0
   11.7698   14.0877    6.5268 O   0  0  0  0  0  0  0  0  0  0  0  0
    5.0811    8.7825    8.4804 C   0  0  2  0  0  0  0  0  0  0  0  0
    5.1471    7.7292    9.4280 O   0  0  0  0  0  0  0  0  0  0  0  0
    6.6922   13.0722    9.2450 C   0  0  2  0  0  0  0  0  0  0  0  0
    6.4456    9.5263    8.4029 C   0  0  2  0  0  0  0  0  0  0  0  0
    6.3981   10.6004    7.4407 O   0  0  0  0  0  0  0  0  0  0  0  0
    7.9677   12.1445    9.4382 C   0  0  2  0  0  0  0  0  0  0  0  0
    7.7194   11.2372   10.5537 O   0  0  0  0  0  0  0  0  0  0  0  0
    7.5536    8.6144    8.0319 C   0  0  0  0  0  0  0  0  0  0  0  0
    8.5360    9.3211    7.4310 N   0  0  0  0  0  0  0  0  0  0  0  0
    9.2122   13.0505    9.7374 C   0  0  1  0  0  0  0  0  0  0  0  0
   10.3430   12.2643    9.9399 O   0  0  0  0  0  0  0  0  0  0  0  0
  1  2  1  1  0  0  0
  1  5  1  0  0  0  0
  1 29  1  0  0  0  0
  3  4  1  1  0  0  0
  3  7  1  0  0  0  0
  3 34  1  0  0  0  0
  5  6  1  1  0  0  0
  5 16  1  0  0  0  0
  7 19  1  0  0  0  0
  8  4  1  0  0  0  0
  8 24  2  0  0  0  0
  9  8  1  6  0  0  0
  9 10  1  0  0  0  0
  9 13  1  0  0  0  0
 10 11  1  0  0  0  0
 11 12  1  0  0  0  0
 14 15  1  0  0  0  0
 14 35  1  0  0  0  0
 15 17  1  0  0  0  0
 16 18  1  6  0  0  0
 16 25  1  0  0  0  0
 19 20  1  1  0  0  0
 19 27  1  0  0  0  0
 21 22  1  0  0  0  0
 21 23  1  0  0  0  0
 23 17  1  0  0  0  0
 25 26  1  1  0  0  0
 25 28  1  0  0  0  0
 27  2  1  6  0  0  0
 27 30  1  0  0  0  0
 28 29  1  0  0  0  0
 28 32  1  6  0  0  0
 30 31  1  1  0  0  0
 30 34  1  0  0  0  0
 32 33  2  0  0  0  0
 34 35  1  6  0  0  0
M  END
>  <CHROM.1>
179.79083636,-114.61418514,88.96871330,67.22519162,-174.88702819,73.27155732
76.06467570,154.34314805,-76.55677372,-154.94712756,51.68656693,153.89034186
-170.38058304,8.80225450,11.82237956,8.43900697,2.72378371,-0.05239619,-3.09850052

>  <Name>
2f4t_lig

>  <RI>
0

>  <Rbt.Current_Directory>
/home/itssahil/PROJECTS/Mol_Feturizer/New_Systems/rnas/2f4t

>  <Rbt.Executable>
rbdock ($Id: //depot/dev/client3/rdock/2013.1/src/exe/rbdock.cxx#4 $)

>  <Rbt.Library>
libRbt.so (2013.1, Build901 2013/11/27)

>  <Rbt.Parameter_File>
/export/apps/rDock/src/rDock_2013.1_src/data/scripts/dock_solv.prm

>  <Rbt.Receptor>
prm/blind_docking_40.prm

>  <SCORE>
-6.23303

>  <SCORE.INTER>
-0.731294

>  <SCORE.INTER.CONST>
1

>  <SCORE.INTER.POLAR>
-0.916515

>  <SCORE.INTER.ROT>
13

>  <SCORE.INTER.SOLV>
12.5435

>  <SCORE.INTER.VDW>
-13.8803

>  <SCORE.INTER.norm>
-0.0208941

>  <SCORE.INTRA>
-6.67466

>  <SCORE.INTRA.DIHEDRAL>
-14.9562

>  <SCORE.INTRA.DIHEDRAL.0>
23.8882

>  <SCORE.INTRA.POLAR>
0

>  <SCORE.INTRA.POLAR.0>
0

>  <SCORE.INTRA.REPUL>
0

>  <SCORE.INTRA.REPUL.0>
0

>  <SCORE.INTRA.SOLV>
2.99986

>  <SCORE.INTRA.SOLV.lig_0>
-97.6888

>  <SCORE.INTRA.VDW>
-0.696496

>  <SCORE.INTRA.VDW.0>
-3.9206

>  <SCORE.INTRA.norm>
-0.190705

>  <SCORE.RESTR>
1.17292

>  <SCORE.RESTR.CAVITY>
1.17292

>  <SCORE.RESTR.norm>
0.033512

>  <SCORE.SYSTEM>
0

>  <SCORE.SYSTEM.CONST>
0

>  <SCORE.SYSTEM.DIHEDRAL>
0

>  <SCORE.SYSTEM.SOLV>
0

>  <SCORE.SYSTEM.norm>
0

>  <SCORE.heavy>
35

>  <SCORE.norm>
-0.178087

>  <RMSD>
29.778

$$$$
2f4t_lig
 OpenBabel11021811433D
libRbt.so/2013.1/901 2013/11/27
 35 36  0  0  0  0  0  0  0  0999 V2000
    5.2204   11.8592    8.8369 C   0  0  2  0  0  0  0  0  0  0  0  0
    5.8636   11.6583   10.1381 O   0  0  0  0  0  0  0  0  0  0  0  0
    9.8555   13.1732    9.4850 C   0  0  2  0  0  0  0  0  0  0  0  0
   11.1432   13.8341    9.7453 N   0  0  0  0  0  0  0  0  0  0  0  0
    4.0381   10.8447    8.7853 C   0  0  2  0  0  0  0  0  0  0  0  0
    3.1498   11.0399    9.9071 N   0  0  0  0  0  0  0  0  0  0  0  0
    8.6840   14.1422    9.8875 C   0  0  0  0  0  0  0  0  0  0  0  0
   11.3431   15.1953    8.6380 C   0  0  0  0  0  0  0  0  0  0  0  0
   12.6677   15.4260    9.3312 C   0  0  1  0  0  0  0  0  0  0  0  0
   13.7430   14.6902    8.5285 C   0  0  0  0  0  0  0  0  0  0  0  0
   15.1383   14.6411    9.1734 C   0  0  0  0  0  0  0  0  0  0  0  0
   16.0576   13.9862    8.2380 N   0  0  0  0  0  0  0  0  0  0  0  0
   13.0229   16.7835    9.2956 O   0  0  0  0  0  0  0  0  0  0  0  0
   11.9661   10.5616    9.3105 C   0  0  0  0  0  0  0  0  0  0  0  0
   11.7264   10.5831    7.8087 C   0  0  0  0  0  0  0  0  0  0  0  0
    4.5879    9.3785    8.7652 C   0  0  1  0  0  0  0  0  0  0  0  0
   12.8830   10.1071    7.0186 N   0  0  0  0  0  0  0  0  0  0  0  0
    3.5299    8.4413    8.7136 O   0  0  0  0  0  0  0  0  0  0  0  0
    7.3075   13.5058    9.6494 C   0  0  2  0  0  0  0  0  0  0  0  0
    6.2387   14.4073   10.0680 N   0  0  0  0  0  0  0  0  0  0  0  0
   12.0968   10.4805    4.6789 C   0  0  0  0  0  0  0  0  0  0  0  0
   10.6125   10.8836    4.9548 N   0  0  0  0  0  0  0  0  0  0  0  0
   12.6656    9.4499    5.6986 C   0  0  0  0  0  0  0  0  0  0  0  0
   10.7545   15.6151    7.8529 O   0  0  0  0  0  0  0  0  0  0  0  0
    5.5030    9.2310    7.5452 C   0  0  2  0  0  0  0  0  0  0  0  0
    6.0276    7.9159    7.4597 O   0  0  0  0  0  0  0  0  0  0  0  0
    7.1870   12.2106   10.4130 C   0  0  2  0  0  0  0  0  0  0  0  0
    6.6587   10.2702    7.6203 C   0  0  2  0  0  0  0  0  0  0  0  0
    6.1435   11.6152    7.7047 O   0  0  0  0  0  0  0  0  0  0  0  0
    8.3496   11.2142    9.9884 C   0  0  2  0  0  0  0  0  0  0  0  0
    8.1978    9.9733   10.7408 O   0  0  0  0  0  0  0  0  0  0  0  0
    7.5568   10.1861    6.4442 C   0  0  0  0  0  0  0  0  0  0  0  0
    8.7802    9.7718    6.8409 N   0  0  0  0  0  0  0  0  0  0  0  0
    9.7316   11.8824   10.3094 C   0  0  1  0  0  0  0  0  0  0  0  0
   10.7725   11.0211    9.9742 O   0  0  0  0  0  0  0  0  0  0  0  0
  1  2  1  1  0  0  0
  1  5  1  0  0  0  0
  1 29  1  0  0  0  0
  3  4  1  1  0  0  0
  3  7  1  0  0  0  0
  3 34  1  0  0  0  0
  5  6  1  1  0  0  0
  5 16  1  0  0  0  0
  7 19  1  0  0  0  0
  8  4  1  0  0  0  0
  8 24  2  0  0  0  0
  9  8  1  6  0  0  0
  9 10  1  0  0  0  0
  9 13  1  0  0  0  0
 10 11  1  0  0  0  0
 11 12  1  0  0  0  0
 14 15  1  0  0  0  0
 14 35  1  0  0  0  0
 15 17  1  0  0  0  0
 16 18  1  6  0  0  0
 16 25  1  0  0  0  0
 19 20  1  1  0  0  0
 19 27  1  0  0  0  0
 21 22  1  0  0  0  0
 21 23  1  0  0  0  0
 23 17  1  0  0  0  0
 25 26  1  1  0  0  0
 25 28  1  0  0  0  0
 27  2  1  6  0  0  0
 27 30  1  0  0  0  0
 28 29  1  0  0  0  0
 28 32  1  6  0  0  0
 30 31  1  1  0  0  0
 30 34  1  0  0  0  0
 32 33  2  0  0  0  0
 34 35  1  6  0  0  0
M  END
>  <CHROM.1>
165.60304628,-67.50016132,93.56531641,-172.03427808,-176.19821102,-179.03321178
-58.39453258,150.57080299,-71.79963044,66.85853574,32.88857309,-114.11430604
1.38050749,9.11869913,11.87035171,8.56288643,2.80237517,-0.27001633,-2.58564587

>  <Name>
2f4t_lig

>  <RI>
0

>  <Rbt.Current_Directory>
/home/itssahil/PROJECTS/Mol_Feturizer/New_Systems/rnas/2f4t

>  <Rbt.Executable>
rbdock ($Id: //depot/dev/client3/rdock/2013.1/src/exe/rbdock.cxx#4 $)

>  <Rbt.Library>
libRbt.so (2013.1, Build901 2013/11/27)

>  <Rbt.Parameter_File>
/export/apps/rDock/src/rDock_2013.1_src/data/scripts/dock_solv.prm

>  <Rbt.Receptor>
prm/blind_docking_80.prm

>  <SCORE>
2.69752

>  <SCORE.INTER>
2.0926

>  <SCORE.INTER.CONST>
1

>  <SCORE.INTER.POLAR>
0

>  <SCORE.INTER.ROT>
13

>  <SCORE.INTER.SOLV>
9.07122

>  <SCORE.INTER.VDW>
-13.8953

>  <SCORE.INTER.norm>
0.0597886

>  <SCORE.INTRA>
-2.42988

>  <SCORE.INTRA.DIHEDRAL>
-8.61914

>  <SCORE.INTRA.DIHEDRAL.0>
23.8882

>  <SCORE.INTRA.POLAR>
0

>  <SCORE.INTRA.POLAR.0>
0

>  <SCORE.INTRA.REPUL>
0

>  <SCORE.INTRA.REPUL.0>
0

>  <SCORE.INTRA.SOLV>
4.35857

>  <SCORE.INTRA.SOLV.lig_0>
-97.6888

>  <SCORE.INTRA.VDW>
-0.299595

>  <SCORE.INTRA.VDW.0>
-3.9206

>  <SCORE.INTRA.norm>
-0.0694252

>  <SCORE.RESTR>
3.0348

>  <SCORE.RESTR.CAVITY>
3.0348

>  <SCORE.RESTR.norm>
0.0867085

>  <SCORE.SYSTEM>
0

>  <SCORE.SYSTEM.CONST>
0

>  <SCORE.SYSTEM.DIHEDRAL>
0

>  <SCORE.SYSTEM.SOLV>
0

>  <SCORE.SYSTEM.norm>
0

>  <SCORE.heavy>
35

>  <SCORE.norm>
0.0770719

>  <RMSD>
29.785

$$$$
2f4t_lig
 OpenBabel11021811433D
libRbt.so/2013.1/901 2013/11/27
 35 36  0  0  0  0  0  0  0  0999 V2000
    5.0138   11.9715    8.3862 C   0  0  2  0  0  0  0  0  0  0  0  0
    6.3960   11.6530    8.0181 O   0  0  0  0  0  0  0  0  0  0  0  0
   10.3841   13.1406    8.7523 C   0  0  2  0  0  0  0  0  0  0  0  0
   11.4865   13.8970    9.3649 N   0  0  0  0  0  0  0  0  0  0  0  0
    4.7092   11.1319    9.6636 C   0  0  2  0  0  0  0  0  0  0  0  0
    5.6675   11.4217   10.7044 N   0  0  0  0  0  0  0  0  0  0  0  0
    9.2105   14.1267    8.4006 C   0  0  0  0  0  0  0  0  0  0  0  0
   12.0786   15.1073    8.2232 C   0  0  0  0  0  0  0  0  0  0  0  0
   13.0566   15.4975    9.3092 C   0  0  1  0  0  0  0  0  0  0  0  0
   14.2127   14.4955    9.2710 C   0  0  0  0  0  0  0  0  0  0  0  0
   15.0272   14.4682    7.9668 C   0  0  0  0  0  0  0  0  0  0  0  0
   15.9864   13.3622    8.0433 N   0  0  0  0  0  0  0  0  0  0  0  0
   13.6266   16.7524    9.0439 O   0  0  0  0  0  0  0  0  0  0  0  0
   11.8652   10.1562    9.8770 C   0  0  0  0  0  0  0  0  0  0  0  0
   12.5985   10.3930    8.5657 C   0  0  0  0  0  0  0  0  0  0  0  0
    4.7151    9.6046    9.3176 C   0  0  1  0  0  0  0  0  0  0  0  0
   11.8840    9.8615    7.3844 N   0  0  0  0  0  0  0  0  0  0  0  0
    4.4358    8.8243   10.4636 O   0  0  0  0  0  0  0  0  0  0  0  0
    8.0197   13.3956    7.7652 C   0  0  2  0  0  0  0  0  0  0  0  0
    6.9289   14.3241    7.4855 N   0  0  0  0  0  0  0  0  0  0  0  0
   10.6777    8.1390    6.0393 C   0  0  0  0  0  0  0  0  0  0  0  0
    9.3322    8.9319    5.9847 N   0  0  0  0  0  0  0  0  0  0  0  0
   11.5174    8.4182    7.3208 C   0  0  0  0  0  0  0  0  0  0  0  0
   11.8190   15.3873    7.2265 O   0  0  0  0  0  0  0  0  0  0  0  0
    3.6672    9.3606    8.2267 C   0  0  2  0  0  0  0  0  0  0  0  0
    3.6116    7.9879    7.8737 O   0  0  0  0  0  0  0  0  0  0  0  0
    7.5185   12.3087    8.6831 C   0  0  2  0  0  0  0  0  0  0  0  0
    3.9914   10.2278    6.9762 C   0  0  2  0  0  0  0  0  0  0  0  0
    4.0490   11.6288    7.3160 O   0  0  0  0  0  0  0  0  0  0  0  0
    8.6915   11.2905    9.0180 C   0  0  2  0  0  0  0  0  0  0  0  0
    8.1696   10.2524    9.9007 O   0  0  0  0  0  0  0  0  0  0  0  0
    2.9867   10.0479    5.9014 C   0  0  0  0  0  0  0  0  0  0  0  0
    3.5731   10.2435    4.6999 N   0  0  0  0  0  0  0  0  0  0  0  0
    9.8550   12.0719    9.7214 C   0  0  1  0  0  0  0  0  0  0  0  0
   10.8885   11.2006   10.0538 O   0  0  0  0  0  0  0  0  0  0  0  0
  1  2  1  6  0  0  0
  1  5  1  0  0  0  0
  1 29  1  0  0  0  0
  3  4  1  1  0  0  0
  3  7  1  0  0  0  0
  3 34  1  0  0  0  0
  5  6  1  1  0  0  0
  5 16  1  0  0  0  0
  7 19  1  0  0  0  0
  8  4  1  0  0  0  0
  8 24  2  0  0  0  0
  9  8  1  6  0  0  0
  9 10  1  0  0  0  0
  9 13  1  0  0  0  0
 10 11  1  0  0  0  0
 11 12  1  0  0  0  0
 14 15  1  0  0  0  0
 14 35  1  0  0  0  0
 15 17  1  0  0  0  0
 16 18  1  1  0  0  0
 16 25  1  0  0  0  0
 19 20  1  1  0  0  0
 19 27  1  0  0  0  0
 21 22  1  0  0  0  0
 21 23  1  0  0  0  0
 23 17  1  0  0  0  0
 25 26  1  6  0  0  0
 25 28  1  0  0  0  0
 27  2  1  6  0  0  0
 27 30  1  0  0  0  0
 28 29  1  0  0  0  0
 28 32  1  6  0  0  0
 30 31  1  1  0  0  0
 30 34  1  0  0  0  0
 32 33  2  0  0  0  0
 34 35  1  6  0  0  0
M  END
>  <CHROM.1>
-81.56018473,-60.76500698,80.43942473,62.14728066,-173.75952776,-83.60604940
46.84777286,-56.95225110,-61.14585719,175.41657277,-100.89816922,-150.51482916
-71.29773094,8.79391611,11.73217433,8.32294614,2.72644253,0.01533661,-3.00476026

>  <Name>
2f4t_lig

>  <RI>
0

>  <Rbt.Current_Directory>
/home/itssahil/PROJECTS/Mol_Feturizer/New_Systems/rnas/2f4t

>  <Rbt.Executable>
rbdock ($Id: //depot/dev/client3/rdock/2013.1/src/exe/rbdock.cxx#4 $)

>  <Rbt.Library>
libRbt.so (2013.1, Build901 2013/11/27)

>  <Rbt.Parameter_File>
/export/apps/rDock/src/rDock_2013.1_src/data/scripts/dock_solv.prm

>  <Rbt.Receptor>
prm/blind_docking_80.prm

>  <SCORE>
5.82526

>  <SCORE.INTER>
5.34537

>  <SCORE.INTER.CONST>
1

>  <SCORE.INTER.POLAR>
0

>  <SCORE.INTER.ROT>
13

>  <SCORE.INTER.SOLV>
13.3148

>  <SCORE.INTER.VDW>
-13.1414

>  <SCORE.INTER.norm>
0.152725

>  <SCORE.INTRA>
-2.41394

>  <SCORE.INTRA.DIHEDRAL>
-10.1695

>  <SCORE.INTRA.DIHEDRAL.0>
23.8882

>  <SCORE.INTRA.POLAR>
0

>  <SCORE.INTRA.POLAR.0>
0

>  <SCORE.INTRA.REPUL>
0

>  <SCORE.INTRA.REPUL.0>
0

>  <SCORE.INTRA.SOLV>
4.99165

>  <SCORE.INTRA.SOLV.lig_0>
-97.6888

>  <SCORE.INTRA.VDW>
0.174985

>  <SCORE.INTRA.VDW.0>
-3.9206

>  <SCORE.INTRA.norm>
-0.0689698

>  <SCORE.RESTR>
2.89383

>  <SCORE.RESTR.CAVITY>
2.89383

>  <SCORE.RESTR.norm>
0.0826808

>  <SCORE.SYSTEM>
0

>  <SCORE.SYSTEM.CONST>
0

>  <SCORE.SYSTEM.DIHEDRAL>
0

>  <SCORE.SYSTEM.SOLV>
0

>  <SCORE.SYSTEM.norm>
0

>  <SCORE.heavy>
35

>  <SCORE.norm>
0.166436

>  <RMSD>
29.788

$$$$
2f4t_lig
 OpenBabel11021811433D
libRbt.so/2013.1/901 2013/11/27
 35 36  0  0  0  0  0  0  0  0999 V2000
   10.9176   15.0695   10.4001 C   0  0  2  0  0  0  0  0  0  0  0  0
   10.0614   15.2266    9.2213 O   0  0  0  0  0  0  0  0  0  0  0  0
    8.1565   11.3684    8.8431 C   0  0  2  0  0  0  0  0  0  0  0  0
    7.1175   10.3582    8.5929 N   0  0  0  0  0  0  0  0  0  0  0  0
   12.2906   15.6993   10.0159 C   0  0  2  0  0  0  0  0  0  0  0  0
   12.1232   17.0721    9.6001 N   0  0  0  0  0  0  0  0  0  0  0  0
    7.6046   12.4419    9.8513 C   0  0  0  0  0  0  0  0  0  0  0  0
    5.6576   11.1488    7.9910 C   0  0  0  0  0  0  0  0  0  0  0  0
    5.0608    9.7602    7.9280 C   0  0  1  0  0  0  0  0  0  0  0  0
    3.9822    9.6718    9.0100 C   0  0  0  0  0  0  0  0  0  0  0  0
    3.3457    8.2853    9.2037 C   0  0  0  0  0  0  0  0  0  0  0  0
    2.4190    8.3559   10.3375 N   0  0  0  0  0  0  0  0  0  0  0  0
    4.3990    9.5535    6.7076 O   0  0  0  0  0  0  0  0  0  0  0  0
    9.4060   10.5794    5.3553 C   0  0  0  0  0  0  0  0  0  0  0  0
   10.2280    9.3229    5.5979 C   0  0  0  0  0  0  0  0  0  0  0  0
   12.9699   14.8584    8.8827 C   0  0  1  0  0  0  0  0  0  0  0  0
   10.1389    8.8169    6.9852 N   0  0  0  0  0  0  0  0  0  0  0  0
   14.2209   15.4110    8.5223 O   0  0  0  0  0  0  0  0  0  0  0  0
    8.6408   13.5351   10.1475 C   0  0  2  0  0  0  0  0  0  0  0  0
    8.0920   14.5401   11.0524 N   0  0  0  0  0  0  0  0  0  0  0  0
   11.0818    6.5075    6.8887 C   0  0  0  0  0  0  0  0  0  0  0  0
   11.5791    6.4376    5.4089 N   0  0  0  0  0  0  0  0  0  0  0  0
   11.2039    7.9241    7.5240 C   0  0  0  0  0  0  0  0  0  0  0  0
    5.3833   12.1596    7.7856 O   0  0  0  0  0  0  0  0  0  0  0  0
   13.1376   13.4230    9.3918 C   0  0  2  0  0  0  0  0  0  0  0  0
   13.7615   12.6068    8.4139 O   0  0  0  0  0  0  0  0  0  0  0  0
    9.0763   14.2078    8.8697 C   0  0  2  0  0  0  0  0  0  0  0  0
   11.7517   12.8339    9.7836 C   0  0  2  0  0  0  0  0  0  0  0  0
   11.1030   13.6502   10.7807 O   0  0  0  0  0  0  0  0  0  0  0  0
    9.6642   13.1331    7.8576 C   0  0  2  0  0  0  0  0  0  0  0  0
   10.0796   13.8192    6.6387 O   0  0  0  0  0  0  0  0  0  0  0  0
   11.8654   11.4533   10.3108 C   0  0  0  0  0  0  0  0  0  0  0  0
   11.1273   11.3393   11.4368 N   0  0  0  0  0  0  0  0  0  0  0  0
    8.5505   12.0765    7.5375 C   0  0  1  0  0  0  0  0  0  0  0  0
    9.0265   11.1349    6.6295 O   0  0  0  0  0  0  0  0  0  0  0  0
  1  2  1  6  0  0  0
  1  5  1  0  0  0  0
  1 29  1  0  0  0  0
  3  4  1  6  0  0  0
  3  7  1  0  0  0  0
  3 34  1  0  0  0  0
  5  6  1  6  0  0  0
  5 16  1  0  0  0  0
  7 19  1  0  0  0  0
  8  4  1  0  0  0  0
  8 24  2  0  0  0  0
  9  8  1  6  0  0  0
  9 10  1  0  0  0  0
  9 13  1  0  0  0  0
 10 11  1  0  0  0  0
 11 12  1  0  0  0  0
 14 15  1  0  0  0  0
 14 35  1  0  0  0  0
 15 17  1  0  0  0  0
 16 18  1  1  0  0  0
 16 25  1  0  0  0  0
 19 20  1  1  0  0  0
 19 27  1  0  0  0  0
 21 22  1  0  0  0  0
 21 23  1  0  0  0  0
 23 17  1  0  0  0  0
 25 26  1  6  0  0  0
 25 28  1  0  0  0  0
 27  2  1  1  0  0  0
 27 30  1  0  0  0  0
 28 29  1  0  0  0  0
 28 32  1  1  0  0  0
 30 31  1  6  0  0  0
 30 34  1  0  0  0  0
 32 33  2  0  0  0  0
 34 35  1  6  0  0  0
M  END
>  <CHROM.1>
145.04192633,56.76681519,110.75906290,-174.19564502,175.65576155,14.45850721
165.78134095,-158.55831252,74.82193987,-73.01626233,29.01414142,133.66505102
161.86577396,9.30025732,11.82949991,8.52945984,0.66217381,0.18074839,0.46756276

>  <Name>
2f4t_lig

>  <RI>
0

>  <Rbt.Current_Directory>
/home/itssahil/PROJECTS/Mol_Feturizer/New_Systems/rnas/2f4t

>  <Rbt.Executable>
rbdock ($Id: //depot/dev/client3/rdock/2013.1/src/exe/rbdock.cxx#4 $)

>  <Rbt.Library>
libRbt.so (2013.1, Build901 2013/11/27)

>  <Rbt.Parameter_File>
/export/apps/rDock/src/rDock_2013.1_src/data/scripts/dock_solv.prm

>  <Rbt.Receptor>
prm/blind_docking_40.prm

>  <SCORE>
3.45134

>  <SCORE.INTER>
-1.59852

>  <SCORE.INTER.CONST>
1

>  <SCORE.INTER.POLAR>
-1.07703

>  <SCORE.INTER.ROT>
13

>  <SCORE.INTER.SOLV>
18.3728

>  <SCORE.INTER.VDW>
-15.8665

>  <SCORE.INTER.norm>
-0.0456721

>  <SCORE.INTRA>
4.02087

>  <SCORE.INTRA.DIHEDRAL>
-3.6492

>  <SCORE.INTRA.DIHEDRAL.0>
23.8882

>  <SCORE.INTRA.POLAR>
0

>  <SCORE.INTRA.POLAR.0>
0

>  <SCORE.INTRA.REPUL>
0

>  <SCORE.INTRA.REPUL.0>
0

>  <SCORE.INTRA.SOLV>
4.44929

>  <SCORE.INTRA.SOLV.lig_0>
-97.6888

>  <SCORE.INTRA.VDW>
3.62083

>  <SCORE.INTRA.VDW.0>
-3.9206

>  <SCORE.INTRA.norm>
0.114882

>  <SCORE.RESTR>
1.02899

>  <SCORE.RESTR.CAVITY>
1.02899

>  <SCORE.RESTR.norm>
0.0293998

>  <SCORE.SYSTEM>
0

>  <SCORE.SYSTEM.CONST>
0

>  <SCORE.SYSTEM.DIHEDRAL>
0

>  <SCORE.SYSTEM.SOLV>
0

>  <SCORE.SYSTEM.norm>
0

>  <SCORE.heavy>
35

>  <SCORE.norm>
0.0986098

>  <RMSD>
29.791

$$$$
2f4t_lig
 OpenBabel11021811433D
libRbt.so/2013.1/901 2013/11/27
 35 36  0  0  0  0  0  0  0  0999 V2000
   12.0336   15.3831   10.0279 C   0  0  2  0  0  0  0  0  0  0  0  0
   11.0760   15.1738    8.9387 O   0  0  0  0  0  0  0  0  0  0  0  0
    8.7159   12.0196    7.1671 C   0  0  2  0  0  0  0  0  0  0  0  0
    8.3009   10.6726    6.7476 N   0  0  0  0  0  0  0  0  0  0  0  0
   13.4465   15.2933    9.3757 C   0  0  2  0  0  0  0  0  0  0  0  0
   13.5733   16.2494    8.3008 N   0  0  0  0  0  0  0  0  0  0  0  0
   10.1954   12.2762    6.6992 C   0  0  0  0  0  0  0  0  0  0  0  0
    9.5989    9.5232    7.0833 C   0  0  0  0  0  0  0  0  0  0  0  0
    8.6710    8.4730    6.5137 C   0  0  1  0  0  0  0  0  0  0  0  0
    9.5379    7.4103    5.8348 C   0  0  0  0  0  0  0  0  0  0  0  0
   10.7461    6.9173    6.6488 C   0  0  0  0  0  0  0  0  0  0  0  0
   11.4456    5.8946    5.8653 N   0  0  0  0  0  0  0  0  0  0  0  0
    7.9780    7.8077    7.5370 O   0  0  0  0  0  0  0  0  0  0  0  0
    5.9857   12.2064    9.4818 C   0  0  0  0  0  0  0  0  0  0  0  0
    5.1703   10.9272    9.3705 C   0  0  0  0  0  0  0  0  0  0  0  0
   13.7071   13.8396    8.8549 C   0  0  1  0  0  0  0  0  0  0  0  0
    5.7690    9.7803   10.0880 N   0  0  0  0  0  0  0  0  0  0  0  0
   14.9873   13.7354    8.2629 O   0  0  0  0  0  0  0  0  0  0  0  0
   10.6948   13.6663    7.1168 C   0  0  2  0  0  0  0  0  0  0  0  0
   12.0816   13.8650    6.7075 N   0  0  0  0  0  0  0  0  0  0  0  0
    4.7345    8.0666    8.5964 C   0  0  0  0  0  0  0  0  0  0  0  0
    4.9947    6.9743    7.5097 N   0  0  0  0  0  0  0  0  0  0  0  0
    6.0153    8.4973    9.3706 C   0  0  0  0  0  0  0  0  0  0  0  0
   10.5775    9.5995    7.5025 O   0  0  0  0  0  0  0  0  0  0  0  0
   13.5788   12.8795   10.0420 C   0  0  2  0  0  0  0  0  0  0  0  0
   13.8166   11.5402    9.6402 O   0  0  0  0  0  0  0  0  0  0  0  0
   10.5935   13.8349    8.6122 C   0  0  2  0  0  0  0  0  0  0  0  0
   12.1653   13.0099   10.6793 C   0  0  2  0  0  0  0  0  0  0  0  0
   11.9068   14.3664   11.0973 O   0  0  0  0  0  0  0  0  0  0  0  0
    9.0947   13.6078    9.0887 C   0  0  2  0  0  0  0  0  0  0  0  0
    9.0340   13.7844   10.5359 O   0  0  0  0  0  0  0  0  0  0  0  0
   12.0022   12.1195   11.8529 C   0  0  0  0  0  0  0  0  0  0  0  0
   11.3155   11.0146   11.4876 N   0  0  0  0  0  0  0  0  0  0  0  0
    8.6532   12.1551    8.6965 C   0  0  1  0  0  0  0  0  0  0  0  0
    7.3512   11.9147    9.1262 O   0  0  0  0  0  0  0  0  0  0  0  0
  1  2  1  6  0  0  0
  1  5  1  0  0  0  0
  1 29  1  0  0  0  0
  3  4  1  1  0  0  0
  3  7  1  0  0  0  0
  3 34  1  0  0  0  0
  5  6  1  6  0  0  0
  5 16  1  0  0  0  0
  7 19  1  0  0  0  0
  8  4  1  0  0  0  0
  8 24  2  0  0  0  0
  9  8  1  1  0  0  0
  9 10  1  0  0  0  0
  9 13  1  0  0  0  0
 10 11  1  0  0  0  0
 11 12  1  0  0  0  0
 14 15  1  0  0  0  0
 14 35  1  0  0  0  0
 15 17  1  0  0  0  0
 16 18  1  1  0  0  0
 16 25  1  0  0  0  0
 19 20  1  1  0  0  0
 19 27  1  0  0  0  0
 21 22  1  0  0  0  0
 21 23  1  0  0  0  0
 23 17  1  0  0  0  0
 25 26  1  6  0  0  0
 25 28  1  0  0  0  0
 27  2  1  6  0  0  0
 27 30  1  0  0  0  0
 28 29  1  0  0  0  0
 28 32  1  1  0  0  0
 30 31  1  1  0  0  0
 30 34  1  0  0  0  0
 32 33  2  0  0  0  0
 34 35  1  6  0  0  0
M  END
>  <CHROM.1>
90.90327409,44.08105887,147.86676018,46.72010778,179.02901791,50.84193201
157.73720435,-126.36140320,163.87493644,-49.30694168,-132.62250803,-100.40251163
-89.32880453,9.98849975,11.55101010,8.59648707,0.79045981,0.22610239,0.47611112

>  <Name>
2f4t_lig

>  <RI>
0

>  <Rbt.Current_Directory>
/home/itssahil/PROJECTS/Mol_Feturizer/New_Systems/rnas/2f4t

>  <Rbt.Executable>
rbdock ($Id: //depot/dev/client3/rdock/2013.1/src/exe/rbdock.cxx#4 $)

>  <Rbt.Library>
libRbt.so (2013.1, Build901 2013/11/27)

>  <Rbt.Parameter_File>
/export/apps/rDock/src/rDock_2013.1_src/data/scripts/dock_solv.prm

>  <Rbt.Receptor>
prm/blind_docking_100.prm

>  <SCORE>
15.7447

>  <SCORE.INTER>
6.00902

>  <SCORE.INTER.CONST>
1

>  <SCORE.INTER.POLAR>
-1.12784

>  <SCORE.INTER.ROT>
13

>  <SCORE.INTER.SOLV>
20.1164

>  <SCORE.INTER.VDW>
-11.2067

>  <SCORE.INTER.norm>
0.171686

>  <SCORE.INTRA>
6.67092

>  <SCORE.INTRA.DIHEDRAL>
-2.00562

>  <SCORE.INTRA.DIHEDRAL.0>
23.8882

>  <SCORE.INTRA.POLAR>
0

>  <SCORE.INTRA.POLAR.0>
0

>  <SCORE.INTRA.REPUL>
0.00470589

>  <SCORE.INTRA.REPUL.0>
0

>  <SCORE.INTRA.SOLV>
8.56406

>  <SCORE.INTRA.SOLV.lig_0>
-97.6888

>  <SCORE.INTRA.VDW>
3.36817

>  <SCORE.INTRA.VDW.0>
-3.9206

>  <SCORE.INTRA.norm>
0.190598

>  <SCORE.RESTR>
3.06481

>  <SCORE.RESTR.CAVITY>
3.06481

>  <SCORE.RESTR.norm>
0.0875661

>  <SCORE.SYSTEM>
0

>  <SCORE.SYSTEM.CONST>
0

>  <SCORE.SYSTEM.DIHEDRAL>
0

>  <SCORE.SYSTEM.SOLV>
0

>  <SCORE.SYSTEM.norm>
0

>  <SCORE.heavy>
35

>  <SCORE.norm>
0.44985

>  <RMSD>
29.794

$$$$
2f4t_lig
 OpenBabel11021811433D
libRbt.so/2013.1/901 2013/11/27
 35 36  0  0  0  0  0  0  0  0999 V2000
   11.8119   14.8953    9.7791 C   0  0  2  0  0  0  0  0  0  0  0  0
   11.1554   14.9126    8.4691 O   0  0  0  0  0  0  0  0  0  0  0  0
    7.8474   12.1811    8.9723 C   0  0  2  0  0  0  0  0  0  0  0  0
    6.4978   11.6083    8.8575 N   0  0  0  0  0  0  0  0  0  0  0  0
   13.3361   15.0524    9.4934 C   0  0  2  0  0  0  0  0  0  0  0  0
   13.5910   16.2535    8.7332 N   0  0  0  0  0  0  0  0  0  0  0  0
    7.7383   13.6735    9.4566 C   0  0  0  0  0  0  0  0  0  0  0  0
    6.0682   10.8011   10.3684 C   0  0  0  0  0  0  0  0  0  0  0  0
    4.7511   10.4798    9.6974 C   0  0  1  0  0  0  0  0  0  0  0  0
    4.8726    9.0815    9.0877 C   0  0  0  0  0  0  0  0  0  0  0  0
    5.6934    8.9899    7.7903 C   0  0  0  0  0  0  0  0  0  0  0  0
    4.9235    9.6148    6.7106 N   0  0  0  0  0  0  0  0  0  0  0  0
    3.7142   10.3994   10.6400 O   0  0  0  0  0  0  0  0  0  0  0  0
    9.0046    9.7459    6.2971 C   0  0  0  0  0  0  0  0  0  0  0  0
   10.4631    9.8938    5.8917 C   0  0  0  0  0  0  0  0  0  0  0  0
   13.8733   13.7934    8.7327 C   0  0  1  0  0  0  0  0  0  0  0  0
   11.0708    8.6372    5.4016 N   0  0  0  0  0  0  0  0  0  0  0  0
   15.2574   13.9138    8.4676 O   0  0  0  0  0  0  0  0  0  0  0  0
    9.1172   14.3351    9.5870 C   0  0  2  0  0  0  0  0  0  0  0  0
    8.9878   15.7296    9.9979 N   0  0  0  0  0  0  0  0  0  0  0  0
   11.5746    7.4969    7.5643 C   0  0  0  0  0  0  0  0  0  0  0  0
   11.3525    8.6592    8.5849 N   0  0  0  0  0  0  0  0  0  0  0  0
   12.1421    7.9680    6.1927 C   0  0  0  0  0  0  0  0  0  0  0  0
    6.5625   10.6452   11.3014 O   0  0  0  0  0  0  0  0  0  0  0  0
   13.5921   12.5600    9.5972 C   0  0  2  0  0  0  0  0  0  0  0  0
   14.0673   11.3803    8.9692 O   0  0  0  0  0  0  0  0  0  0  0  0
    9.8564   14.2750    8.2736 C   0  0  2  0  0  0  0  0  0  0  0  0
   12.0660   12.4459    9.8780 C   0  0  2  0  0  0  0  0  0  0  0  0
   11.5652   13.6369   10.5201 O   0  0  0  0  0  0  0  0  0  0  0  0
    9.9980   12.7670    7.7933 C   0  0  2  0  0  0  0  0  0  0  0  0
   10.7215   12.7474    6.5263 O   0  0  0  0  0  0  0  0  0  0  0  0
   11.7461   11.2814   10.7373 C   0  0  0  0  0  0  0  0  0  0  0  0
   11.8704   11.6327   12.0361 N   0  0  0  0  0  0  0  0  0  0  0  0
    8.5649   12.1560    7.6137 C   0  0  1  0  0  0  0  0  0  0  0  0
    8.6544   10.8412    7.1654 O   0  0  0  0  0  0  0  0  0  0  0  0
  1  2  1  6  0  0  0
  1  5  1  0  0  0  0
  1 29  1  0  0  0  0
  3  4  1  6  0  0  0
  3  7  1  0  0  0  0
  3 34  1  0  0  0  0
  5  6  1  6  0  0  0
  5 16  1  0  0  0  0
  7 19  1  0  0  0  0
  8  4  1  0  0  0  0
  8 24  2  0  0  0  0
  9  8  1  1  0  0  0
  9 10  1  0  0  0  0
  9 13  1  0  0  0  0
 10 11  1  0  0  0  0
 11 12  1  0  0  0  0
 14 15  1  0  0  0  0
 14 35  1  0  0  0  0
 15 17  1  0  0  0  0
 16 18  1  1  0  0  0
 16 25  1  0  0  0  0
 19 20  1  6  0  0  0
 19 27  1  0  0  0  0
 21 22  1  0  0  0  0
 21 23  1  0  0  0  0
 23 17  1  0  0  0  0
 25 26  1  6  0  0  0
 25 28  1  0  0  0  0
 27  2  1  1  0  0  0
 27 30  1  0  0  0  0
 28 29  1  0  0  0  0
 28 32  1  1  0  0  0
 30 31  1  6  0  0  0
 30 34  1  0  0  0  0
 32 33  2  0  0  0  0
 34 35  1  1  0  0  0
M  END
>  <CHROM.1>
155.14875128,-92.76991584,94.75111299,-75.96740705,-71.28493884,160.23020869
47.07336385,-112.52732181,-74.72649119,64.09017936,29.34050432,86.04317676
-178.76323692,9.84174531,11.83281558,8.71077226,0.42152223,0.20383182,0.49545543

>  <Name>
2f4t_lig

>  <RI>
0

>  <Rbt.Current_Directory>
/home/itssahil/PROJECTS/Mol_Feturizer/New_Systems/rnas/2f4t

>  <Rbt.Executable>
rbdock ($Id: //depot/dev/client3/rdock/2013.1/src/exe/rbdock.cxx#4 $)

>  <Rbt.Library>
libRbt.so (2013.1, Build901 2013/11/27)

>  <Rbt.Parameter_File>
/export/apps/rDock/src/rDock_2013.1_src/data/scripts/dock_solv.prm

>  <Rbt.Receptor>
prm/blind_docking_80.prm

>  <SCORE>
-5.28198

>  <SCORE.INTER>
-7.08822

>  <SCORE.INTER.CONST>
1

>  <SCORE.INTER.POLAR>
-0.813492

>  <SCORE.INTER.ROT>
13

>  <SCORE.INTER.SOLV>
13.1287

>  <SCORE.INTER.VDW>
-18.6567

>  <SCORE.INTER.norm>
-0.202521

>  <SCORE.INTRA>
0.998007

>  <SCORE.INTRA.DIHEDRAL>
-8.08197

>  <SCORE.INTRA.DIHEDRAL.0>
23.8882

>  <SCORE.INTRA.POLAR>
0

>  <SCORE.INTRA.POLAR.0>
0

>  <SCORE.INTRA.REPUL>
0

>  <SCORE.INTRA.REPUL.0>
0

>  <SCORE.INTRA.SOLV>
8.22766

>  <SCORE.INTRA.SOLV.lig_0>
-97.6888

>  <SCORE.INTRA.VDW>
0.925164

>  <SCORE.INTRA.VDW.0>
-3.9206

>  <SCORE.INTRA.norm>
0.0285145

>  <SCORE.RESTR>
0.808229

>  <SCORE.RESTR.CAVITY>
0.808229

>  <SCORE.RESTR.norm>
0.0230923

>  <SCORE.SYSTEM>
0

>  <SCORE.SYSTEM.CONST>
0

>  <SCORE.SYSTEM.DIHEDRAL>
0

>  <SCORE.SYSTEM.SOLV>
0

>  <SCORE.SYSTEM.norm>
0

>  <SCORE.heavy>
35

>  <SCORE.norm>
-0.150914

>  <RMSD>
29.797

$$$$
2f4t_lig
 OpenBabel11021811433D
libRbt.so/2013.1/901 2013/11/27
 35 36  0  0  0  0  0  0  0  0999 V2000
   11.4617   14.6961    9.3185 C   0  0  2  0  0  0  0  0  0  0  0  0
   11.0874   14.4681    7.9202 O   0  0  0  0  0  0  0  0  0  0  0  0
    7.5924   11.9612    8.3166 C   0  0  2  0  0  0  0  0  0  0  0  0
    6.2930   11.3429    8.0134 N   0  0  0  0  0  0  0  0  0  0  0  0
   12.9737   15.0742    9.2982 C   0  0  2  0  0  0  0  0  0  0  0  0
   13.2022   16.2156    8.4436 N   0  0  0  0  0  0  0  0  0  0  0  0
    7.4543   13.5257    8.2351 C   0  0  0  0  0  0  0  0  0  0  0  0
    5.2480   11.4373    9.4339 C   0  0  0  0  0  0  0  0  0  0  0  0
    4.2098   10.7389    8.5839 C   0  0  1  0  0  0  0  0  0  0  0  0
    2.9881   10.4790    9.4681 C   0  0  0  0  0  0  0  0  0  0  0  0
    2.8325    9.0377    9.9816 C   0  0  0  0  0  0  0  0  0  0  0  0
    4.1289    8.5877   10.4973 N   0  0  0  0  0  0  0  0  0  0  0  0
    3.7640   11.5752    7.5484 O   0  0  0  0  0  0  0  0  0  0  0  0
    9.1417    8.8305    7.8820 C   0  0  0  0  0  0  0  0  0  0  0  0
   10.4711    8.9571    8.6100 C   0  0  0  0  0  0  0  0  0  0  0  0
   13.8279   13.8502    8.8244 C   0  0  1  0  0  0  0  0  0  0  0  0
   11.5643    8.1815    7.9839 N   0  0  0  0  0  0  0  0  0  0  0  0
   15.2052   14.1711    8.8035 O   0  0  0  0  0  0  0  0  0  0  0  0
    8.7835   14.2339    8.5319 C   0  0  2  0  0  0  0  0  0  0  0  0
    8.6398   15.6812    8.4104 N   0  0  0  0  0  0  0  0  0  0  0  0
   12.7575    9.4323    6.1830 C   0  0  0  0  0  0  0  0  0  0  0  0
   11.6780    8.7375    5.2920 N   0  0  0  0  0  0  0  0  0  0  0  0
   12.8458    8.8530    7.6259 C   0  0  0  0  0  0  0  0  0  0  0  0
    5.3595   11.8264   10.4215 O   0  0  0  0  0  0  0  0  0  0  0  0
   13.5574   12.6836    9.7802 C   0  0  2  0  0  0  0  0  0  0  0  0
   14.3134   11.5407    9.4136 O   0  0  0  0  0  0  0  0  0  0  0  0
    9.8547   13.7634    7.5799 C   0  0  2  0  0  0  0  0  0  0  0  0
   12.0384   12.3468    9.7896 C   0  0  2  0  0  0  0  0  0  0  0  0
   11.2531   13.4979   10.1636 O   0  0  0  0  0  0  0  0  0  0  0  0
   10.0217   12.1864    7.6793 C   0  0  2  0  0  0  0  0  0  0  0  0
   11.0676   11.7691    6.7514 O   0  0  0  0  0  0  0  0  0  0  0  0
   11.7217   11.2407   10.7240 C   0  0  0  0  0  0  0  0  0  0  0  0
   11.7235   11.7080   11.9918 N   0  0  0  0  0  0  0  0  0  0  0  0
    8.6579   11.5082    7.3063 C   0  0  1  0  0  0  0  0  0  0  0  0
    8.7793   10.1223    7.3566 O   0  0  0  0  0  0  0  0  0  0  0  0
  1  2  1  6  0  0  0
  1  5  1  0  0  0  0
  1 29  1  0  0  0  0
  3  4  1  6  0  0  0
  3  7  1  0  0  0  0
  3 34  1  0  0  0  0
  5  6  1  6  0  0  0
  5 16  1  0  0  0  0
  7 19  1  0  0  0  0
  8  4  1  0  0  0  0
  8 24  2  0  0  0  0
  9  8  1  1  0  0  0
  9 10  1  0  0  0  0
  9 13  1  0  0  0  0
 10 11  1  0  0  0  0
 11 12  1  0  0  0  0
 14 15  1  0  0  0  0
 14 35  1  0  0  0  0
 15 17  1  0  0  0  0
 16 18  1  1  0  0  0
 16 25  1  0  0  0  0
 19 20  1  6  0  0  0
 19 27  1  0  0  0  0
 21 22  1  0  0  0  0
 21 23  1  0  0  0  0
 23 17  1  0  0  0  0
 25 26  1  6  0  0  0
 25 28  1  0  0  0  0
 27  2  1  1  0  0  0
 27 30  1  0  0  0  0
 28 29  1  0  0  0  0
 28 32  1  1  0  0  0
 30 31  1  6  0  0  0
 30 34  1  0  0  0  0
 32 33  2  0  0  0  0
 34 35  1  1  0  0  0
M  END
>  <CHROM.1>
163.78931679,-78.72684416,176.57480227,-102.35704930,46.64456406,-115.49283365
-36.07930898,126.67705391,-22.59190829,-88.88889989,40.26793001,77.11126694
-72.27599166,9.62872436,11.82985812,8.62283618,0.26668744,0.09573127,0.22319906

>  <Name>
2f4t_lig

>  <RI>
0

>  <Rbt.Current_Directory>
/home/itssahil/PROJECTS/Mol_Feturizer/New_Systems/rnas/2f4t

>  <Rbt.Executable>
rbdock ($Id: //depot/dev/client3/rdock/2013.1/src/exe/rbdock.cxx#4 $)

>  <Rbt.Library>
libRbt.so (2013.1, Build901 2013/11/27)

>  <Rbt.Parameter_File>
/export/apps/rDock/src/rDock_2013.1_src/data/scripts/dock_solv.prm

>  <Rbt.Receptor>
prm/blind_docking_80.prm

>  <SCORE>
0.718428

>  <SCORE.INTER>
-3.68134

>  <SCORE.INTER.CONST>
1

>  <SCORE.INTER.POLAR>
-0.911633

>  <SCORE.INTER.ROT>
13

>  <SCORE.INTER.SOLV>
11.7474

>  <SCORE.INTER.VDW>
-15.5979

>  <SCORE.INTER.norm>
-0.105181

>  <SCORE.INTRA>
3.59964

>  <SCORE.INTRA.DIHEDRAL>
0.817546

>  <SCORE.INTRA.DIHEDRAL.0>
23.8882

>  <SCORE.INTRA.POLAR>
0

>  <SCORE.INTRA.POLAR.0>
0

>  <SCORE.INTRA.REPUL>
0

>  <SCORE.INTRA.REPUL.0>
0

>  <SCORE.INTRA.SOLV>
7.91303

>  <SCORE.INTRA.SOLV.lig_0>
-97.6888

>  <SCORE.INTRA.VDW>
-0.765642

>  <SCORE.INTRA.VDW.0>
-3.9206

>  <SCORE.INTRA.norm>
0.102847

>  <SCORE.RESTR>
0.800129

>  <SCORE.RESTR.CAVITY>
0.800129

>  <SCORE.RESTR.norm>
0.0228608

>  <SCORE.SYSTEM>
0

>  <SCORE.SYSTEM.CONST>
0

>  <SCORE.SYSTEM.DIHEDRAL>
0

>  <SCORE.SYSTEM.SOLV>
0

>  <SCORE.SYSTEM.norm>
0

>  <SCORE.heavy>
35

>  <SCORE.norm>
0.0205265

>  <RMSD>
29.798

$$$$
2f4t_lig
 OpenBabel11021811433D
libRbt.so/2013.1/901 2013/11/27
 35 36  0  0  0  0  0  0  0  0999 V2000
   11.2440   15.0962    9.3446 C   0  0  2  0  0  0  0  0  0  0  0  0
   10.6743   14.8651    8.0145 O   0  0  0  0  0  0  0  0  0  0  0  0
    7.1804   12.4893    8.9119 C   0  0  2  0  0  0  0  0  0  0  0  0
    5.8262   11.9263    8.8030 N   0  0  0  0  0  0  0  0  0  0  0  0
   12.7412   15.4602    9.1089 C   0  0  2  0  0  0  0  0  0  0  0  0
   12.8565   16.5955    8.2238 N   0  0  0  0  0  0  0  0  0  0  0  0
    7.0949   14.0591    8.8665 C   0  0  0  0  0  0  0  0  0  0  0  0
    5.7507   10.3951    9.6796 C   0  0  0  0  0  0  0  0  0  0  0  0
    4.3010   10.3442    9.2508 C   0  0  1  0  0  0  0  0  0  0  0  0
    4.1928    9.3314    8.1087 C   0  0  0  0  0  0  0  0  0  0  0  0
    2.8047    9.2072    7.4583 C   0  0  0  0  0  0  0  0  0  0  0  0
    1.9446    8.4231    8.3495 N   0  0  0  0  0  0  0  0  0  0  0  0
    3.4895    9.8478   10.2830 O   0  0  0  0  0  0  0  0  0  0  0  0
    8.4816    9.2941    7.3252 C   0  0  0  0  0  0  0  0  0  0  0  0
    9.9882    9.2271    7.1268 C   0  0  0  0  0  0  0  0  0  0  0  0
   13.5096   14.2261    8.5266 C   0  0  1  0  0  0  0  0  0  0  0  0
   10.5125    7.8463    7.0427 N   0  0  0  0  0  0  0  0  0  0  0  0
   14.8728   14.5342    8.3096 O   0  0  0  0  0  0  0  0  0  0  0  0
    8.4813   14.7108    8.9653 C   0  0  2  0  0  0  0  0  0  0  0  0
    8.3796   16.1643    8.8801 N   0  0  0  0  0  0  0  0  0  0  0  0
   12.8041    8.6511    6.4658 C   0  0  0  0  0  0  0  0  0  0  0  0
   13.1158    8.9025    7.9763 N   0  0  0  0  0  0  0  0  0  0  0  0
   11.7233    7.5563    6.2233 C   0  0  0  0  0  0  0  0  0  0  0  0
    6.4513    9.8178   10.2409 O   0  0  0  0  0  0  0  0  0  0  0  0
   13.3669   13.0666    9.5180 C   0  0  2  0  0  0  0  0  0  0  0  0
   14.0537   11.9151    9.0552 O   0  0  0  0  0  0  0  0  0  0  0  0
    9.3768   14.2138    7.8581 C   0  0  2  0  0  0  0  0  0  0  0  0
   11.8615   12.7439    9.7436 C   0  0  2  0  0  0  0  0  0  0  0  0
   11.1467   13.9040   10.2179 O   0  0  0  0  0  0  0  0  0  0  0  0
    9.4930   12.6301    7.9167 C   0  0  2  0  0  0  0  0  0  0  0  0
   10.3694   12.1868    6.8376 O   0  0  0  0  0  0  0  0  0  0  0  0
   11.6705   11.6452   10.7199 C   0  0  0  0  0  0  0  0  0  0  0  0
   10.9954   10.6331   10.1320 N   0  0  0  0  0  0  0  0  0  0  0  0
    8.0622   12.0108    7.7480 C   0  0  1  0  0  0  0  0  0  0  0  0
    8.1336   10.6207    7.7668 O   0  0  0  0  0  0  0  0  0  0  0  0
  1  2  1  6  0  0  0
  1  5  1  0  0  0  0
  1 29  1  0  0  0  0
  3  4  1  6  0  0  0
  3  7  1  0  0  0  0
  3 34  1  0  0  0  0
  5  6  1  6  0  0  0
  5 16  1  0  0  0  0
  7 19  1  0  0  0  0
  8  4  1  0  0  0  0
  8 24  2  0  0  0  0
  9  8  1  1  0  0  0
  9 10  1  0  0  0  0
  9 13  1  0  0  0  0
 10 11  1  0  0  0  0
 11 12  1  0  0  0  0
 14 15  1  0  0  0  0
 14 35  1  0  0  0  0
 15 17  1  0  0  0  0
 16 18  1  1  0  0  0
 16 25  1  0  0  0  0
 19 20  1  6  0  0  0
 19 27  1  0  0  0  0
 21 22  1  0  0  0  0
 21 23  1  0  0  0  0
 23 17  1  0  0  0  0
 25 26  1  6  0  0  0
 25 28  1  0  0  0  0
 27  2  1  1  0  0  0
 27 30  1  0  0  0  0
 28 29  1  0  0  0  0
 28 32  1  1  0  0  0
 30 31  1  6  0  0  0
 30 34  1  0  0  0  0
 32 33  2  0  0  0  0
 34 35  1  1  0  0  0
M  END
>  <CHROM.1>
166.04410192,-149.56546168,103.85035935,-175.70196610,-76.82803731,163.92772611
54.87460965,149.65598175,51.32013644,43.51922048,38.27612374,-121.05023498
175.11913320,9.35527785,11.82805314,8.53731234,0.43005933,0.10430960,0.23148398

>  <Name>
2f4t_lig

>  <RI>
0

>  <Rbt.Current_Directory>
/home/itssahil/PROJECTS/Mol_Feturizer/New_Systems/rnas/2f4t

>  <Rbt.Executable>
rbdock ($Id: //depot/dev/client3/rdock/2013.1/src/exe/rbdock.cxx#4 $)

>  <Rbt.Library>
libRbt.so (2013.1, Build901 2013/11/27)

>  <Rbt.Parameter_File>
/export/apps/rDock/src/rDock_2013.1_src/data/scripts/dock_solv.prm

>  <Rbt.Receptor>
prm/blind_docking_40.prm

>  <SCORE>
-3.18314

>  <SCORE.INTER>
0.614839

>  <SCORE.INTER.CONST>
1

>  <SCORE.INTER.POLAR>
0

>  <SCORE.INTER.ROT>
13

>  <SCORE.INTER.SOLV>
8.78089

>  <SCORE.INTER.VDW>
-14.7837

>  <SCORE.INTER.norm>
0.0175668

>  <SCORE.INTRA>
-3.95718

>  <SCORE.INTRA.DIHEDRAL>
-13.9545

>  <SCORE.INTRA.DIHEDRAL.0>
23.8882

>  <SCORE.INTRA.POLAR>
0

>  <SCORE.INTRA.POLAR.0>
0

>  <SCORE.INTRA.REPUL>
0.0153363

>  <SCORE.INTRA.REPUL.0>
0

>  <SCORE.INTRA.SOLV>
6.64934

>  <SCORE.INTRA.SOLV.lig_0>
-97.6888

>  <SCORE.INTRA.VDW>
-0.381276

>  <SCORE.INTRA.VDW.0>
-3.9206

>  <SCORE.INTRA.norm>
-0.113062

>  <SCORE.RESTR>
0.159207

>  <SCORE.RESTR.CAVITY>
0.159207

>  <SCORE.RESTR.norm>
0.00454878

>  <SCORE.SYSTEM>
0

>  <SCORE.SYSTEM.CONST>
0

>  <SCORE.SYSTEM.DIHEDRAL>
0

>  <SCORE.SYSTEM.SOLV>
0

>  <SCORE.SYSTEM.norm>
0

>  <SCORE.heavy>
35

>  <SCORE.norm>
-0.0909468

>  <RMSD>
29.805

$$$$
2f4t_lig
 OpenBabel11021811433D
libRbt.so/2013.1/901 2013/11/27
 35 36  0  0  0  0  0  0  0  0999 V2000
   12.1615   14.3162    9.8118 C   0  0  2  0  0  0  0  0  0  0  0  0
   11.4566   14.5630    8.5510 O   0  0  0  0  0  0  0  0  0  0  0  0
    7.8080   12.2967    9.0085 C   0  0  2  0  0  0  0  0  0  0  0  0
    6.3868   11.9308    8.9140 N   0  0  0  0  0  0  0  0  0  0  0  0
   13.6518   14.0726    9.4256 C   0  0  2  0  0  0  0  0  0  0  0  0
   14.1745   15.1929    8.6791 N   0  0  0  0  0  0  0  0  0  0  0  0
    7.9319   13.7487    9.6000 C   0  0  0  0  0  0  0  0  0  0  0  0
    6.0214   10.6705   10.0958 C   0  0  0  0  0  0  0  0  0  0  0  0
    4.6046   10.7378    9.5699 C   0  0  1  0  0  0  0  0  0  0  0  0
    4.3645    9.4823    8.7285 C   0  0  0  0  0  0  0  0  0  0  0  0
    5.1321    9.4160    7.3976 C   0  0  0  0  0  0  0  0  0  0  0  0
    4.6053   10.4546    6.5072 N   0  0  0  0  0  0  0  0  0  0  0  0
    3.6760   10.6797   10.6209 O   0  0  0  0  0  0  0  0  0  0  0  0
    8.4618    9.9445    6.0998 C   0  0  0  0  0  0  0  0  0  0  0  0
    9.8526    9.9950    5.4861 C   0  0  0  0  0  0  0  0  0  0  0  0
   13.7840   12.7490    8.5992 C   0  0  1  0  0  0  0  0  0  0  0  0
   10.3372    8.6806    5.0108 N   0  0  0  0  0  0  0  0  0  0  0  0
   15.1310   12.5067    8.2424 O   0  0  0  0  0  0  0  0  0  0  0  0
    9.3955   14.1970    9.7150 C   0  0  2  0  0  0  0  0  0  0  0  0
    9.4826   15.5608   10.2274 N   0  0  0  0  0  0  0  0  0  0  0  0
   11.7410    7.9649    6.9469 C   0  0  0  0  0  0  0  0  0  0  0  0
   13.0195    8.4832    6.2130 N   0  0  0  0  0  0  0  0  0  0  0  0
   10.5798    7.5781    5.9840 C   0  0  0  0  0  0  0  0  0  0  0  0
    6.5911   10.1403   10.8262 O   0  0  0  0  0  0  0  0  0  0  0  0
   13.2337   11.6003    9.4509 C   0  0  2  0  0  0  0  0  0  0  0  0
   13.3354   10.3640    8.7631 O   0  0  0  0  0  0  0  0  0  0  0  0
   10.0734   14.1320    8.3692 C   0  0  2  0  0  0  0  0  0  0  0  0
   11.7527   11.8859    9.8334 C   0  0  2  0  0  0  0  0  0  0  0  0
   11.6302   13.1393   10.5372 O   0  0  0  0  0  0  0  0  0  0  0  0
    9.9796   12.6596    7.7791 C   0  0  2  0  0  0  0  0  0  0  0  0
   10.6493   12.6334    6.4831 O   0  0  0  0  0  0  0  0  0  0  0  0
   11.1834   10.8139   10.6841 C   0  0  0  0  0  0  0  0  0  0  0  0
   10.4538    9.9722    9.9193 N   0  0  0  0  0  0  0  0  0  0  0  0
    8.4681   12.2728    7.6211 C   0  0  1  0  0  0  0  0  0  0  0  0
    8.3517   10.9960    7.0787 O   0  0  0  0  0  0  0  0  0  0  0  0
  1  2  1  6  0  0  0
  1  5  1  0  0  0  0
  1 29  1  0  0  0  0
  3  4  1  6  0  0  0
  3  7  1  0  0  0  0
  3 34  1  0  0  0  0
  5  6  1  6  0  0  0
  5 16  1  0  0  0  0
  7 19  1  0  0  0  0
  8  4  1  0  0  0  0
  8 24  2  0  0  0  0
  9  8  1  1  0  0  0
  9 10  1  0  0  0  0
  9 13  1  0  0  0  0
 10 11  1  0  0  0  0
 11 12  1  0  0  0  0
 14 15  1  0  0  0  0
 14 35  1  0  0  0  0
 15 17  1  0  0  0  0
 16 18  1  1  0  0  0
 16 25  1  0  0  0  0
 19 20  1  6  0  0  0
 19 27  1  0  0  0  0
 21 22  1  0  0  0  0
 21 23  1  0  0  0  0
 23 17  1  0  0  0  0
 25 26  1  6  0  0  0
 25 28  1  0  0  0  0
 27  2  1  1  0  0  0
 27 30  1  0  0  0  0
 28 29  1  0  0  0  0
 28 32  1  1  0  0  0
 30 31  1  6  0  0  0
 30 34  1  0  0  0  0
 32 33  2  0  0  0  0
 34 35  1  1  0  0  0
M  END
>  <CHROM.1>
146.51584353,-110.60684900,106.57541632,-69.63432051,-67.48157973,151.59163099
45.87428890,-64.67775581,-49.74623496,-64.82760601,31.30251634,-98.94212931
175.36542825,9.70702510,11.58228300,8.46943987,0.25294062,0.16557505,0.59395755

>  <Name>
2f4t_lig

>  <RI>
0

>  <Rbt.Current_Directory>
/home/itssahil/PROJECTS/Mol_Feturizer/New_Systems/rnas/2f4t

>  <Rbt.Executable>
rbdock ($Id: //depot/dev/client3/rdock/2013.1/src/exe/rbdock.cxx#4 $)

>  <Rbt.Library>
libRbt.so (2013.1, Build901 2013/11/27)

>  <Rbt.Parameter_File>
/export/apps/rDock/src/rDock_2013.1_src/data/scripts/dock_solv.prm

>  <Rbt.Receptor>
prm/blind_docking_80.prm

>  <SCORE>
-2.33216

>  <SCORE.INTER>
-3.36433

>  <SCORE.INTER.CONST>
1

>  <SCORE.INTER.POLAR>
-0.657592

>  <SCORE.INTER.ROT>
13

>  <SCORE.INTER.SOLV>
15.8039

>  <SCORE.INTER.VDW>
-17.5856

>  <SCORE.INTER.norm>
-0.0961238

>  <SCORE.INTRA>
0.779658

>  <SCORE.INTRA.DIHEDRAL>
-7.32166

>  <SCORE.INTRA.DIHEDRAL.0>
23.8882

>  <SCORE.INTRA.POLAR>
0

>  <SCORE.INTRA.POLAR.0>
0

>  <SCORE.INTRA.REPUL>
0

>  <SCORE.INTRA.REPUL.0>
0

>  <SCORE.INTRA.SOLV>
7.47746

>  <SCORE.INTRA.SOLV.lig_0>
-97.6888

>  <SCORE.INTRA.VDW>
0.701759

>  <SCORE.INTRA.VDW.0>
-3.9206

>  <SCORE.INTRA.norm>
0.022276

>  <SCORE.RESTR>
0.252513

>  <SCORE.RESTR.CAVITY>
0.252513

>  <SCORE.RESTR.norm>
0.00721465

>  <SCORE.SYSTEM>
0

>  <SCORE.SYSTEM.CONST>
0

>  <SCORE.SYSTEM.DIHEDRAL>
0

>  <SCORE.SYSTEM.SOLV>
0

>  <SCORE.SYSTEM.norm>
0

>  <SCORE.heavy>
35

>  <SCORE.norm>
-0.0666332

>  <RMSD>
29.811

$$$$
2f4t_lig
 OpenBabel11021811433D
libRbt.so/2013.1/901 2013/11/27
 35 36  0  0  0  0  0  0  0  0999 V2000
   11.5822   14.0676    9.3380 C   0  0  2  0  0  0  0  0  0  0  0  0
   11.2807   14.0235    7.9047 O   0  0  0  0  0  0  0  0  0  0  0  0
    8.0550   11.1555    7.7413 C   0  0  2  0  0  0  0  0  0  0  0  0
    6.8351   10.4713    7.2869 N   0  0  0  0  0  0  0  0  0  0  0  0
   13.0954   14.4264    9.4439 C   0  0  2  0  0  0  0  0  0  0  0  0
   13.3751   15.6641    8.7544 N   0  0  0  0  0  0  0  0  0  0  0  0
    7.7577   12.6910    7.9070 C   0  0  0  0  0  0  0  0  0  0  0  0
    5.4977   10.8663    8.3705 C   0  0  0  0  0  0  0  0  0  0  0  0
    4.6537    9.9859    7.4756 C   0  0  1  0  0  0  0  0  0  0  0  0
    3.3605    9.6667    8.2290 C   0  0  0  0  0  0  0  0  0  0  0  0
    3.5360    8.9562    9.5816 C   0  0  0  0  0  0  0  0  0  0  0  0
    3.5225    9.9690   10.6415 N   0  0  0  0  0  0  0  0  0  0  0  0
    4.2635   10.6754    6.3170 O   0  0  0  0  0  0  0  0  0  0  0  0
    9.1845    8.2355    6.2765 C   0  0  0  0  0  0  0  0  0  0  0  0
   10.5087    7.4903    6.2094 C   0  0  0  0  0  0  0  0  0  0  0  0
   13.9663   13.2619    8.8626 C   0  0  1  0  0  0  0  0  0  0  0  0
   11.3711    7.7096    7.3913 N   0  0  0  0  0  0  0  0  0  0  0  0
   15.3446   13.5659    8.9536 O   0  0  0  0  0  0  0  0  0  0  0  0
    8.9981   13.4673    8.3709 C   0  0  2  0  0  0  0  0  0  0  0  0
    8.7085   14.8938    8.4779 N   0  0  0  0  0  0  0  0  0  0  0  0
   13.0860    8.9164    6.0369 C   0  0  0  0  0  0  0  0  0  0  0  0
   12.1496    9.2654    4.8356 N   0  0  0  0  0  0  0  0  0  0  0  0
   12.3461    8.8368    7.4050 C   0  0  0  0  0  0  0  0  0  0  0  0
    5.3962   11.4655    9.2479 O   0  0  0  0  0  0  0  0  0  0  0  0
   13.6392   11.9869    9.6469 C   0  0  2  0  0  0  0  0  0  0  0  0
   14.4068   10.8906    9.1772 O   0  0  0  0  0  0  0  0  0  0  0  0
   10.1371   13.2671    7.4026 C   0  0  2  0  0  0  0  0  0  0  0  0
   12.1198   11.6706    9.5352 C   0  0  2  0  0  0  0  0  0  0  0  0
   11.3226   12.7746   10.0119 O   0  0  0  0  0  0  0  0  0  0  0  0
   10.4639   11.7192    7.2539 C   0  0  2  0  0  0  0  0  0  0  0  0
   11.5717   11.5648    6.3168 O   0  0  0  0  0  0  0  0  0  0  0  0
   11.7481   10.4589   10.3036 C   0  0  0  0  0  0  0  0  0  0  0  0
   10.5201   10.0435    9.9226 N   0  0  0  0  0  0  0  0  0  0  0  0
    9.1880   10.9815    6.7181 C   0  0  1  0  0  0  0  0  0  0  0  0
    9.4510    9.6249    6.5499 O   0  0  0  0  0  0  0  0  0  0  0  0
  1  2  1  6  0  0  0
  1  5  1  0  0  0  0
  1 29  1  0  0  0  0
  3  4  1  6  0  0  0
  3  7  1  0  0  0  0
  3 34  1  0  0  0  0
  5  6  1  6  0  0  0
  5 16  1  0  0  0  0
  7 19  1  0  0  0  0
  8  4  1  0  0  0  0
  8 24  2  0  0  0  0
  9  8  1  1  0  0  0
  9 10  1  0  0  0  0
  9 13  1  0  0  0  0
 10 11  1  0  0  0  0
 11 12  1  0  0  0  0
 14 15  1  0  0  0  0
 14 35  1  0  0  0  0
 15 17  1  0  0  0  0
 16 18  1  1  0  0  0
 16 25  1  0  0  0  0
 19 20  1  6  0  0  0
 19 27  1  0  0  0  0
 21 22  1  0  0  0  0
 21 23  1  0  0  0  0
 23 17  1  0  0  0  0
 25 26  1  6  0  0  0
 25 28  1  0  0  0  0
 27  2  1  1  0  0  0
 27 30  1  0  0  0  0
 28 29  1  0  0  0  0
 28 32  1  1  0  0  0
 30 31  1  6  0  0  0
 30 34  1  0  0  0  0
 32 33  2  0  0  0  0
 34 35  1  1  0  0  0
M  END
>  <CHROM.1>
157.49119395,-52.90759965,164.55636491,-58.76875233,95.56941430,52.38593451
172.36919211,-89.89314803,64.72712088,-43.69363967,39.48859180,-165.24535020
54.00360565,9.79985085,11.27387534,8.09889484,0.26588966,0.08266131,0.44184388

>  <Name>
2f4t_lig

>  <RI>
0

>  <Rbt.Current_Directory>
/home/itssahil/PROJECTS/Mol_Feturizer/New_Systems/rnas/2f4t

>  <Rbt.Executable>
rbdock ($Id: //depot/dev/client3/rdock/2013.1/src/exe/rbdock.cxx#4 $)

>  <Rbt.Library>
libRbt.so (2013.1, Build901 2013/11/27)

>  <Rbt.Parameter_File>
/export/apps/rDock/src/rDock_2013.1_src/data/scripts/dock_solv.prm

>  <Rbt.Receptor>
prm/blind_docking_80.prm

>  <SCORE>
-2.031

>  <SCORE.INTER>
-3.45832

>  <SCORE.INTER.CONST>
1

>  <SCORE.INTER.POLAR>
-0.872791

>  <SCORE.INTER.ROT>
13

>  <SCORE.INTER.SOLV>
12.185

>  <SCORE.INTER.VDW>
-15.7246

>  <SCORE.INTER.norm>
-0.0988091

>  <SCORE.INTRA>
1.21697

>  <SCORE.INTRA.DIHEDRAL>
-11.7977

>  <SCORE.INTRA.DIHEDRAL.0>
23.8882

>  <SCORE.INTRA.POLAR>
0

>  <SCORE.INTRA.POLAR.0>
0

>  <SCORE.INTRA.REPUL>
0

>  <SCORE.INTRA.REPUL.0>
0

>  <SCORE.INTRA.SOLV>
11.539

>  <SCORE.INTRA.SOLV.lig_0>
-97.6888

>  <SCORE.INTRA.VDW>
1.34631

>  <SCORE.INTRA.VDW.0>
-3.9206

>  <SCORE.INTRA.norm>
0.0347707

>  <SCORE.RESTR>
0.210341

>  <SCORE.RESTR.CAVITY>
0.210341

>  <SCORE.RESTR.norm>
0.00600974

>  <SCORE.SYSTEM>
0

>  <SCORE.SYSTEM.CONST>
0

>  <SCORE.SYSTEM.DIHEDRAL>
0

>  <SCORE.SYSTEM.SOLV>
0

>  <SCORE.SYSTEM.norm>
0

>  <SCORE.heavy>
35

>  <SCORE.norm>
-0.0580287

>  <RMSD>
29.832

$$$$
2f4t_lig
 OpenBabel11021811433D
libRbt.so/2013.1/901 2013/11/27
 35 36  0  0  0  0  0  0  0  0999 V2000
    5.9441   11.6944    8.8234 C   0  0  2  0  0  0  0  0  0  0  0  0
    6.6578   11.5387   10.0937 O   0  0  0  0  0  0  0  0  0  0  0  0
   10.2366   13.8566    9.4037 C   0  0  2  0  0  0  0  0  0  0  0  0
   11.4143   14.6949    9.6739 N   0  0  0  0  0  0  0  0  0  0  0  0
    4.9325   10.5104    8.7557 C   0  0  2  0  0  0  0  0  0  0  0  0
    4.0663   10.5134    9.9112 N   0  0  0  0  0  0  0  0  0  0  0  0
    8.9700   14.5120   10.0667 C   0  0  0  0  0  0  0  0  0  0  0  0
   11.1891   16.2847    8.9386 C   0  0  0  0  0  0  0  0  0  0  0  0
   12.5488   16.6225    9.5090 C   0  0  1  0  0  0  0  0  0  0  0  0
   13.5936   16.2829    8.4436 C   0  0  0  0  0  0  0  0  0  0  0  0
   14.0443   14.8133    8.3976 C   0  0  0  0  0  0  0  0  0  0  0  0
   15.0167   14.5936    9.4724 N   0  0  0  0  0  0  0  0  0  0  0  0
   12.6681   18.0021    9.7384 O   0  0  0  0  0  0  0  0  0  0  0  0
   12.5045   11.5071    8.4000 C   0  0  0  0  0  0  0  0  0  0  0  0
   11.7736   10.7570    7.2971 C   0  0  0  0  0  0  0  0  0  0  0  0
    5.7021    9.1510    8.6463 C   0  0  1  0  0  0  0  0  0  0  0  0
   11.4304    9.3637    7.6568 N   0  0  0  0  0  0  0  0  0  0  0  0
    4.8013    8.0627    8.5787 O   0  0  0  0  0  0  0  0  0  0  0  0
    7.7036   13.6773    9.8300 C   0  0  2  0  0  0  0  0  0  0  0  0
    6.5508   14.2838   10.4883 N   0  0  0  0  0  0  0  0  0  0  0  0
   11.3592    6.9347    7.0855 C   0  0  0  0  0  0  0  0  0  0  0  0
   10.1532    6.9900    6.0933 N   0  0  0  0  0  0  0  0  0  0  0  0
   12.2212    8.2316    7.0961 C   0  0  0  0  0  0  0  0  0  0  0  0
   10.4155   16.7406    8.3618 O   0  0  0  0  0  0  0  0  0  0  0  0
    6.5838    9.2035    7.3944 C   0  0  2  0  0  0  0  0  0  0  0  0
    7.3027    7.9921    7.2280 O   0  0  0  0  0  0  0  0  0  0  0  0
    7.8905   12.2761   10.3558 C   0  0  2  0  0  0  0  0  0  0  0  0
    7.5661   10.4067    7.4876 C   0  0  2  0  0  0  0  0  0  0  0  0
    6.8518   11.6491    7.6541 O   0  0  0  0  0  0  0  0  0  0  0  0
    9.1507   11.5961    9.6669 C   0  0  2  0  0  0  0  0  0  0  0  0
    9.2966   10.2434   10.1940 O   0  0  0  0  0  0  0  0  0  0  0  0
    8.4228   10.5172    6.2831 C   0  0  0  0  0  0  0  0  0  0  0  0
    9.1134    9.3681    6.1150 N   0  0  0  0  0  0  0  0  0  0  0  0
   10.4263   12.4491    9.9903 C   0  0  1  0  0  0  0  0  0  0  0  0
   11.5543   11.8629    9.4231 O   0  0  0  0  0  0  0  0  0  0  0  0
  1  2  1  1  0  0  0
  1  5  1  0  0  0  0
  1 29  1  0  0  0  0
  3  4  1  1  0  0  0
  3  7  1  0  0  0  0
  3 34  1  0  0  0  0
  5  6  1  1  0  0  0
  5 16  1  0  0  0  0
  7 19  1  0  0  0  0
  8  4  1  0  0  0  0
  8 24  2  0  0  0  0
  9  8  1  6  0  0  0
  9 10  1  0  0  0  0
  9 13  1  0  0  0  0
 10 11  1  0  0  0  0
 11 12  1  0  0  0  0
 14 15  1  0  0  0  0
 14 35  1  0  0  0  0
 15 17  1  0  0  0  0
 16 18  1  6  0  0  0
 16 25  1  0  0  0  0
 19 20  1  1  0  0  0
 19 27  1  0  0  0  0
 21 22  1  0  0  0  0
 21 23  1  0  0  0  0
 23 17  1  0  0  0  0
 25 26  1  1  0  0  0
 25 28  1  0  0  0  0
 27  2  1  6  0  0  0
 27 30  1  0  0  0  0
 28 29  1  0  0  0  0
 28 32  1  6  0  0  0
 30 31  1  1  0  0  0
 30 34  1  0  0  0  0
 32 33  2  0  0  0  0
 34 35  1  6  0  0  0
M  END
>  <CHROM.1>
165.43353684,-62.36439499,91.47005390,-83.86853096,-79.15195819,-75.27055416
-58.86836816,-104.02381247,67.11148767,-155.47219817,41.14455373,-57.72673550
-40.05375720,9.43216111,11.90694886,8.64677944,2.28758926,-0.19800856,-2.79596379

>  <Name>
2f4t_lig

>  <RI>
0

>  <Rbt.Current_Directory>
/home/itssahil/PROJECTS/Mol_Feturizer/New_Systems/rnas/2f4t

>  <Rbt.Executable>
rbdock ($Id: //depot/dev/client3/rdock/2013.1/src/exe/rbdock.cxx#4 $)

>  <Rbt.Library>
libRbt.so (2013.1, Build901 2013/11/27)

>  <Rbt.Parameter_File>
/export/apps/rDock/src/rDock_2013.1_src/data/scripts/dock_solv.prm

>  <Rbt.Receptor>
prm/blind_docking_100.prm

>  <SCORE>
4.4504

>  <SCORE.INTER>
4.14727

>  <SCORE.INTER.CONST>
1

>  <SCORE.INTER.POLAR>
0

>  <SCORE.INTER.ROT>
13

>  <SCORE.INTER.SOLV>
11.7501

>  <SCORE.INTER.VDW>
-13.4185

>  <SCORE.INTER.norm>
0.118494

>  <SCORE.INTRA>
-1.68237

>  <SCORE.INTRA.DIHEDRAL>
-10.41

>  <SCORE.INTRA.DIHEDRAL.0>
23.8882

>  <SCORE.INTRA.POLAR>
0

>  <SCORE.INTRA.POLAR.0>
0

>  <SCORE.INTRA.REPUL>
0

>  <SCORE.INTRA.REPUL.0>
0

>  <SCORE.INTRA.SOLV>
8.56964

>  <SCORE.INTRA.SOLV.lig_0>
-97.6888

>  <SCORE.INTRA.VDW>
-0.762188

>  <SCORE.INTRA.VDW.0>
-3.9206

>  <SCORE.INTRA.norm>
-0.0480677

>  <SCORE.RESTR>
1.98549

>  <SCORE.RESTR.CAVITY>
1.98549

>  <SCORE.RESTR.norm>
0.0567284

>  <SCORE.SYSTEM>
0

>  <SCORE.SYSTEM.CONST>
0

>  <SCORE.SYSTEM.DIHEDRAL>
0

>  <SCORE.SYSTEM.SOLV>
0

>  <SCORE.SYSTEM.norm>
0

>  <SCORE.heavy>
35

>  <SCORE.norm>
0.127154

>  <RMSD>
29.874

$$$$
2f4t_lig
 OpenBabel11021811433D
libRbt.so/2013.1/901 2013/11/27
 35 36  0  0  0  0  0  0  0  0999 V2000
   11.8829   13.8527    7.3754 C   0  0  2  0  0  0  0  0  0  0  0  0
   11.4814   12.7276    8.2241 O   0  0  0  0  0  0  0  0  0  0  0  0
    8.1900    9.9836    8.7663 C   0  0  2  0  0  0  0  0  0  0  0  0
    6.8270    9.4333    8.7203 N   0  0  0  0  0  0  0  0  0  0  0  0
   12.5202   14.9032    8.3345 C   0  0  2  0  0  0  0  0  0  0  0  0
   13.6123   14.3188    9.0770 N   0  0  0  0  0  0  0  0  0  0  0  0
    8.1467   11.4248    9.3944 C   0  0  0  0  0  0  0  0  0  0  0  0
    5.9228   10.2031    7.4131 C   0  0  0  0  0  0  0  0  0  0  0  0
    4.7710    9.3165    7.8320 C   0  0  1  0  0  0  0  0  0  0  0  0
    4.0504   10.0119    8.9892 C   0  0  0  0  0  0  0  0  0  0  0  0
    3.1424    9.1125    9.8447 C   0  0  0  0  0  0  0  0  0  0  0  0
    3.9798    8.1125   10.5139 N   0  0  0  0  0  0  0  0  0  0  0  0
    3.8243    9.2036    6.8019 O   0  0  0  0  0  0  0  0  0  0  0  0
    9.2324    7.7561    5.8931 C   0  0  0  0  0  0  0  0  0  0  0  0
   10.6876    7.4245    6.1861 C   0  0  0  0  0  0  0  0  0  0  0  0
   11.4333   15.4723    9.3077 C   0  0  1  0  0  0  0  0  0  0  0  0
   11.6450    8.3680    5.5681 N   0  0  0  0  0  0  0  0  0  0  0  0
   11.9907   16.4319   10.1844 O   0  0  0  0  0  0  0  0  0  0  0  0
    9.5417   12.0620    9.4616 C   0  0  2  0  0  0  0  0  0  0  0  0
    9.4703   13.4128   10.0097 N   0  0  0  0  0  0  0  0  0  0  0  0
   13.2427    8.9338    7.4008 C   0  0  0  0  0  0  0  0  0  0  0  0
   13.0448   10.4824    7.4687 N   0  0  0  0  0  0  0  0  0  0  0  0
   13.0804    8.3441    5.9686 C   0  0  0  0  0  0  0  0  0  0  0  0
    6.1470   10.9528    6.6873 O   0  0  0  0  0  0  0  0  0  0  0  0
   10.3171   16.0941    8.4619 C   0  0  2  0  0  0  0  0  0  0  0  0
    9.3010   16.6423    9.2858 O   0  0  0  0  0  0  0  0  0  0  0  0
   10.1608   12.1199    8.0874 C   0  0  2  0  0  0  0  0  0  0  0  0
    9.7182   15.0237    7.5045 C   0  0  2  0  0  0  0  0  0  0  0  0
   10.7379   14.4567    6.6558 O   0  0  0  0  0  0  0  0  0  0  0  0
   10.2365   10.6625    7.4588 C   0  0  2  0  0  0  0  0  0  0  0  0
   10.8446   10.7566    6.1358 O   0  0  0  0  0  0  0  0  0  0  0  0
    8.6514   15.5860    6.6426 C   0  0  0  0  0  0  0  0  0  0  0  0
    7.4471   15.1551    7.0782 N   0  0  0  0  0  0  0  0  0  0  0  0
    8.7840   10.0809    7.3525 C   0  0  1  0  0  0  0  0  0  0  0  0
    8.8136    8.8131    6.7782 O   0  0  0  0  0  0  0  0  0  0  0  0
  1  2  1  1  0  0  0
  1  5  1  0  0  0  0
  1 29  1  0  0  0  0
  3  4  1  6  0  0  0
  3  7  1  0  0  0  0
  3 34  1  0  0  0  0
  5  6  1  1  0  0  0
  5 16  1  0  0  0  0
  7 19  1  0  0  0  0
  8  4  1  0  0  0  0
  8 24  2  0  0  0  0
  9  8  1  6  0  0  0
  9 10  1  0  0  0  0
  9 13  1  0  0  0  0
 10 11  1  0  0  0  0
 11 12  1  0  0  0  0
 14 15  1  0  0  0  0
 14 35  1  0  0  0  0
 15 17  1  0  0  0  0
 16 18  1  1  0  0  0
 16 25  1  0  0  0  0
 19 20  1  6  0  0  0
 19 27  1  0  0  0  0
 21 22  1  0  0  0  0
 21 23  1  0  0  0  0
 23 17  1  0  0  0  0
 25 26  1  1  0  0  0
 25 28  1  0  0  0  0
 27  2  1  1  0  0  0
 27 30  1  0  0  0  0
 28 29  1  0  0  0  0
 28 32  1  6  0  0  0
 30 31  1  6  0  0  0
 30 34  1  0  0  0  0
 32 33  2  0  0  0  0
 34 35  1  1  0  0  0
M  END
>  <CHROM.1>
133.44216889,75.12983010,84.01422106,-161.65411839,64.33663490,-79.99337464
63.62175274,168.15621466,-72.17743961,-72.38648562,-128.97552965,-105.90068777
-157.17320317,9.22467237,11.64850212,7.89878606,-0.73832624,-0.20793808,-2.86384434

>  <Name>
2f4t_lig

>  <RI>
0

>  <Rbt.Current_Directory>
/home/itssahil/PROJECTS/Mol_Feturizer/New_Systems/rnas/2f4t

>  <Rbt.Executable>
rbdock ($Id: //depot/dev/client3/rdock/2013.1/src/exe/rbdock.cxx#4 $)

>  <Rbt.Library>
libRbt.so (2013.1, Build901 2013/11/27)

>  <Rbt.Parameter_File>
/export/apps/rDock/src/rDock_2013.1_src/data/scripts/dock_solv.prm

>  <Rbt.Receptor>
prm/blind_docking_80.prm

>  <SCORE>
5.68217

>  <SCORE.INTER>
-1.84317

>  <SCORE.INTER.CONST>
1

>  <SCORE.INTER.POLAR>
-0.681826

>  <SCORE.INTER.ROT>
13

>  <SCORE.INTER.SOLV>
12.4238

>  <SCORE.INTER.VDW>
-15.364

>  <SCORE.INTER.norm>
-0.0526619

>  <SCORE.INTRA>
5.1783

>  <SCORE.INTRA.DIHEDRAL>
-2.63482

>  <SCORE.INTRA.DIHEDRAL.0>
23.8882

>  <SCORE.INTRA.POLAR>
0

>  <SCORE.INTRA.POLAR.0>
0

>  <SCORE.INTRA.REPUL>
0.00133786

>  <SCORE.INTRA.REPUL.0>
0

>  <SCORE.INTRA.SOLV>
14.818

>  <SCORE.INTRA.SOLV.lig_0>
-97.6888

>  <SCORE.INTRA.VDW>
-0.919969

>  <SCORE.INTRA.VDW.0>
-3.9206

>  <SCORE.INTRA.norm>
0.147951

>  <SCORE.RESTR>
2.34703

>  <SCORE.RESTR.CAVITY>
2.34703

>  <SCORE.RESTR.norm>
0.0670581

>  <SCORE.SYSTEM>
0

>  <SCORE.SYSTEM.CONST>
0

>  <SCORE.SYSTEM.DIHEDRAL>
0

>  <SCORE.SYSTEM.SOLV>
0

>  <SCORE.SYSTEM.norm>
0

>  <SCORE.heavy>
35

>  <SCORE.norm>
0.162348

>  <RMSD>
29.874

$$$$
2f4t_lig
 OpenBabel11021811433D
libRbt.so/2013.1/901 2013/11/27
 35 36  0  0  0  0  0  0  0  0999 V2000
    5.9899    9.8692    7.5109 C   0  0  2  0  0  0  0  0  0  0  0  0
    6.3458   11.2390    7.1308 O   0  0  0  0  0  0  0  0  0  0  0  0
    9.6294   13.9760    7.7504 C   0  0  2  0  0  0  0  0  0  0  0  0
   10.6689   14.7545    8.4404 N   0  0  0  0  0  0  0  0  0  0  0  0
    4.8360   10.0021    8.5503 C   0  0  2  0  0  0  0  0  0  0  0  0
    3.7350   10.7543    7.9961 N   0  0  0  0  0  0  0  0  0  0  0  0
    8.2492   14.2004    8.4702 C   0  0  0  0  0  0  0  0  0  0  0  0
   10.9367   14.0842   10.0523 C   0  0  0  0  0  0  0  0  0  0  0  0
   11.9782   15.1694   10.2134 C   0  0  1  0  0  0  0  0  0  0  0  0
   13.1287   14.8507    9.2559 C   0  0  0  0  0  0  0  0  0  0  0  0
   14.3732   15.7442    9.3899 C   0  0  0  0  0  0  0  0  0  0  0  0
   15.1491   15.6458    8.1500 N   0  0  0  0  0  0  0  0  0  0  0  0
   11.4730   16.4141    9.8065 O   0  0  0  0  0  0  0  0  0  0  0  0
   12.3603   11.5474    6.7220 C   0  0  0  0  0  0  0  0  0  0  0  0
   13.1129   11.0466    7.9452 C   0  0  0  0  0  0  0  0  0  0  0  0
    5.3657   10.6814    9.8581 C   0  0  1  0  0  0  0  0  0  0  0  0
   13.4193   12.1098    8.9271 N   0  0  0  0  0  0  0  0  0  0  0  0
    4.3341   10.8073   10.8174 O   0  0  0  0  0  0  0  0  0  0  0  0
    7.1194   13.4039    7.8027 C   0  0  2  0  0  0  0  0  0  0  0  0
    5.8585   13.5963    8.5122 N   0  0  0  0  0  0  0  0  0  0  0  0
   15.9138   12.0165    8.9144 C   0  0  0  0  0  0  0  0  0  0  0  0
   16.1161   13.3471    8.1203 N   0  0  0  0  0  0  0  0  0  0  0  0
   14.6278   12.0009    9.7926 C   0  0  0  0  0  0  0  0  0  0  0  0
   10.5175   13.2736   10.6057 O   0  0  0  0  0  0  0  0  0  0  0  0
    6.5140    9.8274   10.4056 C   0  0  2  0  0  0  0  0  0  0  0  0
    7.0339   10.3824   11.6029 O   0  0  0  0  0  0  0  0  0  0  0  0
    7.4534   11.9332    7.7814 C   0  0  2  0  0  0  0  0  0  0  0  0
    7.6371    9.7004    9.3363 C   0  0  2  0  0  0  0  0  0  0  0  0
    7.1268    9.1341    8.1113 O   0  0  0  0  0  0  0  0  0  0  0  0
    8.8320   11.6955    7.0279 C   0  0  2  0  0  0  0  0  0  0  0  0
    9.1190   10.2648    7.0216 O   0  0  0  0  0  0  0  0  0  0  0  0
    8.7601    8.8567    9.8096 C   0  0  0  0  0  0  0  0  0  0  0  0
    9.9281    9.5026    9.5990 N   0  0  0  0  0  0  0  0  0  0  0  0
    9.9631   12.4764    7.7830 C   0  0  1  0  0  0  0  0  0  0  0  0
   11.1911   12.2651    7.1624 O   0  0  0  0  0  0  0  0  0  0  0  0
  1  2  1  1  0  0  0
  1  5  1  0  0  0  0
  1 29  1  0  0  0  0
  3  4  1  1  0  0  0
  3  7  1  0  0  0  0
  3 34  1  0  0  0  0
  5  6  1  6  0  0  0
  5 16  1  0  0  0  0
  7 19  1  0  0  0  0
  8  4  1  0  0  0  0
  8 24  2  0  0  0  0
  9  8  1  6  0  0  0
  9 10  1  0  0  0  0
  9 13  1  0  0  0  0
 10 11  1  0  0  0  0
 11 12  1  0  0  0  0
 14 15  1  0  0  0  0
 14 35  1  0  0  0  0
 15 17  1  0  0  0  0
 16 18  1  1  0  0  0
 16 25  1  0  0  0  0
 19 20  1  1  0  0  0
 19 27  1  0  0  0  0
 21 22  1  0  0  0  0
 21 23  1  0  0  0  0
 23 17  1  0  0  0  0
 25 26  1  1  0  0  0
 25 28  1  0  0  0  0
 27  2  1  6  0  0  0
 27 30  1  0  0  0  0
 28 29  1  0  0  0  0
 28 32  1  1  0  0  0
 30 31  1  1  0  0  0
 30 34  1  0  0  0  0
 32 33  2  0  0  0  0
 34 35  1  6  0  0  0
M  END
>  <CHROM.1>
95.82198515,67.46797434,-67.97100558,-172.78960850,-160.12811272,-53.16873069
-61.53353374,-150.73033704,63.08610507,63.17899308,-148.68581001,-130.46348597
172.66218295,9.67841963,12.18268773,8.75976062,-2.75232229,0.05423121,0.10731177

>  <Name>
2f4t_lig

>  <RI>
0

>  <Rbt.Current_Directory>
/home/itssahil/PROJECTS/Mol_Feturizer/New_Systems/rnas/2f4t

>  <Rbt.Executable>
rbdock ($Id: //depot/dev/client3/rdock/2013.1/src/exe/rbdock.cxx#4 $)

>  <Rbt.Library>
libRbt.so (2013.1, Build901 2013/11/27)

>  <Rbt.Parameter_File>
/export/apps/rDock/src/rDock_2013.1_src/data/scripts/dock_solv.prm

>  <Rbt.Receptor>
prm/blind_docking_80.prm

>  <SCORE>
18.0091

>  <SCORE.INTER>
7.32971

>  <SCORE.INTER.CONST>
1

>  <SCORE.INTER.POLAR>
0

>  <SCORE.INTER.ROT>
13

>  <SCORE.INTER.SOLV>
9.45706

>  <SCORE.INTER.VDW>
-10.5325

>  <SCORE.INTER.norm>
0.20942

>  <SCORE.INTRA>
6.33359

>  <SCORE.INTRA.DIHEDRAL>
-10.9244

>  <SCORE.INTRA.DIHEDRAL.0>
23.8882

>  <SCORE.INTRA.POLAR>
0

>  <SCORE.INTRA.POLAR.0>
0

>  <SCORE.INTRA.REPUL>
0.0217059

>  <SCORE.INTRA.REPUL.0>
0

>  <SCORE.INTRA.SOLV>
14.9734

>  <SCORE.INTRA.SOLV.lig_0>
-97.6888

>  <SCORE.INTRA.VDW>
4.20056

>  <SCORE.INTRA.VDW.0>
-3.9206

>  <SCORE.INTRA.norm>
0.18096

>  <SCORE.RESTR>
4.34576

>  <SCORE.RESTR.CAVITY>
4.34576

>  <SCORE.RESTR.norm>
0.124164

>  <SCORE.SYSTEM>
0

>  <SCORE.SYSTEM.CONST>
0

>  <SCORE.SYSTEM.DIHEDRAL>
0

>  <SCORE.SYSTEM.SOLV>
0

>  <SCORE.SYSTEM.norm>
0

>  <SCORE.heavy>
35

>  <SCORE.norm>
0.514544

>  <RMSD>
29.881

$$$$
2f4t_lig
 OpenBabel11021811433D
libRbt.so/2013.1/901 2013/11/27
 35 36  0  0  0  0  0  0  0  0999 V2000
   11.8834   15.0945    9.5521 C   0  0  2  0  0  0  0  0  0  0  0  0
   11.2663   14.9775    8.2282 O   0  0  0  0  0  0  0  0  0  0  0  0
    7.8563   12.4242    8.9424 C   0  0  2  0  0  0  0  0  0  0  0  0
    6.4933   11.8799    8.8497 N   0  0  0  0  0  0  0  0  0  0  0  0
   13.4015   15.3359    9.2942 C   0  0  2  0  0  0  0  0  0  0  0  0
   13.5982   16.4970    8.4585 N   0  0  0  0  0  0  0  0  0  0  0  0
    7.7800   13.9676    9.2350 C   0  0  0  0  0  0  0  0  0  0  0  0
    5.8659   11.5784   10.4728 C   0  0  0  0  0  0  0  0  0  0  0  0
    4.6063   11.1051    9.7817 C   0  0  1  0  0  0  0  0  0  0  0  0
    4.7659    9.6084    9.5054 C   0  0  0  0  0  0  0  0  0  0  0  0
    3.6907    8.9795    8.6034 C   0  0  0  0  0  0  0  0  0  0  0  0
    2.4243    8.9547    9.3414 N   0  0  0  0  0  0  0  0  0  0  0  0
    3.4941   11.2230   10.6299 O   0  0  0  0  0  0  0  0  0  0  0  0
    8.2041    9.5027    7.1410 C   0  0  0  0  0  0  0  0  0  0  0  0
    9.3492    8.6604    6.5999 C   0  0  0  0  0  0  0  0  0  0  0  0
   14.0438   14.0678    8.6372 C   0  0  1  0  0  0  0  0  0  0  0  0
   10.4145    8.4028    7.5936 N   0  0  0  0  0  0  0  0  0  0  0  0
   15.4240   14.2645    8.3989 O   0  0  0  0  0  0  0  0  0  0  0  0
    9.1748   14.6011    9.3333 C   0  0  2  0  0  0  0  0  0  0  0  0
    9.0775   16.0389    9.5644 N   0  0  0  0  0  0  0  0  0  0  0  0
   12.4376    8.5955    6.1440 C   0  0  0  0  0  0  0  0  0  0  0  0
   12.2940    7.0633    5.8728 N   0  0  0  0  0  0  0  0  0  0  0  0
   11.7414    9.0673    7.4547 C   0  0  0  0  0  0  0  0  0  0  0  0
    6.2534   11.6982   11.4600 O   0  0  0  0  0  0  0  0  0  0  0  0
   13.8200   12.8798    9.5786 C   0  0  2  0  0  0  0  0  0  0  0  0
   14.3911   11.6955    9.0467 O   0  0  0  0  0  0  0  0  0  0  0  0
    9.9544   14.3575    8.0652 C   0  0  2  0  0  0  0  0  0  0  0  0
   12.2971   12.6808    9.8285 C   0  0  2  0  0  0  0  0  0  0  0  0
   11.6992   13.8756   10.3730 O   0  0  0  0  0  0  0  0  0  0  0  0
   10.0624   12.7981    7.7797 C   0  0  2  0  0  0  0  0  0  0  0  0
   10.8260   12.6009    6.5521 O   0  0  0  0  0  0  0  0  0  0  0  0
   12.0303   11.5583   10.7590 C   0  0  0  0  0  0  0  0  0  0  0  0
   12.2017   11.9782   12.0317 N   0  0  0  0  0  0  0  0  0  0  0  0
    8.6168   12.2104    7.6244 C   0  0  1  0  0  0  0  0  0  0  0  0
    8.6781   10.8480    7.3450 O   0  0  0  0  0  0  0  0  0  0  0  0
  1  2  1  6  0  0  0
  1  5  1  0  0  0  0
  1 29  1  0  0  0  0
  3  4  1  6  0  0  0
  3  7  1  0  0  0  0
  3 34  1  0  0  0  0
  5  6  1  6  0  0  0
  5 16  1  0  0  0  0
  7 19  1  0  0  0  0
  8  4  1  0  0  0  0
  8 24  2  0  0  0  0
  9  8  1  1  0  0  0
  9 10  1  0  0  0  0
  9 13  1  0  0  0  0
 10 11  1  0  0  0  0
 11 12  1  0  0  0  0
 14 15  1  0  0  0  0
 14 35  1  0  0  0  0
 15 17  1  0  0  0  0
 16 18  1  1  0  0  0
 16 25  1  0  0  0  0
 19 20  1  6  0  0  0
 19 27  1  0  0  0  0
 21 22  1  0  0  0  0
 21 23  1  0  0  0  0
 23 17  1  0  0  0  0
 25 26  1  6  0  0  0
 25 28  1  0  0  0  0
 27  2  1  1  0  0  0
 27 30  1  0  0  0  0
 28 29  1  0  0  0  0
 28 32  1  1  0  0  0
 30 31  1  6  0  0  0
 30 34  1  0  0  0  0
 32 33  2  0  0  0  0
 34 35  1  1  0  0  0
M  END
>  <CHROM.1>
161.33364396,-81.53054219,89.11265469,-170.42570898,-69.38910624,69.99573837
171.49235698,-108.84976611,-41.95272500,-63.61326610,29.84508109,80.97744803
51.84626715,9.72787769,12.02219685,8.79461184,0.33344880,0.20893135,0.40970227

>  <Name>
2f4t_lig

>  <RI>
0

>  <Rbt.Current_Directory>
/home/itssahil/PROJECTS/Mol_Feturizer/New_Systems/rnas/2f4t

>  <Rbt.Executable>
rbdock ($Id: //depot/dev/client3/rdock/2013.1/src/exe/rbdock.cxx#4 $)

>  <Rbt.Library>
libRbt.so (2013.1, Build901 2013/11/27)

>  <Rbt.Parameter_File>
/export/apps/rDock/src/rDock_2013.1_src/data/scripts/dock_solv.prm

>  <Rbt.Receptor>
prm/blind_docking_40.prm

>  <SCORE>
-8.31868

>  <SCORE.INTER>
-5.5861

>  <SCORE.INTER.CONST>
1

>  <SCORE.INTER.POLAR>
-1.07703

>  <SCORE.INTER.ROT>
13

>  <SCORE.INTER.SOLV>
13.2422

>  <SCORE.INTER.VDW>
-16.8147

>  <SCORE.INTER.norm>
-0.159603

>  <SCORE.INTRA>
-2.74132

>  <SCORE.INTRA.DIHEDRAL>
-11.1719

>  <SCORE.INTRA.DIHEDRAL.0>
23.8882

>  <SCORE.INTRA.POLAR>
0

>  <SCORE.INTRA.POLAR.0>
0

>  <SCORE.INTRA.REPUL>
0

>  <SCORE.INTRA.REPUL.0>
0

>  <SCORE.INTRA.SOLV>
4.61573

>  <SCORE.INTRA.SOLV.lig_0>
-97.6888

>  <SCORE.INTRA.VDW>
0.536747

>  <SCORE.INTRA.VDW.0>
-3.9206

>  <SCORE.INTRA.norm>
-0.0783233

>  <SCORE.RESTR>
0.00873477

>  <SCORE.RESTR.CAVITY>
0.00873477

>  <SCORE.RESTR.norm>
0.000249565

>  <SCORE.SYSTEM>
0

>  <SCORE.SYSTEM.CONST>
0

>  <SCORE.SYSTEM.DIHEDRAL>
0

>  <SCORE.SYSTEM.SOLV>
0

>  <SCORE.SYSTEM.norm>
0

>  <SCORE.heavy>
35

>  <SCORE.norm>
-0.237677

>  <RMSD>
29.882

$$$$
2f4t_lig
 OpenBabel11021811433D
libRbt.so/2013.1/901 2013/11/27
 35 36  0  0  0  0  0  0  0  0999 V2000
   11.9114   15.2649    9.8939 C   0  0  2  0  0  0  0  0  0  0  0  0
   11.0325   14.9942    8.7531 O   0  0  0  0  0  0  0  0  0  0  0  0
    8.8056   11.6898    7.0861 C   0  0  2  0  0  0  0  0  0  0  0  0
    8.4799   10.3261    6.6422 N   0  0  0  0  0  0  0  0  0  0  0  0
   13.3628   15.2520    9.3255 C   0  0  2  0  0  0  0  0  0  0  0  0
   13.4977   16.2069    8.2506 N   0  0  0  0  0  0  0  0  0  0  0  0
   10.1874   12.1198    6.4704 C   0  0  0  0  0  0  0  0  0  0  0  0
    9.7345    9.2108    7.1907 C   0  0  0  0  0  0  0  0  0  0  0  0
    8.9182    8.1303    6.5167 C   0  0  1  0  0  0  0  0  0  0  0  0
    9.6697    6.8085    6.6896 C   0  0  0  0  0  0  0  0  0  0  0  0
   10.9331    6.6433    5.8283 C   0  0  0  0  0  0  0  0  0  0  0  0
   11.9426    7.5959    6.3002 N   0  0  0  0  0  0  0  0  0  0  0  0
    7.6837    7.9579    7.1620 O   0  0  0  0  0  0  0  0  0  0  0  0
    6.7677   10.9384   10.1954 C   0  0  0  0  0  0  0  0  0  0  0  0
    5.3645   11.3441    9.7710 C   0  0  0  0  0  0  0  0  0  0  0  0
   13.7355   13.8123    8.8348 C   0  0  1  0  0  0  0  0  0  0  0  0
    5.1909   11.4254    8.3041 N   0  0  0  0  0  0  0  0  0  0  0  0
   15.0520   13.7777    8.3190 O   0  0  0  0  0  0  0  0  0  0  0  0
   10.5921   13.5353    6.9052 C   0  0  2  0  0  0  0  0  0  0  0  0
   11.8950   13.8956    6.3548 N   0  0  0  0  0  0  0  0  0  0  0  0
    4.7392    9.1652    7.3453 C   0  0  0  0  0  0  0  0  0  0  0  0
    4.7921    8.2473    8.6088 N   0  0  0  0  0  0  0  0  0  0  0  0
    4.1636   10.5847    7.6263 C   0  0  0  0  0  0  0  0  0  0  0  0
   10.6396    9.3159    7.7463 O   0  0  0  0  0  0  0  0  0  0  0  0
   13.5928   12.8540   10.0218 C   0  0  2  0  0  0  0  0  0  0  0  0
   13.9293   11.5279    9.6474 O   0  0  0  0  0  0  0  0  0  0  0  0
   10.6502   13.6275    8.4096 C   0  0  2  0  0  0  0  0  0  0  0  0
   12.1394   12.9073   10.5747 C   0  0  2  0  0  0  0  0  0  0  0  0
   11.7803   14.2494   10.9639 O   0  0  0  0  0  0  0  0  0  0  0  0
    9.2473   13.2244    9.0376 C   0  0  2  0  0  0  0  0  0  0  0  0
    9.3391   13.3309   10.4900 O   0  0  0  0  0  0  0  0  0  0  0  0
   11.9588   12.0165   11.7455 C   0  0  0  0  0  0  0  0  0  0  0  0
   11.0041   11.1005   11.4711 N   0  0  0  0  0  0  0  0  0  0  0  0
    8.9091   11.7517    8.6180 C   0  0  1  0  0  0  0  0  0  0  0  0
    7.6965   11.3580    9.1769 O   0  0  0  0  0  0  0  0  0  0  0  0
  1  2  1  6  0  0  0
  1  5  1  0  0  0  0
  1 29  1  0  0  0  0
  3  4  1  1  0  0  0
  3  7  1  0  0  0  0
  3 34  1  0  0  0  0
  5  6  1  6  0  0  0
  5 16  1  0  0  0  0
  7 19  1  0  0  0  0
  8  4  1  0  0  0  0
  8 24  2  0  0  0  0
  9  8  1  1  0  0  0
  9 10  1  0  0  0  0
  9 13  1  0  0  0  0
 10 11  1  0  0  0  0
 11 12  1  0  0  0  0
 14 15  1  0  0  0  0
 14 35  1  0  0  0  0
 15 17  1  0  0  0  0
 16 18  1  1  0  0  0
 16 25  1  0  0  0  0
 19 20  1  6  0  0  0
 19 27  1  0  0  0  0
 21 22  1  0  0  0  0
 21 23  1  0  0  0  0
 23 17  1  0  0  0  0
 25 26  1  6  0  0  0
 25 28  1  0  0  0  0
 27  2  1  6  0  0  0
 27 30  1  0  0  0  0
 28 29  1  0  0  0  0
 28 32  1  1  0  0  0
 30 31  1  1  0  0  0
 30 34  1  0  0  0  0
 32 33  2  0  0  0  0
 34 35  1  1  0  0  0
M  END
>  <CHROM.1>
90.70365050,60.33602176,178.63708301,-73.25694432,67.79146236,27.69604554
154.57536724,121.29890971,76.77338282,-83.96598441,-143.28511376,-120.20926976
166.89347839,9.98272344,11.59975026,8.47755503,0.69911660,0.13023706,0.47340173

>  <Name>
2f4t_lig

>  <RI>
0

>  <Rbt.Current_Directory>
/home/itssahil/PROJECTS/Mol_Feturizer/New_Systems/rnas/2f4t

>  <Rbt.Executable>
rbdock ($Id: //depot/dev/client3/rdock/2013.1/src/exe/rbdock.cxx#4 $)

>  <Rbt.Library>
libRbt.so (2013.1, Build901 2013/11/27)

>  <Rbt.Parameter_File>
/export/apps/rDock/src/rDock_2013.1_src/data/scripts/dock_solv.prm

>  <Rbt.Receptor>
prm/blind_docking_100.prm

>  <SCORE>
11.1295

>  <SCORE.INTER>
4.41845

>  <SCORE.INTER.CONST>
1

>  <SCORE.INTER.POLAR>
0

>  <SCORE.INTER.ROT>
13

>  <SCORE.INTER.SOLV>
12.4836

>  <SCORE.INTER.VDW>
-13.4822

>  <SCORE.INTER.norm>
0.126242

>  <SCORE.INTRA>
4.47374

>  <SCORE.INTRA.DIHEDRAL>
-3.62895

>  <SCORE.INTRA.DIHEDRAL.0>
23.8882

>  <SCORE.INTRA.POLAR>
0

>  <SCORE.INTRA.POLAR.0>
0

>  <SCORE.INTRA.REPUL>
0.00558269

>  <SCORE.INTRA.REPUL.0>
0

>  <SCORE.INTRA.SOLV>
12.5557

>  <SCORE.INTRA.SOLV.lig_0>
-97.6888

>  <SCORE.INTRA.VDW>
-0.017545

>  <SCORE.INTRA.VDW.0>
-3.9206

>  <SCORE.INTRA.norm>
0.127821

>  <SCORE.RESTR>
2.23728

>  <SCORE.RESTR.CAVITY>
2.23728

>  <SCORE.RESTR.norm>
0.0639224

>  <SCORE.SYSTEM>
0

>  <SCORE.SYSTEM.CONST>
0

>  <SCORE.SYSTEM.DIHEDRAL>
0

>  <SCORE.SYSTEM.SOLV>
0

>  <SCORE.SYSTEM.norm>
0

>  <SCORE.heavy>
35

>  <SCORE.norm>
0.317985

>  <RMSD>
29.885

$$$$
2f4t_lig
 OpenBabel11021811433D
libRbt.so/2013.1/901 2013/11/27
 35 36  0  0  0  0  0  0  0  0999 V2000
   12.1032   14.7404    9.6701 C   0  0  2  0  0  0  0  0  0  0  0  0
   11.4800   14.7411    8.3439 O   0  0  0  0  0  0  0  0  0  0  0  0
    8.1086   12.0793    8.7980 C   0  0  2  0  0  0  0  0  0  0  0  0
    6.7482   11.5366    8.6664 N   0  0  0  0  0  0  0  0  0  0  0  0
   13.6361   14.8717    9.4200 C   0  0  2  0  0  0  0  0  0  0  0  0
   13.9265   16.0544    8.6438 N   0  0  0  0  0  0  0  0  0  0  0  0
    8.0269   13.5711    9.2896 C   0  0  0  0  0  0  0  0  0  0  0  0
    6.1882   10.9580   10.2382 C   0  0  0  0  0  0  0  0  0  0  0  0
    4.9068   10.5868    9.5250 C   0  0  1  0  0  0  0  0  0  0  0  0
    5.1056    9.1993    8.9109 C   0  0  0  0  0  0  0  0  0  0  0  0
    4.8205    9.0914    7.4035 C   0  0  0  0  0  0  0  0  0  0  0  0
    3.4337    9.5023    7.1643 N   0  0  0  0  0  0  0  0  0  0  0  0
    3.8460   10.4562   10.4349 O   0  0  0  0  0  0  0  0  0  0  0  0
    9.1238    9.3088    7.0442 C   0  0  0  0  0  0  0  0  0  0  0  0
    9.4202    8.8104    5.6381 C   0  0  0  0  0  0  0  0  0  0  0  0
   14.1749   13.5912    8.6973 C   0  0  1  0  0  0  0  0  0  0  0  0
   10.8327    8.9849    5.2345 N   0  0  0  0  0  0  0  0  0  0  0  0
   15.5666   13.6881    8.4650 O   0  0  0  0  0  0  0  0  0  0  0  0
    9.4184   14.2019    9.4377 C   0  0  2  0  0  0  0  0  0  0  0  0
    9.3151   15.5967    9.8551 N   0  0  0  0  0  0  0  0  0  0  0  0
   11.7012    7.3244    6.8837 C   0  0  0  0  0  0  0  0  0  0  0  0
   11.6945    6.1286    5.8776 N   0  0  0  0  0  0  0  0  0  0  0  0
   11.9268    8.7094    6.2084 C   0  0  0  0  0  0  0  0  0  0  0  0
    6.6132   10.9172   11.2163 O   0  0  0  0  0  0  0  0  0  0  0  0
   13.8552   12.3787    9.5778 C   0  0  2  0  0  0  0  0  0  0  0  0
   14.3296   11.1808    8.9846 O   0  0  0  0  0  0  0  0  0  0  0  0
   10.1696   14.1328    8.1316 C   0  0  2  0  0  0  0  0  0  0  0  0
   12.3211   12.2903    9.8221 C   0  0  2  0  0  0  0  0  0  0  0  0
   11.8208   13.5001   10.4285 O   0  0  0  0  0  0  0  0  0  0  0  0
   10.2834   12.6247    7.6442 C   0  0  2  0  0  0  0  0  0  0  0  0
   11.0193   12.5963    6.3846 O   0  0  0  0  0  0  0  0  0  0  0  0
   11.9638   11.1470   10.6950 C   0  0  0  0  0  0  0  0  0  0  0  0
   10.8183   10.5834   10.2524 N   0  0  0  0  0  0  0  0  0  0  0  0
    8.8393   12.0460    7.4467 C   0  0  1  0  0  0  0  0  0  0  0  0
    8.9050   10.7320    6.9919 O   0  0  0  0  0  0  0  0  0  0  0  0
  1  2  1  6  0  0  0
  1  5  1  0  0  0  0
  1 29  1  0  0  0  0
  3  4  1  6  0  0  0
  3  7  1  0  0  0  0
  3 34  1  0  0  0  0
  5  6  1  6  0  0  0
  5 16  1  0  0  0  0
  7 19  1  0  0  0  0
  8  4  1  0  0  0  0
  8 24  2  0  0  0  0
  9  8  1  1  0  0  0
  9 10  1  0  0  0  0
  9 13  1  0  0  0  0
 10 11  1  0  0  0  0
 11 12  1  0  0  0  0
 14 15  1  0  0  0  0
 14 35  1  0  0  0  0
 15 17  1  0  0  0  0
 16 18  1  1  0  0  0
 16 25  1  0  0  0  0
 19 20  1  6  0  0  0
 19 27  1  0  0  0  0
 21 22  1  0  0  0  0
 21 23  1  0  0  0  0
 23 17  1  0  0  0  0
 25 26  1  6  0  0  0
 25 28  1  0  0  0  0
 27  2  1  1  0  0  0
 27 30  1  0  0  0  0
 28 29  1  0  0  0  0
 28 32  1  1  0  0  0
 30 31  1  6  0  0  0
 30 34  1  0  0  0  0
 32 33  2  0  0  0  0
 34 35  1  1  0  0  0
M  END
>  <CHROM.1>
155.97937777,-83.91637045,85.17534794,-126.04958491,-58.40397916,82.77910892
-156.29337384,40.80407355,60.81649964,49.11608074,27.34752581,-141.41566176
-46.05898487,9.90875813,11.64415006,8.48989972,0.41748794,0.18322435,0.50219214

>  <Name>
2f4t_lig

>  <RI>
0

>  <Rbt.Current_Directory>
/home/itssahil/PROJECTS/Mol_Feturizer/New_Systems/rnas/2f4t

>  <Rbt.Executable>
rbdock ($Id: //depot/dev/client3/rdock/2013.1/src/exe/rbdock.cxx#4 $)

>  <Rbt.Library>
libRbt.so (2013.1, Build901 2013/11/27)

>  <Rbt.Parameter_File>
/export/apps/rDock/src/rDock_2013.1_src/data/scripts/dock_solv.prm

>  <Rbt.Receptor>
prm/blind_docking_80.prm

>  <SCORE>
-5.36424

>  <SCORE.INTER>
-8.55224

>  <SCORE.INTER.CONST>
1

>  <SCORE.INTER.POLAR>
-1.9918

>  <SCORE.INTER.ROT>
13

>  <SCORE.INTER.SOLV>
17.2493

>  <SCORE.INTER.VDW>
-17.0786

>  <SCORE.INTER.norm>
-0.24435

>  <SCORE.INTRA>
2.55273

>  <SCORE.INTRA.DIHEDRAL>
-3.8395

>  <SCORE.INTRA.DIHEDRAL.0>
23.8882

>  <SCORE.INTRA.POLAR>
0

>  <SCORE.INTRA.POLAR.0>
0

>  <SCORE.INTRA.REPUL>
0

>  <SCORE.INTRA.REPUL.0>
0

>  <SCORE.INTRA.SOLV>
5.14022

>  <SCORE.INTRA.SOLV.lig_0>
-97.6888

>  <SCORE.INTRA.VDW>
1.90237

>  <SCORE.INTRA.VDW.0>
-3.9206

>  <SCORE.INTRA.norm>
0.0729352

>  <SCORE.RESTR>
0.635261

>  <SCORE.RESTR.CAVITY>
0.635261

>  <SCORE.RESTR.norm>
0.0181503

>  <SCORE.SYSTEM>
0

>  <SCORE.SYSTEM.CONST>
0

>  <SCORE.SYSTEM.DIHEDRAL>
0

>  <SCORE.SYSTEM.SOLV>
0

>  <SCORE.SYSTEM.norm>
0

>  <SCORE.heavy>
35

>  <SCORE.norm>
-0.153264

>  <RMSD>
29.889

$$$$
2f4t_lig
 OpenBabel11021811433D
libRbt.so/2013.1/901 2013/11/27
 35 36  0  0  0  0  0  0  0  0999 V2000
   13.4917   12.3477    8.0997 C   0  0  2  0  0  0  0  0  0  0  0  0
   12.8299   11.7534    9.2642 O   0  0  0  0  0  0  0  0  0  0  0  0
    8.9589    9.8456    9.0826 C   0  0  2  0  0  0  0  0  0  0  0  0
    7.5091    9.6438    9.2243 N   0  0  0  0  0  0  0  0  0  0  0  0
   14.9292   12.7218    8.5720 C   0  0  2  0  0  0  0  0  0  0  0  0
   15.6111   11.5621    9.0969 N   0  0  0  0  0  0  0  0  0  0  0  0
    9.5519   10.3315   10.4559 C   0  0  0  0  0  0  0  0  0  0  0  0
    6.7023   11.2109    9.3337 C   0  0  0  0  0  0  0  0  0  0  0  0
    5.4163   10.4213    9.4380 C   0  0  1  0  0  0  0  0  0  0  0  0
    4.3435   11.3581    9.9977 C   0  0  0  0  0  0  0  0  0  0  0  0
    3.0611   10.6755   10.5023 C   0  0  0  0  0  0  0  0  0  0  0  0
    2.7744    9.5297    9.6340 N   0  0  0  0  0  0  0  0  0  0  0  0
    4.9623   10.0320    8.1681 O   0  0  0  0  0  0  0  0  0  0  0  0
    8.5840    9.7184    5.5925 C   0  0  0  0  0  0  0  0  0  0  0  0
    9.8679    9.8356    4.7855 C   0  0  0  0  0  0  0  0  0  0  0  0
   14.8634   13.8574    9.6483 C   0  0  1  0  0  0  0  0  0  0  0  0
   10.9192    8.8832    5.2055 N   0  0  0  0  0  0  0  0  0  0  0  0
   16.1593   14.2154   10.0873 O   0  0  0  0  0  0  0  0  0  0  0  0
   11.0657   10.5718   10.3726 C   0  0  2  0  0  0  0  0  0  0  0  0
   11.5852   11.0604   11.6460 N   0  0  0  0  0  0  0  0  0  0  0  0
   12.5506    8.4418    7.0426 C   0  0  0  0  0  0  0  0  0  0  0  0
   13.6720    9.0214    7.9637 N   0  0  0  0  0  0  0  0  0  0  0  0
   12.1587    9.3829    5.8653 C   0  0  0  0  0  0  0  0  0  0  0  0
    7.0325   12.2258    9.3242 O   0  0  0  0  0  0  0  0  0  0  0  0
   14.1500   15.0618    9.0252 C   0  0  2  0  0  0  0  0  0  0  0  0
   14.0671   16.1362    9.9475 O   0  0  0  0  0  0  0  0  0  0  0  0
   11.3807   11.5775    9.2935 C   0  0  2  0  0  0  0  0  0  0  0  0
   12.7279   14.6475    8.5484 C   0  0  2  0  0  0  0  0  0  0  0  0
   12.7928   13.5567    7.6064 O   0  0  0  0  0  0  0  0  0  0  0  0
   10.8115   11.0781    7.8965 C   0  0  2  0  0  0  0  0  0  0  0  0
   11.1393   12.0705    6.8782 O   0  0  0  0  0  0  0  0  0  0  0  0
   12.0072   15.7746    7.9104 C   0  0  0  0  0  0  0  0  0  0  0  0
   10.7389   15.8181    8.3744 N   0  0  0  0  0  0  0  0  0  0  0  0
    9.2569   10.9090    8.0143 C   0  0  1  0  0  0  0  0  0  0  0  0
    8.7233   10.4986    6.7958 O   0  0  0  0  0  0  0  0  0  0  0  0
  1  2  1  1  0  0  0
  1  5  1  0  0  0  0
  1 29  1  0  0  0  0
  3  4  1  1  0  0  0
  3  7  1  0  0  0  0
  3 34  1  0  0  0  0
  5  6  1  1  0  0  0
  5 16  1  0  0  0  0
  7 19  1  0  0  0  0
  8  4  1  0  0  0  0
  8 24  2  0  0  0  0
  9  8  1  6  0  0  0
  9 10  1  0  0  0  0
  9 13  1  0  0  0  0
 10 11  1  0  0  0  0
 11 12  1  0  0  0  0
 14 15  1  0  0  0  0
 14 35  1  0  0  0  0
 15 17  1  0  0  0  0
 16 18  1  6  0  0  0
 16 25  1  0  0  0  0
 19 20  1  1  0  0  0
 19 27  1  0  0  0  0
 21 22  1  0  0  0  0
 21 23  1  0  0  0  0
 23 17  1  0  0  0  0
 25 26  1  1  0  0  0
 25 28  1  0  0  0  0
 27  2  1  6  0  0  0
 27 30  1  0  0  0  0
 28 29  1  0  0  0  0
 28 32  1  6  0  0  0
 30 31  1  6  0  0  0
 30 34  1  0  0  0  0
 32 33  2  0  0  0  0
 34 35  1  6  0  0  0
M  END
>  <CHROM.1>
165.13522118,72.57491802,162.58241654,-165.64911778,-35.69588332,84.38929254
-59.69417570,-111.65679586,-169.01717813,138.73275881,162.02919332,-135.10380298
-70.23574407,10.47224652,11.60657164,8.52282574,-0.27854937,-0.21154924,-2.54413264

>  <Name>
2f4t_lig

>  <RI>
0

>  <Rbt.Current_Directory>
/home/itssahil/PROJECTS/Mol_Feturizer/New_Systems/rnas/2f4t

>  <Rbt.Executable>
rbdock ($Id: //depot/dev/client3/rdock/2013.1/src/exe/rbdock.cxx#4 $)

>  <Rbt.Library>
libRbt.so (2013.1, Build901 2013/11/27)

>  <Rbt.Parameter_File>
/export/apps/rDock/src/rDock_2013.1_src/data/scripts/dock_solv.prm

>  <Rbt.Receptor>
prm/blind_docking_80.prm

>  <SCORE>
2.15097

>  <SCORE.INTER>
0.246344

>  <SCORE.INTER.CONST>
1

>  <SCORE.INTER.POLAR>
-0.89564

>  <SCORE.INTER.ROT>
13

>  <SCORE.INTER.SOLV>
19.3956

>  <SCORE.INTER.VDW>
-15.5822

>  <SCORE.INTER.norm>
0.00703839

>  <SCORE.INTRA>
0.0696155

>  <SCORE.INTRA.DIHEDRAL>
-11.5022

>  <SCORE.INTRA.DIHEDRAL.0>
23.8882

>  <SCORE.INTRA.POLAR>
0

>  <SCORE.INTRA.POLAR.0>
0

>  <SCORE.INTRA.REPUL>
0

>  <SCORE.INTRA.REPUL.0>
0

>  <SCORE.INTRA.SOLV>
8.97007

>  <SCORE.INTRA.SOLV.lig_0>
-97.6888

>  <SCORE.INTRA.VDW>
1.3357

>  <SCORE.INTRA.VDW.0>
-3.9206

>  <SCORE.INTRA.norm>
0.00198901

>  <SCORE.RESTR>
1.83501

>  <SCORE.RESTR.CAVITY>
1.83501

>  <SCORE.RESTR.norm>
0.0524289

>  <SCORE.SYSTEM>
0

>  <SCORE.SYSTEM.CONST>
0

>  <SCORE.SYSTEM.DIHEDRAL>
0

>  <SCORE.SYSTEM.SOLV>
0

>  <SCORE.SYSTEM.norm>
0

>  <SCORE.heavy>
35

>  <SCORE.norm>
0.0614563

>  <RMSD>
29.907

$$$$
2f4t_lig
 OpenBabel11021811433D
libRbt.so/2013.1/901 2013/11/27
 35 36  0  0  0  0  0  0  0  0999 V2000
   12.2073   14.8981    9.9204 C   0  0  2  0  0  0  0  0  0  0  0  0
   11.4826   15.1082    8.6643 O   0  0  0  0  0  0  0  0  0  0  0  0
    8.0911   12.4521    8.9811 C   0  0  2  0  0  0  0  0  0  0  0  0
    6.7110   11.9541    8.8808 N   0  0  0  0  0  0  0  0  0  0  0  0
   13.7206   15.0015    9.5612 C   0  0  2  0  0  0  0  0  0  0  0  0
   14.0092   16.2681    8.9305 N   0  0  0  0  0  0  0  0  0  0  0  0
    8.0873   13.8500    9.7018 C   0  0  0  0  0  0  0  0  0  0  0  0
    6.1512   11.4397   10.4748 C   0  0  0  0  0  0  0  0  0  0  0  0
    4.8487   11.0942    9.7875 C   0  0  1  0  0  0  0  0  0  0  0  0
    4.9897    9.6823    9.2143 C   0  0  0  0  0  0  0  0  0  0  0  0
    3.9223    9.2716    8.1861 C   0  0  0  0  0  0  0  0  0  0  0  0
    4.2250    7.9144    7.7218 N   0  0  0  0  0  0  0  0  0  0  0  0
    3.7949   11.0302   10.7124 O   0  0  0  0  0  0  0  0  0  0  0  0
    8.1796   10.1522    6.4175 C   0  0  0  0  0  0  0  0  0  0  0  0
    9.1576    9.5943    5.3948 C   0  0  0  0  0  0  0  0  0  0  0  0
   14.1345   13.8136    8.6285 C   0  0  1  0  0  0  0  0  0  0  0  0
   10.5068    9.3388    5.9451 N   0  0  0  0  0  0  0  0  0  0  0  0
   15.5068   13.8862    8.2942 O   0  0  0  0  0  0  0  0  0  0  0  0
    9.5020   14.4320    9.8293 C   0  0  2  0  0  0  0  0  0  0  0  0
    9.4683   15.7460   10.4638 N   0  0  0  0  0  0  0  0  0  0  0  0
   10.6781    6.8531    6.0978 C   0  0  0  0  0  0  0  0  0  0  0  0
   10.5587    5.5960    7.0183 N   0  0  0  0  0  0  0  0  0  0  0  0
   10.7282    8.1990    6.8796 C   0  0  0  0  0  0  0  0  0  0  0  0
    6.5869   11.4113   11.4487 O   0  0  0  0  0  0  0  0  0  0  0  0
   13.8233   12.5040    9.3606 C   0  0  2  0  0  0  0  0  0  0  0  0
   14.1876   11.3824    8.5725 O   0  0  0  0  0  0  0  0  0  0  0  0
   10.1443   14.5575    8.4703 C   0  0  2  0  0  0  0  0  0  0  0  0
   12.3106   12.4439    9.7201 C   0  0  2  0  0  0  0  0  0  0  0  0
   11.9222   13.5765   10.5250 O   0  0  0  0  0  0  0  0  0  0  0  0
   10.1799   13.1423    7.7486 C   0  0  2  0  0  0  0  0  0  0  0  0
   10.8116   13.3008    6.4429 O   0  0  0  0  0  0  0  0  0  0  0  0
   11.9650   11.2053   10.4573 C   0  0  0  0  0  0  0  0  0  0  0  0
   10.7274   10.7986   10.0987 N   0  0  0  0  0  0  0  0  0  0  0  0
    8.7103   12.6202    7.5848 C   0  0  1  0  0  0  0  0  0  0  0  0
    8.7055   11.3923    6.9291 O   0  0  0  0  0  0  0  0  0  0  0  0
  1  2  1  6  0  0  0
  1  5  1  0  0  0  0
  1 29  1  0  0  0  0
  3  4  1  6  0  0  0
  3  7  1  0  0  0  0
  3 34  1  0  0  0  0
  5  6  1  6  0  0  0
  5 16  1  0  0  0  0
  7 19  1  0  0  0  0
  8  4  1  0  0  0  0
  8 24  2  0  0  0  0
  9  8  1  1  0  0  0
  9 10  1  0  0  0  0
  9 13  1  0  0  0  0
 10 11  1  0  0  0  0
 11 12  1  0  0  0  0
 14 15  1  0  0  0  0
 14 35  1  0  0  0  0
 15 17  1  0  0  0  0
 16 18  1  1  0  0  0
 16 25  1  0  0  0  0
 19 20  1  6  0  0  0
 19 27  1  0  0  0  0
 21 22  1  0  0  0  0
 21 23  1  0  0  0  0
 23 17  1  0  0  0  0
 25 26  1  6  0  0  0
 25 28  1  0  0  0  0
 27  2  1  1  0  0  0
 27 30  1  0  0  0  0
 28 29  1  0  0  0  0
 28 32  1  1  0  0  0
 30 31  1  6  0  0  0
 30 34  1  0  0  0  0
 32 33  2  0  0  0  0
 34 35  1  1  0  0  0
M  END
>  <CHROM.1>
154.31600689,-72.61239415,85.34157875,-165.42323262,178.68495068,59.24996827
164.82577300,71.95922754,-166.24393444,73.00778087,27.07086282,-144.98856538
50.35844376,9.74433897,11.87747177,8.64832021,0.50238476,0.21711603,0.48090573

>  <Name>
2f4t_lig

>  <RI>
0

>  <Rbt.Current_Directory>
/home/itssahil/PROJECTS/Mol_Feturizer/New_Systems/rnas/2f4t

>  <Rbt.Executable>
rbdock ($Id: //depot/dev/client3/rdock/2013.1/src/exe/rbdock.cxx#4 $)

>  <Rbt.Library>
libRbt.so (2013.1, Build901 2013/11/27)

>  <Rbt.Parameter_File>
/export/apps/rDock/src/rDock_2013.1_src/data/scripts/dock_solv.prm

>  <Rbt.Receptor>
prm/blind_docking_80.prm

>  <SCORE>
-5.09688

>  <SCORE.INTER>
-3.03559

>  <SCORE.INTER.CONST>
1

>  <SCORE.INTER.POLAR>
-0.780545

>  <SCORE.INTER.ROT>
13

>  <SCORE.INTER.SOLV>
14.4744

>  <SCORE.INTER.VDW>
-16.5134

>  <SCORE.INTER.norm>
-0.086731

>  <SCORE.INTRA>
-3.75207

>  <SCORE.INTRA.DIHEDRAL>
-10.9653

>  <SCORE.INTRA.DIHEDRAL.0>
23.8882

>  <SCORE.INTRA.POLAR>
0

>  <SCORE.INTRA.POLAR.0>
0

>  <SCORE.INTRA.REPUL>
0

>  <SCORE.INTRA.REPUL.0>
0

>  <SCORE.INTRA.SOLV>
1.34962

>  <SCORE.INTRA.SOLV.lig_0>
-97.6888

>  <SCORE.INTRA.VDW>
1.05575

>  <SCORE.INTRA.VDW.0>
-3.9206

>  <SCORE.INTRA.norm>
-0.107202

>  <SCORE.RESTR>
1.69078

>  <SCORE.RESTR.CAVITY>
1.69078

>  <SCORE.RESTR.norm>
0.048308

>  <SCORE.SYSTEM>
0

>  <SCORE.SYSTEM.CONST>
0

>  <SCORE.SYSTEM.DIHEDRAL>
0

>  <SCORE.SYSTEM.SOLV>
0

>  <SCORE.SYSTEM.norm>
0

>  <SCORE.heavy>
35

>  <SCORE.norm>
-0.145625

>  <RMSD>
29.908

$$$$
2f4t_lig
 OpenBabel11021811433D
libRbt.so/2013.1/901 2013/11/27
 35 36  0  0  0  0  0  0  0  0999 V2000
    6.1980   12.2284    8.3177 C   0  0  2  0  0  0  0  0  0  0  0  0
    6.6976   11.9866    9.6739 O   0  0  0  0  0  0  0  0  0  0  0  0
   10.6232   13.7759    9.4602 C   0  0  2  0  0  0  0  0  0  0  0  0
   11.9023   14.3586    9.8927 N   0  0  0  0  0  0  0  0  0  0  0  0
    4.8076   11.5274    8.2451 C   0  0  2  0  0  0  0  0  0  0  0  0
    3.9326   12.0223    9.2818 N   0  0  0  0  0  0  0  0  0  0  0  0
    9.4430   14.5125   10.1937 C   0  0  0  0  0  0  0  0  0  0  0  0
   12.5379   15.4013    8.6169 C   0  0  0  0  0  0  0  0  0  0  0  0
   13.6942   15.6644    9.5560 C   0  0  1  0  0  0  0  0  0  0  0  0
   14.9872   15.4920    8.7556 C   0  0  0  0  0  0  0  0  0  0  0  0
   15.3570   14.0442    8.3920 C   0  0  0  0  0  0  0  0  0  0  0  0
   15.4850   13.2738    9.6326 N   0  0  0  0  0  0  0  0  0  0  0  0
   13.6896   16.9971    9.9965 O   0  0  0  0  0  0  0  0  0  0  0  0
   12.9567   11.1513    8.9567 C   0  0  0  0  0  0  0  0  0  0  0  0
   13.0424   10.5624    7.5570 C   0  0  0  0  0  0  0  0  0  0  0  0
    4.9808    9.9755    8.3632 C   0  0  1  0  0  0  0  0  0  0  0  0
   12.0277    9.5191    7.2914 N   0  0  0  0  0  0  0  0  0  0  0  0
    3.7298    9.3193    8.2947 O   0  0  0  0  0  0  0  0  0  0  0  0
    8.0752   13.9424    9.7927 C   0  0  2  0  0  0  0  0  0  0  0  0
    7.0000   14.6138   10.5161 N   0  0  0  0  0  0  0  0  0  0  0  0
   11.2934    7.2068    6.7037 C   0  0  0  0  0  0  0  0  0  0  0  0
   11.5950    5.8767    5.9408 N   0  0  0  0  0  0  0  0  0  0  0  0
   12.4019    8.2882    6.5390 C   0  0  0  0  0  0  0  0  0  0  0  0
   12.2055   15.6795    7.6416 O   0  0  0  0  0  0  0  0  0  0  0  0
    5.8991    9.5121    7.2276 C   0  0  2  0  0  0  0  0  0  0  0  0
    6.0887    8.1070    7.2688 O   0  0  0  0  0  0  0  0  0  0  0  0
    8.0157   12.4634   10.0828 C   0  0  2  0  0  0  0  0  0  0  0  0
    7.2684   10.2453    7.3200 C   0  0  2  0  0  0  0  0  0  0  0  0
    7.0953   11.6770    7.2764 O   0  0  0  0  0  0  0  0  0  0  0  0
    9.1870   11.7080    9.3196 C   0  0  2  0  0  0  0  0  0  0  0  0
    9.0944   10.2827    9.6181 O   0  0  0  0  0  0  0  0  0  0  0  0
    8.1833    9.8510    6.2226 C   0  0  0  0  0  0  0  0  0  0  0  0
    8.8877    8.7595    6.5942 N   0  0  0  0  0  0  0  0  0  0  0  0
   10.5624   12.2807    9.8092 C   0  0  1  0  0  0  0  0  0  0  0  0
   11.6119   11.6184    9.1785 O   0  0  0  0  0  0  0  0  0  0  0  0
  1  2  1  1  0  0  0
  1  5  1  0  0  0  0
  1 29  1  0  0  0  0
  3  4  1  1  0  0  0
  3  7  1  0  0  0  0
  3 34  1  0  0  0  0
  5  6  1  1  0  0  0
  5 16  1  0  0  0  0
  7 19  1  0  0  0  0
  8  4  1  0  0  0  0
  8 24  2  0  0  0  0
  9  8  1  6  0  0  0
  9 10  1  0  0  0  0
  9 13  1  0  0  0  0
 10 11  1  0  0  0  0
 11 12  1  0  0  0  0
 14 15  1  0  0  0  0
 14 35  1  0  0  0  0
 15 17  1  0  0  0  0
 16 18  1  6  0  0  0
 16 25  1  0  0  0  0
 19 20  1  1  0  0  0
 19 27  1  0  0  0  0
 21 22  1  0  0  0  0
 21 23  1  0  0  0  0
 23 17  1  0  0  0  0
 25 26  1  1  0  0  0
 25 28  1  0  0  0  0
 27  2  1  6  0  0  0
 27 30  1  0  0  0  0
 28 29  1  0  0  0  0
 28 32  1  6  0  0  0
 30 31  1  1  0  0  0
 30 34  1  0  0  0  0
 32 33  2  0  0  0  0
 34 35  1  6  0  0  0
M  END
>  <CHROM.1>
177.62950273,-104.31922048,132.02011027,-72.58421166,-58.55455113,-53.90109347
-168.74365903,-138.95376399,179.71292723,165.58628662,53.97778706,-88.02589343
79.74604713,9.72748364,11.81361422,8.50065907,2.59869941,-0.09359220,-2.74297362

>  <Name>
2f4t_lig

>  <RI>
0

>  <Rbt.Current_Directory>
/home/itssahil/PROJECTS/Mol_Feturizer/New_Systems/rnas/2f4t

>  <Rbt.Executable>
rbdock ($Id: //depot/dev/client3/rdock/2013.1/src/exe/rbdock.cxx#4 $)

>  <Rbt.Library>
libRbt.so (2013.1, Build901 2013/11/27)

>  <Rbt.Parameter_File>
/export/apps/rDock/src/rDock_2013.1_src/data/scripts/dock_solv.prm

>  <Rbt.Receptor>
prm/blind_docking_100.prm

>  <SCORE>
-8.15076

>  <SCORE.INTER>
-2.79931

>  <SCORE.INTER.CONST>
1

>  <SCORE.INTER.POLAR>
-1.12001

>  <SCORE.INTER.ROT>
13

>  <SCORE.INTER.SOLV>
20.5429

>  <SCORE.INTER.VDW>
-17.2472

>  <SCORE.INTER.norm>
-0.0799803

>  <SCORE.INTRA>
-6.56534

>  <SCORE.INTRA.DIHEDRAL>
-14.8986

>  <SCORE.INTRA.DIHEDRAL.0>
23.8882

>  <SCORE.INTRA.POLAR>
0

>  <SCORE.INTRA.POLAR.0>
0

>  <SCORE.INTRA.REPUL>
0

>  <SCORE.INTRA.REPUL.0>
0

>  <SCORE.INTRA.SOLV>
4.98003

>  <SCORE.INTRA.SOLV.lig_0>
-97.6888

>  <SCORE.INTRA.VDW>
-1.60605

>  <SCORE.INTRA.VDW.0>
-3.9206

>  <SCORE.INTRA.norm>
-0.187581

>  <SCORE.RESTR>
1.21389

>  <SCORE.RESTR.CAVITY>
1.21389

>  <SCORE.RESTR.norm>
0.0346827

>  <SCORE.SYSTEM>
0

>  <SCORE.SYSTEM.CONST>
0

>  <SCORE.SYSTEM.DIHEDRAL>
0

>  <SCORE.SYSTEM.SOLV>
0

>  <SCORE.SYSTEM.norm>
0

>  <SCORE.heavy>
35

>  <SCORE.norm>
-0.232879

>  <RMSD>
29.915

$$$$
2f4t_lig
 OpenBabel11021811433D
libRbt.so/2013.1/901 2013/11/27
 35 36  0  0  0  0  0  0  0  0999 V2000
   11.6041   13.6739    9.8296 C   0  0  2  0  0  0  0  0  0  0  0  0
   10.8821   13.8147    8.5623 O   0  0  0  0  0  0  0  0  0  0  0  0
    7.9407   10.6686    8.8895 C   0  0  2  0  0  0  0  0  0  0  0  0
    6.7076    9.8998    8.6631 N   0  0  0  0  0  0  0  0  0  0  0  0
   11.9248   15.1249   10.3003 C   0  0  2  0  0  0  0  0  0  0  0  0
   10.7144   15.9053   10.4065 N   0  0  0  0  0  0  0  0  0  0  0  0
    7.5682   12.1565    9.2370 C   0  0  0  0  0  0  0  0  0  0  0  0
    5.9681   10.4043    7.1407 C   0  0  0  0  0  0  0  0  0  0  0  0
    4.9001    9.3766    7.4430 C   0  0  1  0  0  0  0  0  0  0  0  0
    4.1854    9.8163    8.7227 C   0  0  0  0  0  0  0  0  0  0  0  0
    4.3498    8.8806    9.9321 C   0  0  0  0  0  0  0  0  0  0  0  0
    4.0003    7.5194    9.5149 N   0  0  0  0  0  0  0  0  0  0  0  0
    3.9185    9.3632    6.4397 O   0  0  0  0  0  0  0  0  0  0  0  0
    9.8316    8.2673    6.6432 C   0  0  0  0  0  0  0  0  0  0  0  0
   11.0403    7.8754    7.4791 C   0  0  0  0  0  0  0  0  0  0  0  0
   12.9325   15.8011    9.3106 C   0  0  1  0  0  0  0  0  0  0  0  0
   11.9437    9.0078    7.7793 N   0  0  0  0  0  0  0  0  0  0  0  0
   13.2407   17.1185    9.7227 O   0  0  0  0  0  0  0  0  0  0  0  0
    8.8160   13.0182    9.4754 C   0  0  2  0  0  0  0  0  0  0  0  0
    8.4463   14.4020    9.7557 N   0  0  0  0  0  0  0  0  0  0  0  0
   13.2093    9.8425    5.7961 C   0  0  0  0  0  0  0  0  0  0  0  0
   12.1191    9.2872    4.8240 N   0  0  0  0  0  0  0  0  0  0  0  0
   13.2923    9.0744    7.1483 C   0  0  0  0  0  0  0  0  0  0  0  0
    6.2150   11.1206    6.3890 O   0  0  0  0  0  0  0  0  0  0  0  0
   14.1982   14.9391    9.2585 C   0  0  2  0  0  0  0  0  0  0  0  0
   15.1623   15.5045    8.3852 O   0  0  0  0  0  0  0  0  0  0  0  0
    9.7180   12.9843    8.2670 C   0  0  2  0  0  0  0  0  0  0  0  0
   13.8382   13.4951    8.8044 C   0  0  2  0  0  0  0  0  0  0  0  0
   12.8599   12.9024    9.6838 O   0  0  0  0  0  0  0  0  0  0  0  0
   10.1240   11.4858    7.9284 C   0  0  2  0  0  0  0  0  0  0  0  0
   10.9991   11.4925    6.7608 O   0  0  0  0  0  0  0  0  0  0  0  0
   15.0287   12.6130    8.7665 C   0  0  0  0  0  0  0  0  0  0  0  0
   14.7018   11.3948    9.2510 N   0  0  0  0  0  0  0  0  0  0  0  0
    8.8224   10.6633    7.6310 C   0  0  1  0  0  0  0  0  0  0  0  0
    9.1469    9.3500    7.3026 O   0  0  0  0  0  0  0  0  0  0  0  0
  1  2  1  6  0  0  0
  1  5  1  0  0  0  0
  1 29  1  0  0  0  0
  3  4  1  6  0  0  0
  3  7  1  0  0  0  0
  3 34  1  0  0  0  0
  5  6  1  6  0  0  0
  5 16  1  0  0  0  0
  7 19  1  0  0  0  0
  8  4  1  0  0  0  0
  8 24  2  0  0  0  0
  9  8  1  6  0  0  0
  9 10  1  0  0  0  0
  9 13  1  0  0  0  0
 10 11  1  0  0  0  0
 11 12  1  0  0  0  0
 14 15  1  0  0  0  0
 14 35  1  0  0  0  0
 15 17  1  0  0  0  0
 16 18  1  1  0  0  0
 16 25  1  0  0  0  0
 19 20  1  6  0  0  0
 19 27  1  0  0  0  0
 21 22  1  0  0  0  0
 21 23  1  0  0  0  0
 23 17  1  0  0  0  0
 25 26  1  6  0  0  0
 25 28  1  0  0  0  0
 27  2  1  1  0  0  0
 27 30  1  0  0  0  0
 28 29  1  0  0  0  0
 28 32  1  1  0  0  0
 30 31  1  6  0  0  0
 30 34  1  0  0  0  0
 32 33  2  0  0  0  0
 34 35  1  1  0  0  0
M  END
>  <CHROM.1>
-138.07648177,71.01990070,63.66173531,-115.08683940,-51.70355426,-54.39235853
90.33427212,-110.26350954,-52.74348199,89.84613398,47.66834315,139.35522276
-167.27206435,10.01610211,11.67050776,8.30601202,0.54828201,0.14954595,0.45206008

>  <Name>
2f4t_lig

>  <RI>
0

>  <Rbt.Current_Directory>
/home/itssahil/PROJECTS/Mol_Feturizer/New_Systems/rnas/2f4t

>  <Rbt.Executable>
rbdock ($Id: //depot/dev/client3/rdock/2013.1/src/exe/rbdock.cxx#4 $)

>  <Rbt.Library>
libRbt.so (2013.1, Build901 2013/11/27)

>  <Rbt.Parameter_File>
/export/apps/rDock/src/rDock_2013.1_src/data/scripts/dock_solv.prm

>  <Rbt.Receptor>
prm/blind_docking_100.prm

>  <SCORE>
9.08536

>  <SCORE.INTER>
-0.799822

>  <SCORE.INTER.CONST>
1

>  <SCORE.INTER.POLAR>
-0.916515

>  <SCORE.INTER.ROT>
13

>  <SCORE.INTER.SOLV>
10.9023

>  <SCORE.INTER.VDW>
-13.3789

>  <SCORE.INTER.norm>
-0.0228521

>  <SCORE.INTRA>
6.96183

>  <SCORE.INTRA.DIHEDRAL>
-3.77773

>  <SCORE.INTRA.DIHEDRAL.0>
23.8882

>  <SCORE.INTRA.POLAR>
0

>  <SCORE.INTRA.POLAR.0>
0

>  <SCORE.INTRA.REPUL>
0.00112245

>  <SCORE.INTRA.REPUL.0>
0

>  <SCORE.INTRA.SOLV>
12.0751

>  <SCORE.INTRA.SOLV.lig_0>
-97.6888

>  <SCORE.INTRA.VDW>
2.80756

>  <SCORE.INTRA.VDW.0>
-3.9206

>  <SCORE.INTRA.norm>
0.198909

>  <SCORE.RESTR>
2.92336

>  <SCORE.RESTR.CAVITY>
2.92336

>  <SCORE.RESTR.norm>
0.0835244

>  <SCORE.SYSTEM>
0

>  <SCORE.SYSTEM.CONST>
0

>  <SCORE.SYSTEM.DIHEDRAL>
0

>  <SCORE.SYSTEM.SOLV>
0

>  <SCORE.SYSTEM.norm>
0

>  <SCORE.heavy>
35

>  <SCORE.norm>
0.259582

>  <RMSD>
29.936

$$$$
2f4t_lig
 OpenBabel11021811433D
libRbt.so/2013.1/901 2013/11/27
 35 36  0  0  0  0  0  0  0  0999 V2000
    6.5292   10.4317    8.9700 C   0  0  2  0  0  0  0  0  0  0  0  0
    6.2875   11.8674    9.1362 O   0  0  0  0  0  0  0  0  0  0  0  0
    9.9645   14.0154    8.4127 C   0  0  2  0  0  0  0  0  0  0  0  0
   11.0222   15.0287    8.5432 N   0  0  0  0  0  0  0  0  0  0  0  0
    6.4147   10.1550    7.4403 C   0  0  2  0  0  0  0  0  0  0  0  0
    7.3355   10.9870    6.7017 N   0  0  0  0  0  0  0  0  0  0  0  0
    8.5726   14.7335    8.2697 C   0  0  0  0  0  0  0  0  0  0  0  0
   12.5804   14.3144    8.1182 C   0  0  0  0  0  0  0  0  0  0  0  0
   13.1637   15.6803    8.4051 C   0  0  1  0  0  0  0  0  0  0  0  0
   14.3305   15.4890    9.3768 C   0  0  0  0  0  0  0  0  0  0  0  0
   15.5939   14.8451    8.7815 C   0  0  0  0  0  0  0  0  0  0  0  0
   15.3236   13.4228    8.5511 N   0  0  0  0  0  0  0  0  0  0  0  0
   13.7180   16.2430    7.2448 O   0  0  0  0  0  0  0  0  0  0  0  0
   12.1778   11.6644   10.4107 C   0  0  0  0  0  0  0  0  0  0  0  0
   12.9850   10.9912    9.3113 C   0  0  0  0  0  0  0  0  0  0  0  0
    4.9444   10.3966    6.9585 C   0  0  1  0  0  0  0  0  0  0  0  0
   12.2106   10.0011    8.5312 N   0  0  0  0  0  0  0  0  0  0  0  0
    4.8178   10.1461    5.5723 O   0  0  0  0  0  0  0  0  0  0  0  0
    7.4203   13.7277    8.1397 C   0  0  2  0  0  0  0  0  0  0  0  0
    6.1367   14.4166    8.0494 N   0  0  0  0  0  0  0  0  0  0  0  0
   11.6444   10.2477    6.1125 C   0  0  0  0  0  0  0  0  0  0  0  0
   11.9826    9.8827    4.6312 N   0  0  0  0  0  0  0  0  0  0  0  0
   12.6366    9.6419    7.1488 C   0  0  0  0  0  0  0  0  0  0  0  0
   12.9001   13.3451    7.8062 O   0  0  0  0  0  0  0  0  0  0  0  0
    4.0232    9.4733    7.7627 C   0  0  2  0  0  0  0  0  0  0  0  0
    2.6710    9.6333    7.3653 O   0  0  0  0  0  0  0  0  0  0  0  0
    7.3975   12.7969    9.3263 C   0  0  2  0  0  0  0  0  0  0  0  0
    4.1777    9.7636    9.2835 C   0  0  2  0  0  0  0  0  0  0  0  0
    5.5476    9.6027    9.7068 O   0  0  0  0  0  0  0  0  0  0  0  0
    8.7905   12.0440    9.4587 C   0  0  2  0  0  0  0  0  0  0  0  0
    8.7296   11.1502   10.6104 O   0  0  0  0  0  0  0  0  0  0  0  0
    3.3259    8.8731   10.1071 C   0  0  0  0  0  0  0  0  0  0  0  0
    2.9216    9.5344   11.2139 N   0  0  0  0  0  0  0  0  0  0  0  0
    9.9252   13.1090    9.6528 C   0  0  1  0  0  0  0  0  0  0  0  0
   11.1575   12.4785    9.8005 O   0  0  0  0  0  0  0  0  0  0  0  0
  1  2  1  6  0  0  0
  1  5  1  0  0  0  0
  1 29  1  0  0  0  0
  3  4  1  1  0  0  0
  3  7  1  0  0  0  0
  3 34  1  0  0  0  0
  5  6  1  6  0  0  0
  5 16  1  0  0  0  0
  7 19  1  0  0  0  0
  8  4  1  0  0  0  0
  8 24  2  0  0  0  0
  9  8  1  6  0  0  0
  9 10  1  0  0  0  0
  9 13  1  0  0  0  0
 10 11  1  0  0  0  0
 11 12  1  0  0  0  0
 14 15  1  0  0  0  0
 14 35  1  0  0  0  0
 15 17  1  0  0  0  0
 16 18  1  6  0  0  0
 16 25  1  0  0  0  0
 19 20  1  1  0  0  0
 19 27  1  0  0  0  0
 21 22  1  0  0  0  0
 21 23  1  0  0  0  0
 23 17  1  0  0  0  0
 25 26  1  6  0  0  0
 25 28  1  0  0  0  0
 27  2  1  6  0  0  0
 27 30  1  0  0  0  0
 28 29  1  0  0  0  0
 28 32  1  1  0  0  0
 30 31  1  1  0  0  0
 30 34  1  0  0  0  0
 32 33  2  0  0  0  0
 34 35  1  6  0  0  0
M  END
>  <CHROM.1>
-100.91988332,-159.50333215,128.47547594,72.02358847,-72.60191579,-66.69457130
147.06690325,156.67716257,-178.03960367,-108.12012598,115.94859564,-147.51366328
174.23041566,9.12951274,11.99544523,8.42099371,-2.78380041,0.16761351,0.37338827

>  <Name>
2f4t_lig

>  <RI>
0

>  <Rbt.Current_Directory>
/home/itssahil/PROJECTS/Mol_Feturizer/New_Systems/rnas/2f4t

>  <Rbt.Executable>
rbdock ($Id: //depot/dev/client3/rdock/2013.1/src/exe/rbdock.cxx#4 $)

>  <Rbt.Library>
libRbt.so (2013.1, Build901 2013/11/27)

>  <Rbt.Parameter_File>
/export/apps/rDock/src/rDock_2013.1_src/data/scripts/dock_solv.prm

>  <Rbt.Receptor>
prm/blind_docking_80.prm

>  <SCORE>
6.578

>  <SCORE.INTER>
-1.43866

>  <SCORE.INTER.CONST>
1

>  <SCORE.INTER.POLAR>
-0.916515

>  <SCORE.INTER.ROT>
13

>  <SCORE.INTER.SOLV>
16.2645

>  <SCORE.INTER.VDW>
-15.5922

>  <SCORE.INTER.norm>
-0.0411045

>  <SCORE.INTRA>
4.69745

>  <SCORE.INTRA.DIHEDRAL>
-0.170729

>  <SCORE.INTRA.DIHEDRAL.0>
23.8882

>  <SCORE.INTRA.POLAR>
0

>  <SCORE.INTRA.POLAR.0>
0

>  <SCORE.INTRA.REPUL>
0

>  <SCORE.INTRA.REPUL.0>
0

>  <SCORE.INTRA.SOLV>
8.98223

>  <SCORE.INTRA.SOLV.lig_0>
-97.6888

>  <SCORE.INTRA.VDW>
0.291701

>  <SCORE.INTRA.VDW.0>
-3.9206

>  <SCORE.INTRA.norm>
0.134213

>  <SCORE.RESTR>
3.3192

>  <SCORE.RESTR.CAVITY>
3.3192

>  <SCORE.RESTR.norm>
0.0948344

>  <SCORE.SYSTEM>
0

>  <SCORE.SYSTEM.CONST>
0

>  <SCORE.SYSTEM.DIHEDRAL>
0

>  <SCORE.SYSTEM.SOLV>
0

>  <SCORE.SYSTEM.norm>
0

>  <SCORE.heavy>
35

>  <SCORE.norm>
0.187943

>  <RMSD>
29.952

$$$$
2f4t_lig
 OpenBabel11021811433D
libRbt.so/2013.1/901 2013/11/27
 35 36  0  0  0  0  0  0  0  0999 V2000
    8.9479    8.4474    6.4864 C   0  0  2  0  0  0  0  0  0  0  0  0
    8.9225    8.9565    7.8602 O   0  0  0  0  0  0  0  0  0  0  0  0
    8.8428   12.8094    9.8113 C   0  0  2  0  0  0  0  0  0  0  0  0
    9.2144   14.1873   10.1660 N   0  0  0  0  0  0  0  0  0  0  0  0
    9.7430    7.1080    6.5435 C   0  0  2  0  0  0  0  0  0  0  0  0
    9.1399    6.1972    7.4880 N   0  0  0  0  0  0  0  0  0  0  0  0
   10.1152   11.8893    9.9007 C   0  0  0  0  0  0  0  0  0  0  0  0
   10.3745   14.8081    8.9881 C   0  0  0  0  0  0  0  0  0  0  0  0
   10.3493   16.0861    9.7970 C   0  0  1  0  0  0  0  0  0  0  0  0
   11.5550   16.0600   10.7391 C   0  0  0  0  0  0  0  0  0  0  0  0
   12.9111   16.3920   10.0941 C   0  0  0  0  0  0  0  0  0  0  0  0
   13.1925   15.3866    9.0649 N   0  0  0  0  0  0  0  0  0  0  0  0
   10.5310   17.2064    8.9710 O   0  0  0  0  0  0  0  0  0  0  0  0
    5.8741   14.1056    8.6046 C   0  0  0  0  0  0  0  0  0  0  0  0
    4.9109   12.9481    8.8190 C   0  0  0  0  0  0  0  0  0  0  0  0
   11.2373    7.3851    6.9210 C   0  0  1  0  0  0  0  0  0  0  0  0
    5.3943   11.9505    9.7986 N   0  0  0  0  0  0  0  0  0  0  0  0
   11.9783    6.1816    6.9736 O   0  0  0  0  0  0  0  0  0  0  0  0
    9.7964   10.4341    9.5307 C   0  0  2  0  0  0  0  0  0  0  0  0
   10.9995    9.6093    9.5815 N   0  0  0  0  0  0  0  0  0  0  0  0
    6.0438    9.5413    9.8727 C   0  0  0  0  0  0  0  0  0  0  0  0
    7.0785    9.8936   10.9895 N   0  0  0  0  0  0  0  0  0  0  0  0
    4.8677   10.5566    9.7661 C   0  0  0  0  0  0  0  0  0  0  0  0
   10.8440   14.4088    8.1168 O   0  0  0  0  0  0  0  0  0  0  0  0
   11.8233    8.3374    5.8734 C   0  0  2  0  0  0  0  0  0  0  0  0
   13.1851    8.6213    6.1502 O   0  0  0  0  0  0  0  0  0  0  0  0
    9.2067   10.3603    8.1444 C   0  0  2  0  0  0  0  0  0  0  0  0
   10.9945    9.6536    5.8305 C   0  0  2  0  0  0  0  0  0  0  0  0
    9.6058    9.3843    5.5468 O   0  0  0  0  0  0  0  0  0  0  0  0
    7.9022   11.2633    8.0553 C   0  0  2  0  0  0  0  0  0  0  0  0
    7.3571   11.1628    6.7056 O   0  0  0  0  0  0  0  0  0  0  0  0
   11.5063   10.5977    4.8089 C   0  0  0  0  0  0  0  0  0  0  0  0
   10.5553   11.5154    4.5277 N   0  0  0  0  0  0  0  0  0  0  0  0
    8.2908   12.7478    8.3786 C   0  0  1  0  0  0  0  0  0  0  0  0
    7.1723   13.5707    8.2811 O   0  0  0  0  0  0  0  0  0  0  0  0
  1  2  1  1  0  0  0
  1  5  1  0  0  0  0
  1 29  1  0  0  0  0
  3  4  1  6  0  0  0
  3  7  1  0  0  0  0
  3 34  1  0  0  0  0
  5  6  1  1  0  0  0
  5 16  1  0  0  0  0
  7 19  1  0  0  0  0
  8  4  1  0  0  0  0
  8 24  2  0  0  0  0
  9  8  1  6  0  0  0
  9 10  1  0  0  0  0
  9 13  1  0  0  0  0
 10 11  1  0  0  0  0
 11 12  1  0  0  0  0
 14 15  1  0  0  0  0
 14 35  1  0  0  0  0
 15 17  1  0  0  0  0
 16 18  1  6  0  0  0
 16 25  1  0  0  0  0
 19 20  1  6  0  0  0
 19 27  1  0  0  0  0
 21 22  1  0  0  0  0
 21 23  1  0  0  0  0
 23 17  1  0  0  0  0
 25 26  1  1  0  0  0
 25 28  1  0  0  0  0
 27  2  1  1  0  0  0
 27 30  1  0  0  0  0
 28 29  1  0  0  0  0
 28 32  1  6  0  0  0
 30 31  1  6  0  0  0
 30 34  1  0  0  0  0
 32 33  2  0  0  0  0
 34 35  1  1  0  0  0
M  END
>  <CHROM.1>
134.58846605,63.39647113,97.38912754,77.42073629,-61.67379540,52.90860677
-45.59686172,-157.34938756,46.01929953,133.57143218,-151.18983167,161.77003895
-54.05220028,9.44336050,11.42468068,8.19072716,1.50239266,-0.29920734,-2.79154591

>  <Name>
2f4t_lig

>  <RI>
0

>  <Rbt.Current_Directory>
/home/itssahil/PROJECTS/Mol_Feturizer/New_Systems/rnas/2f4t

>  <Rbt.Executable>
rbdock ($Id: //depot/dev/client3/rdock/2013.1/src/exe/rbdock.cxx#4 $)

>  <Rbt.Library>
libRbt.so (2013.1, Build901 2013/11/27)

>  <Rbt.Parameter_File>
/export/apps/rDock/src/rDock_2013.1_src/data/scripts/dock_solv.prm

>  <Rbt.Receptor>
prm/blind_docking_100.prm

>  <SCORE>
9.26213

>  <SCORE.INTER>
5.08897

>  <SCORE.INTER.CONST>
1

>  <SCORE.INTER.POLAR>
0

>  <SCORE.INTER.ROT>
13

>  <SCORE.INTER.SOLV>
11.6059

>  <SCORE.INTER.VDW>
-12.7426

>  <SCORE.INTER.norm>
0.145399

>  <SCORE.INTRA>
1.83428

>  <SCORE.INTRA.DIHEDRAL>
-6.2959

>  <SCORE.INTRA.DIHEDRAL.0>
23.8882

>  <SCORE.INTRA.POLAR>
0

>  <SCORE.INTRA.POLAR.0>
0

>  <SCORE.INTRA.REPUL>
0

>  <SCORE.INTRA.REPUL.0>
0

>  <SCORE.INTRA.SOLV>
13.6934

>  <SCORE.INTRA.SOLV.lig_0>
-97.6888

>  <SCORE.INTRA.VDW>
-1.86445

>  <SCORE.INTRA.VDW.0>
-3.9206

>  <SCORE.INTRA.norm>
0.052408

>  <SCORE.RESTR>
2.33888

>  <SCORE.RESTR.CAVITY>
2.33888

>  <SCORE.RESTR.norm>
0.0668251

>  <SCORE.SYSTEM>
0

>  <SCORE.SYSTEM.CONST>
0

>  <SCORE.SYSTEM.DIHEDRAL>
0

>  <SCORE.SYSTEM.SOLV>
0

>  <SCORE.SYSTEM.norm>
0

>  <SCORE.heavy>
35

>  <SCORE.norm>
0.264632

>  <RMSD>
29.956

$$$$
2f4t_lig
 OpenBabel11021811433D
libRbt.so/2013.1/901 2013/11/27
 35 36  0  0  0  0  0  0  0  0999 V2000
   11.7696   15.3408    9.9858 C   0  0  2  0  0  0  0  0  0  0  0  0
   11.0810   15.4319    8.6955 O   0  0  0  0  0  0  0  0  0  0  0  0
    7.8077   12.6418    9.0933 C   0  0  2  0  0  0  0  0  0  0  0  0
    6.4581   12.0687    8.9799 N   0  0  0  0  0  0  0  0  0  0  0  0
   13.2380   15.7893    9.7171 C   0  0  2  0  0  0  0  0  0  0  0  0
   13.2689   17.1109    9.1358 N   0  0  0  0  0  0  0  0  0  0  0  0
    7.7074   14.0901    9.6983 C   0  0  0  0  0  0  0  0  0  0  0  0
    6.2639   10.7751   10.1663 C   0  0  0  0  0  0  0  0  0  0  0  0
    4.8617   10.6286    9.6181 C   0  0  1  0  0  0  0  0  0  0  0  0
    4.9419    9.7358    8.3777 C   0  0  0  0  0  0  0  0  0  0  0  0
    5.3984    8.2886    8.6275 C   0  0  0  0  0  0  0  0  0  0  0  0
    5.0195    7.4771    7.4670 N   0  0  0  0  0  0  0  0  0  0  0  0
    4.0357    9.9497   10.5276 O   0  0  0  0  0  0  0  0  0  0  0  0
    8.1022   10.1812    6.6664 C   0  0  0  0  0  0  0  0  0  0  0  0
    9.2728    9.4667    6.0087 C   0  0  0  0  0  0  0  0  0  0  0  0
   13.9528   14.7576    8.7807 C   0  0  1  0  0  0  0  0  0  0  0  0
    9.9511    8.4997    6.8993 N   0  0  0  0  0  0  0  0  0  0  0  0
   15.2897   15.1441    8.5280 O   0  0  0  0  0  0  0  0  0  0  0  0
    9.0864   14.7507    9.8334 C   0  0  2  0  0  0  0  0  0  0  0  0
    8.9638   16.1071   10.3581 N   0  0  0  0  0  0  0  0  0  0  0  0
   12.4163    8.5301    6.5080 C   0  0  0  0  0  0  0  0  0  0  0  0
   12.7226    9.0256    7.9580 N   0  0  0  0  0  0  0  0  0  0  0  0
   11.1033    7.7006    6.3940 C   0  0  0  0  0  0  0  0  0  0  0  0
    6.8938   10.3395   10.9097 O   0  0  0  0  0  0  0  0  0  0  0  0
   13.9044   13.3855    9.4609 C   0  0  2  0  0  0  0  0  0  0  0  0
   14.5488   12.4021    8.6675 O   0  0  0  0  0  0  0  0  0  0  0  0
    9.7795   14.8010    8.4947 C   0  0  2  0  0  0  0  0  0  0  0  0
   12.4269   12.9793    9.7308 C   0  0  2  0  0  0  0  0  0  0  0  0
   11.7556   13.9674   10.5399 O   0  0  0  0  0  0  0  0  0  0  0  0
    9.9125   13.3371    7.8913 C   0  0  2  0  0  0  0  0  0  0  0  0
   10.5913   13.4241    6.6026 O   0  0  0  0  0  0  0  0  0  0  0  0
   12.3288   11.6685   10.4159 C   0  0  0  0  0  0  0  0  0  0  0  0
   12.1141   11.8653   11.7354 N   0  0  0  0  0  0  0  0  0  0  0  0
    8.4774   12.7305    7.7132 C   0  0  1  0  0  0  0  0  0  0  0  0
    8.5584   11.4562    7.1588 O   0  0  0  0  0  0  0  0  0  0  0  0
  1  2  1  6  0  0  0
  1  5  1  0  0  0  0
  1 29  1  0  0  0  0
  3  4  1  6  0  0  0
  3  7  1  0  0  0  0
  3 34  1  0  0  0  0
  5  6  1  6  0  0  0
  5 16  1  0  0  0  0
  7 19  1  0  0  0  0
  8  4  1  0  0  0  0
  8 24  2  0  0  0  0
  9  8  1  1  0  0  0
  9 10  1  0  0  0  0
  9 13  1  0  0  0  0
 10 11  1  0  0  0  0
 11 12  1  0  0  0  0
 14 15  1  0  0  0  0
 14 35  1  0  0  0  0
 15 17  1  0  0  0  0
 16 18  1  1  0  0  0
 16 25  1  0  0  0  0
 19 20  1  6  0  0  0
 19 27  1  0  0  0  0
 21 22  1  0  0  0  0
 21 23  1  0  0  0  0
 23 17  1  0  0  0  0
 25 26  1  6  0  0  0
 25 28  1  0  0  0  0
 27  2  1  1  0  0  0
 27 30  1  0  0  0  0
 28 29  1  0  0  0  0
 28 32  1  1  0  0  0
 30 31  1  6  0  0  0
 30 34  1  0  0  0  0
 32 33  2  0  0  0  0
 34 35  1  1  0  0  0
M  END
>  <CHROM.1>
165.71525654,-109.62121301,83.86528302,64.24669379,162.19635707,96.59222328
172.09866513,178.90806364,56.86876031,83.75540110,27.99485499,100.39184300
57.67392332,9.84017428,12.15765653,8.77012899,0.60639305,0.19598982,0.40577559

>  <Name>
2f4t_lig

>  <RI>
0

>  <Rbt.Current_Directory>
/home/itssahil/PROJECTS/Mol_Feturizer/New_Systems/rnas/2f4t

>  <Rbt.Executable>
rbdock ($Id: //depot/dev/client3/rdock/2013.1/src/exe/rbdock.cxx#4 $)

>  <Rbt.Library>
libRbt.so (2013.1, Build901 2013/11/27)

>  <Rbt.Parameter_File>
/export/apps/rDock/src/rDock_2013.1_src/data/scripts/dock_solv.prm

>  <Rbt.Receptor>
prm/blind_docking_100.prm

>  <SCORE>
-2.61725

>  <SCORE.INTER>
-1.82883

>  <SCORE.INTER.CONST>
1

>  <SCORE.INTER.POLAR>
0

>  <SCORE.INTER.ROT>
13

>  <SCORE.INTER.SOLV>
12.7167

>  <SCORE.INTER.VDW>
-17.7248

>  <SCORE.INTER.norm>
-0.0522523

>  <SCORE.INTRA>
-1.61528

>  <SCORE.INTRA.DIHEDRAL>
-9.71737

>  <SCORE.INTRA.DIHEDRAL.0>
23.8882

>  <SCORE.INTRA.POLAR>
0

>  <SCORE.INTRA.POLAR.0>
0

>  <SCORE.INTRA.REPUL>
0

>  <SCORE.INTRA.REPUL.0>
0

>  <SCORE.INTRA.SOLV>
3.74857

>  <SCORE.INTRA.SOLV.lig_0>
-97.6888

>  <SCORE.INTRA.VDW>
1.36912

>  <SCORE.INTRA.VDW.0>
-3.9206

>  <SCORE.INTRA.norm>
-0.0461508

>  <SCORE.RESTR>
0.826861

>  <SCORE.RESTR.CAVITY>
0.826861

>  <SCORE.RESTR.norm>
0.0236246

>  <SCORE.SYSTEM>
0

>  <SCORE.SYSTEM.CONST>
0

>  <SCORE.SYSTEM.DIHEDRAL>
0

>  <SCORE.SYSTEM.SOLV>
0

>  <SCORE.SYSTEM.norm>
0

>  <SCORE.heavy>
35

>  <SCORE.norm>
-0.0747785

>  <RMSD>
29.962

$$$$
2f4t_lig
 OpenBabel11021811433D
libRbt.so/2013.1/901 2013/11/27
 35 36  0  0  0  0  0  0  0  0999 V2000
   11.8486   13.9096    9.7087 C   0  0  2  0  0  0  0  0  0  0  0  0
   11.2177   14.1356    8.4056 O   0  0  0  0  0  0  0  0  0  0  0  0
    7.3247   12.3420    8.9398 C   0  0  2  0  0  0  0  0  0  0  0  0
    5.8806   12.1043    8.7960 N   0  0  0  0  0  0  0  0  0  0  0  0
   12.7089   15.1784    9.9909 C   0  0  2  0  0  0  0  0  0  0  0  0
   11.8929   16.3688    9.9408 N   0  0  0  0  0  0  0  0  0  0  0  0
    7.5688   13.8542    9.2966 C   0  0  0  0  0  0  0  0  0  0  0  0
    5.3509   10.9340   10.0078 C   0  0  0  0  0  0  0  0  0  0  0  0
    3.9694   11.1087    9.4170 C   0  0  1  0  0  0  0  0  0  0  0  0
    3.5552    9.7676    8.8071 C   0  0  0  0  0  0  0  0  0  0  0  0
    4.4503    9.2491    7.6691 C   0  0  0  0  0  0  0  0  0  0  0  0
    4.0766    7.8608    7.3825 N   0  0  0  0  0  0  0  0  0  0  0  0
    3.0260   11.3828   10.4195 O   0  0  0  0  0  0  0  0  0  0  0  0
    7.7415    9.2622    7.4756 C   0  0  0  0  0  0  0  0  0  0  0  0
    9.0426    8.7582    8.0810 C   0  0  0  0  0  0  0  0  0  0  0  0
   13.8845   15.2712    8.9606 C   0  0  1  0  0  0  0  0  0  0  0  0
   10.2327    9.0517    7.2526 N   0  0  0  0  0  0  0  0  0  0  0  0
   14.6811   16.4146    9.2024 O   0  0  0  0  0  0  0  0  0  0  0  0
    9.0627   14.1720    9.4505 C   0  0  2  0  0  0  0  0  0  0  0  0
    9.2657   15.5878    9.7410 N   0  0  0  0  0  0  0  0  0  0  0  0
   12.6163    8.6453    6.6325 C   0  0  0  0  0  0  0  0  0  0  0  0
   12.2175    7.5338    5.6090 N   0  0  0  0  0  0  0  0  0  0  0  0
   11.5992    8.8162    7.7993 C   0  0  0  0  0  0  0  0  0  0  0  0
    5.8383   10.3851   10.7827 O   0  0  0  0  0  0  0  0  0  0  0  0
   14.7210   13.9929    9.0777 C   0  0  2  0  0  0  0  0  0  0  0  0
   15.8155   14.0175    8.1758 O   0  0  0  0  0  0  0  0  0  0  0  0
    9.8095   13.8157    8.1894 C   0  0  2  0  0  0  0  0  0  0  0  0
   13.8272   12.7478    8.8093 C   0  0  2  0  0  0  0  0  0  0  0  0
   12.7093   12.7044    9.7203 O   0  0  0  0  0  0  0  0  0  0  0  0
    9.5928   12.2809    7.8396 C   0  0  2  0  0  0  0  0  0  0  0  0
   10.3327   11.9719    6.6205 O   0  0  0  0  0  0  0  0  0  0  0  0
   14.5869   11.4818    8.9401 C   0  0  0  0  0  0  0  0  0  0  0  0
   13.7331   10.4363    8.8785 N   0  0  0  0  0  0  0  0  0  0  0  0
    8.0607   12.0207    7.6297 C   0  0  1  0  0  0  0  0  0  0  0  0
    7.8400   10.6881    7.2934 O   0  0  0  0  0  0  0  0  0  0  0  0
  1  2  1  6  0  0  0
  1  5  1  0  0  0  0
  1 29  1  0  0  0  0
  3  4  1  6  0  0  0
  3  7  1  0  0  0  0
  3 34  1  0  0  0  0
  5  6  1  6  0  0  0
  5 16  1  0  0  0  0
  7 19  1  0  0  0  0
  8  4  1  0  0  0  0
  8 24  2  0  0  0  0
  9  8  1  1  0  0  0
  9 10  1  0  0  0  0
  9 13  1  0  0  0  0
 10 11  1  0  0  0  0
 11 12  1  0  0  0  0
 14 15  1  0  0  0  0
 14 35  1  0  0  0  0
 15 17  1  0  0  0  0
 16 18  1  1  0  0  0
 16 25  1  0  0  0  0
 19 20  1  6  0  0  0
 19 27  1  0  0  0  0
 21 22  1  0  0  0  0
 21 23  1  0  0  0  0
 23 17  1  0  0  0  0
 25 26  1  6  0  0  0
 25 28  1  0  0  0  0
 27  2  1  1  0  0  0
 27 30  1  0  0  0  0
 28 29  1  0  0  0  0
 28 32  1  1  0  0  0
 30 31  1  6  0  0  0
 30 34  1  0  0  0  0
 32 33  2  0  0  0  0
 34 35  1  1  0  0  0
M  END
>  <CHROM.1>
-136.33287975,-118.00167704,115.52119449,-61.35056407,169.17219180,-58.80075217
-53.34506946,170.46789049,-54.55836869,157.60389507,37.53271365,171.73225421
-47.08528515,9.72325183,11.94830137,8.59233093,0.37645945,0.14549054,0.38646619

>  <Name>
2f4t_lig

>  <RI>
0

>  <Rbt.Current_Directory>
/home/itssahil/PROJECTS/Mol_Feturizer/New_Systems/rnas/2f4t

>  <Rbt.Executable>
rbdock ($Id: //depot/dev/client3/rdock/2013.1/src/exe/rbdock.cxx#4 $)

>  <Rbt.Library>
libRbt.so (2013.1, Build901 2013/11/27)

>  <Rbt.Parameter_File>
/export/apps/rDock/src/rDock_2013.1_src/data/scripts/dock_solv.prm

>  <Rbt.Receptor>
prm/blind_docking_80.prm

>  <SCORE>
0.460405

>  <SCORE.INTER>
-0.12687

>  <SCORE.INTER.CONST>
1

>  <SCORE.INTER.POLAR>
-1.28113

>  <SCORE.INTER.ROT>
13

>  <SCORE.INTER.SOLV>
14.1293

>  <SCORE.INTER.VDW>
-12.7906

>  <SCORE.INTER.norm>
-0.00362485

>  <SCORE.INTRA>
-1.53777

>  <SCORE.INTRA.DIHEDRAL>
-8.27897

>  <SCORE.INTRA.DIHEDRAL.0>
23.8882

>  <SCORE.INTRA.POLAR>
0

>  <SCORE.INTRA.POLAR.0>
0

>  <SCORE.INTRA.REPUL>
0

>  <SCORE.INTRA.REPUL.0>
0

>  <SCORE.INTRA.SOLV>
6.78075

>  <SCORE.INTRA.SOLV.lig_0>
-97.6888

>  <SCORE.INTRA.VDW>
-0.788663

>  <SCORE.INTRA.VDW.0>
-3.9206

>  <SCORE.INTRA.norm>
-0.0439363

>  <SCORE.RESTR>
2.12505

>  <SCORE.RESTR.CAVITY>
2.12505

>  <SCORE.RESTR.norm>
0.0607156

>  <SCORE.SYSTEM>
0

>  <SCORE.SYSTEM.CONST>
0

>  <SCORE.SYSTEM.DIHEDRAL>
0

>  <SCORE.SYSTEM.SOLV>
0

>  <SCORE.SYSTEM.norm>
0

>  <SCORE.heavy>
35

>  <SCORE.norm>
0.0131544

>  <RMSD>
29.965

$$$$
2f4t_lig
 OpenBabel11021811433D
libRbt.so/2013.1/901 2013/11/27
 35 36  0  0  0  0  0  0  0  0999 V2000
   11.1053   15.9179    9.2380 C   0  0  2  0  0  0  0  0  0  0  0  0
   10.3303   15.4139    8.1010 O   0  0  0  0  0  0  0  0  0  0  0  0
    8.0241   12.2341    9.8976 C   0  0  2  0  0  0  0  0  0  0  0  0
    6.9143   11.3020   10.1470 N   0  0  0  0  0  0  0  0  0  0  0  0
   12.5034   16.2998    8.6644 C   0  0  2  0  0  0  0  0  0  0  0  0
   12.3693   17.2519    7.5868 N   0  0  0  0  0  0  0  0  0  0  0  0
    7.4667   13.7041    9.8511 C   0  0  0  0  0  0  0  0  0  0  0  0
    5.8776   11.2223    8.7195 C   0  0  0  0  0  0  0  0  0  0  0  0
    5.0522   10.2286    9.5066 C   0  0  1  0  0  0  0  0  0  0  0  0
    4.0626    9.5795    8.5363 C   0  0  0  0  0  0  0  0  0  0  0  0
    4.6707    9.0246    7.2373 C   0  0  0  0  0  0  0  0  0  0  0  0
    5.5443    7.8982    7.5795 N   0  0  0  0  0  0  0  0  0  0  0  0
    5.8541    9.1846    9.9936 O   0  0  0  0  0  0  0  0  0  0  0  0
   10.0491    9.5178    8.9278 C   0  0  0  0  0  0  0  0  0  0  0  0
   11.4269    9.7703    8.3351 C   0  0  0  0  0  0  0  0  0  0  0  0
   13.2535   15.0150    8.1756 C   0  0  1  0  0  0  0  0  0  0  0  0
   12.1873    8.5318    8.0582 N   0  0  0  0  0  0  0  0  0  0  0  0
   14.5280   15.3395    7.6551 O   0  0  0  0  0  0  0  0  0  0  0  0
    8.5773   14.7291    9.5825 C   0  0  2  0  0  0  0  0  0  0  0  0
    8.0299   16.0798    9.5035 N   0  0  0  0  0  0  0  0  0  0  0  0
   10.6267    7.8863    6.2200 C   0  0  0  0  0  0  0  0  0  0  0  0
   11.4041    8.7280    5.1574 N   0  0  0  0  0  0  0  0  0  0  0  0
   11.5187    7.3787    7.3913 C   0  0  0  0  0  0  0  0  0  0  0  0
    5.8852   11.6915    7.7609 O   0  0  0  0  0  0  0  0  0  0  0  0
   13.3813   14.0580    9.3652 C   0  0  2  0  0  0  0  0  0  0  0  0
   14.0660   12.8730    8.9927 O   0  0  0  0  0  0  0  0  0  0  0  0
    9.2880   14.4092    8.2912 C   0  0  2  0  0  0  0  0  0  0  0  0
   11.9702   13.7143    9.9234 C   0  0  2  0  0  0  0  0  0  0  0  0
   11.2594   14.9086   10.3108 O   0  0  0  0  0  0  0  0  0  0  0  0
    9.8812   12.9360    8.3429 C   0  0  2  0  0  0  0  0  0  0  0  0
   10.5649   12.6644    7.0828 O   0  0  0  0  0  0  0  0  0  0  0  0
   12.0431   12.8117   11.0969 C   0  0  0  0  0  0  0  0  0  0  0  0
   11.9443   11.5287   10.6847 N   0  0  0  0  0  0  0  0  0  0  0  0
    8.7031   11.9229    8.5548 C   0  0  1  0  0  0  0  0  0  0  0  0
    9.1877   10.6181    8.5763 O   0  0  0  0  0  0  0  0  0  0  0  0
  1  2  1  6  0  0  0
  1  5  1  0  0  0  0
  1 29  1  0  0  0  0
  3  4  1  6  0  0  0
  3  7  1  0  0  0  0
  3 34  1  0  0  0  0
  5  6  1  6  0  0  0
  5 16  1  0  0  0  0
  7 19  1  0  0  0  0
  8  4  1  0  0  0  0
  8 24  2  0  0  0  0
  9  8  1  6  0  0  0
  9 10  1  0  0  0  0
  9 13  1  0  0  0  0
 10 11  1  0  0  0  0
 11 12  1  0  0  0  0
 14 15  1  0  0  0  0
 14 35  1  0  0  0  0
 15 17  1  0  0  0  0
 16 18  1  1  0  0  0
 16 25  1  0  0  0  0
 19 20  1  6  0  0  0
 19 27  1  0  0  0  0
 21 22  1  0  0  0  0
 21 23  1  0  0  0  0
 23 17  1  0  0  0  0
 25 26  1  6  0  0  0
 25 28  1  0  0  0  0
 27  2  1  1  0  0  0
 27 30  1  0  0  0  0
 28 29  1  0  0  0  0
 28 32  1  1  0  0  0
 30 31  1  6  0  0  0
 30 34  1  0  0  0  0
 32 33  2  0  0  0  0
 34 35  1  1  0  0  0
M  END
>  <CHROM.1>
150.22992559,70.27683736,-168.65843322,50.31860215,66.28374078,-152.88452626
-66.18677391,45.04540594,56.66555592,42.75412214,38.20524771,-92.75865511
-73.41239080,9.71828849,12.17015996,8.64135991,0.73294664,0.14050325,0.23894404

>  <Name>
2f4t_lig

>  <RI>
0

>  <Rbt.Current_Directory>
/home/itssahil/PROJECTS/Mol_Feturizer/New_Systems/rnas/2f4t

>  <Rbt.Executable>
rbdock ($Id: //depot/dev/client3/rdock/2013.1/src/exe/rbdock.cxx#4 $)

>  <Rbt.Library>
libRbt.so (2013.1, Build901 2013/11/27)

>  <Rbt.Parameter_File>
/export/apps/rDock/src/rDock_2013.1_src/data/scripts/dock_solv.prm

>  <Rbt.Receptor>
prm/blind_docking_100.prm

>  <SCORE>
3.66774

>  <SCORE.INTER>
-0.255916

>  <SCORE.INTER.CONST>
1

>  <SCORE.INTER.POLAR>
-0.916515

>  <SCORE.INTER.ROT>
13

>  <SCORE.INTER.SOLV>
13.9218

>  <SCORE.INTER.VDW>
-14.0228

>  <SCORE.INTER.norm>
-0.00731188

>  <SCORE.INTRA>
3.33519

>  <SCORE.INTRA.DIHEDRAL>
-11.7008

>  <SCORE.INTRA.DIHEDRAL.0>
23.8882

>  <SCORE.INTRA.POLAR>
0

>  <SCORE.INTRA.POLAR.0>
0

>  <SCORE.INTRA.REPUL>
0

>  <SCORE.INTRA.REPUL.0>
0

>  <SCORE.INTRA.SOLV>
7.80229

>  <SCORE.INTRA.SOLV.lig_0>
-97.6888

>  <SCORE.INTRA.VDW>
5.28447

>  <SCORE.INTRA.VDW.0>
-3.9206

>  <SCORE.INTRA.norm>
0.0952912

>  <SCORE.RESTR>
0.588462

>  <SCORE.RESTR.CAVITY>
0.588462

>  <SCORE.RESTR.norm>
0.0168132

>  <SCORE.SYSTEM>
0

>  <SCORE.SYSTEM.CONST>
0

>  <SCORE.SYSTEM.DIHEDRAL>
0

>  <SCORE.SYSTEM.SOLV>
0

>  <SCORE.SYSTEM.norm>
0

>  <SCORE.heavy>
35

>  <SCORE.norm>
0.104793

>  <RMSD>
29.969

$$$$
2f4t_lig
 OpenBabel11021811433D
libRbt.so/2013.1/901 2013/11/27
 35 36  0  0  0  0  0  0  0  0999 V2000
    6.1517   12.6072    8.2231 C   0  0  2  0  0  0  0  0  0  0  0  0
    6.4958   12.7595    9.6393 O   0  0  0  0  0  0  0  0  0  0  0  0
   10.5696   14.1730    9.3869 C   0  0  2  0  0  0  0  0  0  0  0  0
   11.8344   14.8200    9.7667 N   0  0  0  0  0  0  0  0  0  0  0  0
    4.6787   12.0981    8.1954 C   0  0  2  0  0  0  0  0  0  0  0  0
    3.8118   13.0071    8.9079 N   0  0  0  0  0  0  0  0  0  0  0  0
    9.3826   15.1788    9.6171 C   0  0  0  0  0  0  0  0  0  0  0  0
   13.1393   14.2124    8.7435 C   0  0  0  0  0  0  0  0  0  0  0  0
   14.0399   15.1454    9.5225 C   0  0  1  0  0  0  0  0  0  0  0  0
   15.4678   14.6055    9.4146 C   0  0  0  0  0  0  0  0  0  0  0  0
   16.1822   14.8744    8.0795 C   0  0  0  0  0  0  0  0  0  0  0  0
   15.5300   14.0765    7.0369 N   0  0  0  0  0  0  0  0  0  0  0  0
   14.0662   16.4214    8.9381 O   0  0  0  0  0  0  0  0  0  0  0  0
   12.2271   11.0839    9.3760 C   0  0  0  0  0  0  0  0  0  0  0  0
   11.3873    9.8894    8.9502 C   0  0  0  0  0  0  0  0  0  0  0  0
    4.5949   10.6600    8.8096 C   0  0  1  0  0  0  0  0  0  0  0  0
   11.0917    9.8610    7.5009 N   0  0  0  0  0  0  0  0  0  0  0  0
    3.2657   10.1771    8.7896 O   0  0  0  0  0  0  0  0  0  0  0  0
    8.0275   14.5590    9.2484 C   0  0  2  0  0  0  0  0  0  0  0  0
    6.9392   15.4961    9.5087 N   0  0  0  0  0  0  0  0  0  0  0  0
   11.5701    7.5119    6.8050 C   0  0  0  0  0  0  0  0  0  0  0  0
   10.0606    7.1731    6.5846 N   0  0  0  0  0  0  0  0  0  0  0  0
   11.9124    9.0156    6.5881 C   0  0  0  0  0  0  0  0  0  0  0  0
   13.1995   13.5033    7.9482 O   0  0  0  0  0  0  0  0  0  0  0  0
    5.5173    9.7430    7.9996 C   0  0  2  0  0  0  0  0  0  0  0  0
    5.4790    8.4156    8.4979 O   0  0  0  0  0  0  0  0  0  0  0  0
    7.7921   13.2979   10.0416 C   0  0  2  0  0  0  0  0  0  0  0  0
    6.9730   10.2914    8.0332 C   0  0  2  0  0  0  0  0  0  0  0  0
    7.0319   11.6410    7.5266 O   0  0  0  0  0  0  0  0  0  0  0  0
    8.9721   12.2640    9.7896 C   0  0  2  0  0  0  0  0  0  0  0  0
    8.7081   11.0572   10.5662 O   0  0  0  0  0  0  0  0  0  0  0  0
    7.8999    9.4520    7.2374 C   0  0  0  0  0  0  0  0  0  0  0  0
    8.1728   10.0687    6.0666 N   0  0  0  0  0  0  0  0  0  0  0  0
   10.3240   12.9188   10.2400 C   0  0  1  0  0  0  0  0  0  0  0  0
   11.3761   12.0257   10.0578 O   0  0  0  0  0  0  0  0  0  0  0  0
  1  2  1  1  0  0  0
  1  5  1  0  0  0  0
  1 29  1  0  0  0  0
  3  4  1  1  0  0  0
  3  7  1  0  0  0  0
  3 34  1  0  0  0  0
  5  6  1  1  0  0  0
  5 16  1  0  0  0  0
  7 19  1  0  0  0  0
  8  4  1  0  0  0  0
  8 24  2  0  0  0  0
  9  8  1  6  0  0  0
  9 10  1  0  0  0  0
  9 13  1  0  0  0  0
 10 11  1  0  0  0  0
 11 12  1  0  0  0  0
 14 15  1  0  0  0  0
 14 35  1  0  0  0  0
 15 17  1  0  0  0  0
 16 18  1  6  0  0  0
 16 25  1  0  0  0  0
 19 20  1  1  0  0  0
 19 27  1  0  0  0  0
 21 22  1  0  0  0  0
 21 23  1  0  0  0  0
 23 17  1  0  0  0  0
 25 26  1  1  0  0  0
 25 28  1  0  0  0  0
 27  2  1  6  0  0  0
 27 30  1  0  0  0  0
 28 29  1  0  0  0  0
 28 32  1  6  0  0  0
 30 31  1  1  0  0  0
 30 34  1  0  0  0  0
 32 33  2  0  0  0  0
 34 35  1  6  0  0  0
M  END
>  <CHROM.1>
-176.48059245,-147.71522605,156.61227735,77.00916446,-68.77883277,105.37752909
-60.64356930,98.17126250,57.71147858,72.47583601,48.73955739,103.66097266
-68.37240800,9.53638372,12.10070850,8.62322193,2.76390200,-0.10456550,-2.79633568

>  <Name>
2f4t_lig

>  <RI>
0

>  <Rbt.Current_Directory>
/home/itssahil/PROJECTS/Mol_Feturizer/New_Systems/rnas/2f4t

>  <Rbt.Executable>
rbdock ($Id: //depot/dev/client3/rdock/2013.1/src/exe/rbdock.cxx#4 $)

>  <Rbt.Library>
libRbt.so (2013.1, Build901 2013/11/27)

>  <Rbt.Parameter_File>
/export/apps/rDock/src/rDock_2013.1_src/data/scripts/dock_solv.prm

>  <Rbt.Receptor>
prm/blind_docking_40.prm

>  <SCORE>
3.78051

>  <SCORE.INTER>
2.95517

>  <SCORE.INTER.CONST>
1

>  <SCORE.INTER.POLAR>
0

>  <SCORE.INTER.ROT>
13

>  <SCORE.INTER.SOLV>
6.21546

>  <SCORE.INTER.VDW>
-12.3684

>  <SCORE.INTER.norm>
0.0844335

>  <SCORE.INTRA>
-1.34456

>  <SCORE.INTRA.DIHEDRAL>
-12.854

>  <SCORE.INTRA.DIHEDRAL.0>
23.8882

>  <SCORE.INTRA.POLAR>
0

>  <SCORE.INTRA.POLAR.0>
0

>  <SCORE.INTRA.REPUL>
0

>  <SCORE.INTRA.REPUL.0>
0

>  <SCORE.INTRA.SOLV>
9.64949

>  <SCORE.INTRA.SOLV.lig_0>
-97.6888

>  <SCORE.INTRA.VDW>
0.257702

>  <SCORE.INTRA.VDW.0>
-3.9206

>  <SCORE.INTRA.norm>
-0.0384159

>  <SCORE.RESTR>
2.16989

>  <SCORE.RESTR.CAVITY>
2.16989

>  <SCORE.RESTR.norm>
0.0619969

>  <SCORE.SYSTEM>
0

>  <SCORE.SYSTEM.CONST>
0

>  <SCORE.SYSTEM.DIHEDRAL>
0

>  <SCORE.SYSTEM.SOLV>
0

>  <SCORE.SYSTEM.norm>
0

>  <SCORE.heavy>
35

>  <SCORE.norm>
0.108014

>  <RMSD>
29.976

$$$$
2f4t_lig
 OpenBabel11021811433D
libRbt.so/2013.1/901 2013/11/27
 35 36  0  0  0  0  0  0  0  0999 V2000
   11.7522   15.3440   10.0183 C   0  0  2  0  0  0  0  0  0  0  0  0
   11.0073   15.4471    8.7607 O   0  0  0  0  0  0  0  0  0  0  0  0
    7.7155   12.7059    9.3147 C   0  0  2  0  0  0  0  0  0  0  0  0
    6.3552   12.1499    9.2596 N   0  0  0  0  0  0  0  0  0  0  0  0
   13.2354   15.6649    9.6621 C   0  0  2  0  0  0  0  0  0  0  0  0
   13.3393   16.9599    9.0315 N   0  0  0  0  0  0  0  0  0  0  0  0
    7.6576   14.1616    9.9071 C   0  0  0  0  0  0  0  0  0  0  0  0
    6.4029   10.4305    9.6596 C   0  0  0  0  0  0  0  0  0  0  0  0
    4.9031   10.4530    9.4640 C   0  0  1  0  0  0  0  0  0  0  0  0
    4.6130    9.9228    8.0581 C   0  0  0  0  0  0  0  0  0  0  0  0
    4.7084    8.3972    7.8891 C   0  0  0  0  0  0  0  0  0  0  0  0
    6.1127    8.0024    8.0345 N   0  0  0  0  0  0  0  0  0  0  0  0
    4.2685    9.5662   10.3478 O   0  0  0  0  0  0  0  0  0  0  0  0
    7.8907   10.2887    6.7351 C   0  0  0  0  0  0  0  0  0  0  0  0
    8.8989    9.1745    6.9710 C   0  0  0  0  0  0  0  0  0  0  0  0
   13.8184   14.5491    8.7307 C   0  0  1  0  0  0  0  0  0  0  0  0
   10.2725    9.5201    6.5442 N   0  0  0  0  0  0  0  0  0  0  0  0
   15.1665   14.8192    8.3990 O   0  0  0  0  0  0  0  0  0  0  0  0
    9.0494   14.8049    9.9818 C   0  0  2  0  0  0  0  0  0  0  0  0
    8.9649   16.1683   10.4959 N   0  0  0  0  0  0  0  0  0  0  0  0
   12.6443   10.1802    6.9572 C   0  0  0  0  0  0  0  0  0  0  0  0
   13.1303    8.7200    6.6862 N   0  0  0  0  0  0  0  0  0  0  0  0
   11.1749   10.2668    7.4659 C   0  0  0  0  0  0  0  0  0  0  0  0
    7.1773    9.7421    9.9158 O   0  0  0  0  0  0  0  0  0  0  0  0
   13.6982   13.2085    9.4626 C   0  0  2  0  0  0  0  0  0  0  0  0
   14.2223   12.1512    8.6756 O   0  0  0  0  0  0  0  0  0  0  0  0
    9.6909   14.8319    8.6170 C   0  0  2  0  0  0  0  0  0  0  0  0
   12.2093   12.9305    9.8191 C   0  0  2  0  0  0  0  0  0  0  0  0
   11.6597   13.9951   10.6228 O   0  0  0  0  0  0  0  0  0  0  0  0
    9.7813   13.3600    8.0251 C   0  0  2  0  0  0  0  0  0  0  0  0
   10.4110   13.4243    6.7104 O   0  0  0  0  0  0  0  0  0  0  0  0
   12.0447   11.6550   10.5561 C   0  0  0  0  0  0  0  0  0  0  0  0
   12.1858   11.8794   11.8810 N   0  0  0  0  0  0  0  0  0  0  0  0
    8.3326   12.7710    7.9089 C   0  0  1  0  0  0  0  0  0  0  0  0
    8.3754   11.4899    7.3660 O   0  0  0  0  0  0  0  0  0  0  0  0
  1  2  1  6  0  0  0
  1  5  1  0  0  0  0
  1 29  1  0  0  0  0
  3  4  1  6  0  0  0
  3  7  1  0  0  0  0
  3 34  1  0  0  0  0
  5  6  1  6  0  0  0
  5 16  1  0  0  0  0
  7 19  1  0  0  0  0
  8  4  1  0  0  0  0
  8 24  2  0  0  0  0
  9  8  1  1  0  0  0
  9 10  1  0  0  0  0
  9 13  1  0  0  0  0
 10 11  1  0  0  0  0
 11 12  1  0  0  0  0
 14 15  1  0  0  0  0
 14 35  1  0  0  0  0
 15 17  1  0  0  0  0
 16 18  1  1  0  0  0
 16 25  1  0  0  0  0
 19 20  1  6  0  0  0
 19 27  1  0  0  0  0
 21 22  1  0  0  0  0
 21 23  1  0  0  0  0
 23 17  1  0  0  0  0
 25 26  1  6  0  0  0
 25 28  1  0  0  0  0
 27  2  1  1  0  0  0
 27 30  1  0  0  0  0
 28 29  1  0  0  0  0
 28 32  1  1  0  0  0
 30 31  1  6  0  0  0
 30 34  1  0  0  0  0
 32 33  2  0  0  0  0
 34 35  1  1  0  0  0
M  END
>  <CHROM.1>
161.26851620,-142.57591473,98.79012823,77.05041476,-68.31318149,-54.15707105
-162.48432716,84.95064857,-52.46290386,165.14478756,28.87187571,88.06978556
77.51827713,9.80804469,12.24783181,8.78399572,0.55749359,0.18115220,0.41003178

>  <Name>
2f4t_lig

>  <RI>
0

>  <Rbt.Current_Directory>
/home/itssahil/PROJECTS/Mol_Feturizer/New_Systems/rnas/2f4t

>  <Rbt.Executable>
rbdock ($Id: //depot/dev/client3/rdock/2013.1/src/exe/rbdock.cxx#4 $)

>  <Rbt.Library>
libRbt.so (2013.1, Build901 2013/11/27)

>  <Rbt.Parameter_File>
/export/apps/rDock/src/rDock_2013.1_src/data/scripts/dock_solv.prm

>  <Rbt.Receptor>
prm/blind_docking_100.prm

>  <SCORE>
-0.0719733

>  <SCORE.INTER>
-0.158758

>  <SCORE.INTER.CONST>
1

>  <SCORE.INTER.POLAR>
0

>  <SCORE.INTER.ROT>
13

>  <SCORE.INTER.SOLV>
9.74962

>  <SCORE.INTER.VDW>
-15.6224

>  <SCORE.INTER.norm>
-0.00453595

>  <SCORE.INTRA>
-0.64504

>  <SCORE.INTRA.DIHEDRAL>
-9.22587

>  <SCORE.INTRA.DIHEDRAL.0>
23.8882

>  <SCORE.INTRA.POLAR>
0

>  <SCORE.INTRA.POLAR.0>
0

>  <SCORE.INTRA.REPUL>
0

>  <SCORE.INTRA.REPUL.0>
0

>  <SCORE.INTRA.SOLV>
9.64699

>  <SCORE.INTRA.SOLV.lig_0>
-97.6888

>  <SCORE.INTRA.VDW>
-0.855602

>  <SCORE.INTRA.VDW.0>
-3.9206

>  <SCORE.INTRA.norm>
-0.0184297

>  <SCORE.RESTR>
0.731825

>  <SCORE.RESTR.CAVITY>
0.731825

>  <SCORE.RESTR.norm>
0.0209093

>  <SCORE.SYSTEM>
0

>  <SCORE.SYSTEM.CONST>
0

>  <SCORE.SYSTEM.DIHEDRAL>
0

>  <SCORE.SYSTEM.SOLV>
0

>  <SCORE.SYSTEM.norm>
0

>  <SCORE.heavy>
35

>  <SCORE.norm>
-0.00205638

>  <RMSD>
29.978

$$$$
2f4t_lig
 OpenBabel11021811433D
libRbt.so/2013.1/901 2013/11/27
 35 36  0  0  0  0  0  0  0  0999 V2000
    5.4486   12.0166    8.1654 C   0  0  2  0  0  0  0  0  0  0  0  0
    6.7728   11.6866    7.6315 O   0  0  0  0  0  0  0  0  0  0  0  0
   10.4507   13.9512    7.5909 C   0  0  2  0  0  0  0  0  0  0  0  0
   11.5904   14.7457    8.0731 N   0  0  0  0  0  0  0  0  0  0  0  0
    5.2830   11.1563    9.4546 C   0  0  2  0  0  0  0  0  0  0  0  0
    6.3613   11.4126   10.3803 N   0  0  0  0  0  0  0  0  0  0  0  0
    9.1124   14.6009    8.1010 C   0  0  0  0  0  0  0  0  0  0  0  0
   11.7995   14.4867    9.8074 C   0  0  0  0  0  0  0  0  0  0  0  0
   12.9707   15.4381    9.6995 C   0  0  1  0  0  0  0  0  0  0  0  0
   14.0284   14.7699    8.8182 C   0  0  0  0  0  0  0  0  0  0  0  0
   15.3721   15.5106    8.7133 C   0  0  0  0  0  0  0  0  0  0  0  0
   15.9731   15.5702   10.0491 N   0  0  0  0  0  0  0  0  0  0  0  0
   12.6008   16.6153    9.0307 O   0  0  0  0  0  0  0  0  0  0  0  0
   13.0229   11.3217    7.7846 C   0  0  0  0  0  0  0  0  0  0  0  0
   12.8841    9.9803    8.4881 C   0  0  0  0  0  0  0  0  0  0  0  0
    5.2241    9.6362    9.0831 C   0  0  1  0  0  0  0  0  0  0  0  0
   11.6514    9.2473    8.1254 N   0  0  0  0  0  0  0  0  0  0  0  0
    5.0691    8.8374   10.2399 O   0  0  0  0  0  0  0  0  0  0  0  0
    7.8801   13.8105    7.6393 C   0  0  2  0  0  0  0  0  0  0  0  0
    6.6543   14.4089    8.1584 N   0  0  0  0  0  0  0  0  0  0  0  0
   11.0552    7.1222    6.9592 C   0  0  0  0  0  0  0  0  0  0  0  0
   11.9727    7.3650    5.7177 N   0  0  0  0  0  0  0  0  0  0  0  0
   11.5941    7.7651    8.2713 C   0  0  0  0  0  0  0  0  0  0  0  0
   11.2920   13.9054   10.5447 O   0  0  0  0  0  0  0  0  0  0  0  0
    4.0516    9.4277    8.1190 C   0  0  2  0  0  0  0  0  0  0  0  0
    3.9333    8.0632    7.7505 O   0  0  0  0  0  0  0  0  0  0  0  0
    7.9666   12.3794    8.1079 C   0  0  2  0  0  0  0  0  0  0  0  0
    4.2403   10.3148    6.8547 C   0  0  2  0  0  0  0  0  0  0  0  0
    4.3595   11.7080    7.2103 O   0  0  0  0  0  0  0  0  0  0  0  0
    9.3019   11.7067    7.5700 C   0  0  2  0  0  0  0  0  0  0  0  0
    9.3483   10.3250    8.0367 O   0  0  0  0  0  0  0  0  0  0  0  0
    3.1137   10.1697    5.9026 C   0  0  0  0  0  0  0  0  0  0  0  0
    3.5476   10.4272    4.6492 N   0  0  0  0  0  0  0  0  0  0  0  0
   10.5310   12.5107    8.1195 C   0  0  1  0  0  0  0  0  0  0  0  0
   11.7195   11.9283    7.6881 O   0  0  0  0  0  0  0  0  0  0  0  0
  1  2  1  6  0  0  0
  1  5  1  0  0  0  0
  1 29  1  0  0  0  0
  3  4  1  1  0  0  0
  3  7  1  0  0  0  0
  3 34  1  0  0  0  0
  5  6  1  1  0  0  0
  5 16  1  0  0  0  0
  7 19  1  0  0  0  0
  8  4  1  0  0  0  0
  8 24  2  0  0  0  0
  9  8  1  6  0  0  0
  9 10  1  0  0  0  0
  9 13  1  0  0  0  0
 10 11  1  0  0  0  0
 11 12  1  0  0  0  0
 14 15  1  0  0  0  0
 14 35  1  0  0  0  0
 15 17  1  0  0  0  0
 16 18  1  1  0  0  0
 16 25  1  0  0  0  0
 19 20  1  1  0  0  0
 19 27  1  0  0  0  0
 21 22  1  0  0  0  0
 21 23  1  0  0  0  0
 23 17  1  0  0  0  0
 25 26  1  6  0  0  0
 25 28  1  0  0  0  0
 27  2  1  6  0  0  0
 27 30  1  0  0  0  0
 28 29  1  0  0  0  0
 28 32  1  6  0  0  0
 30 31  1  1  0  0  0
 30 34  1  0  0  0  0
 32 33  2  0  0  0  0
 34 35  1  6  0  0  0
M  END
>  <CHROM.1>
-85.74777422,72.49379991,-65.23406217,-173.32240859,62.43894635,37.46944812
65.11227415,156.14476047,62.89862116,-130.51233823,-67.94816208,-152.66536876
116.75822061,9.09525607,11.81940873,8.19470455,2.67918274,0.04918911,-2.93949619

>  <Name>
2f4t_lig

>  <RI>
0

>  <Rbt.Current_Directory>
/home/itssahil/PROJECTS/Mol_Feturizer/New_Systems/rnas/2f4t

>  <Rbt.Executable>
rbdock ($Id: //depot/dev/client3/rdock/2013.1/src/exe/rbdock.cxx#4 $)

>  <Rbt.Library>
libRbt.so (2013.1, Build901 2013/11/27)

>  <Rbt.Parameter_File>
/export/apps/rDock/src/rDock_2013.1_src/data/scripts/dock_solv.prm

>  <Rbt.Receptor>
prm/blind_docking_80.prm

>  <SCORE>
3.81652

>  <SCORE.INTER>
-2.32172

>  <SCORE.INTER.CONST>
1

>  <SCORE.INTER.POLAR>
-1.21898

>  <SCORE.INTER.ROT>
13

>  <SCORE.INTER.SOLV>
20.041

>  <SCORE.INTER.VDW>
-16.4316

>  <SCORE.INTER.norm>
-0.0663349

>  <SCORE.INTRA>
4.5411

>  <SCORE.INTRA.DIHEDRAL>
-7.63712

>  <SCORE.INTRA.DIHEDRAL.0>
23.8882

>  <SCORE.INTRA.POLAR>
0

>  <SCORE.INTRA.POLAR.0>
0

>  <SCORE.INTRA.REPUL>
0

>  <SCORE.INTRA.REPUL.0>
0

>  <SCORE.INTRA.SOLV>
8.13975

>  <SCORE.INTRA.SOLV.lig_0>
-97.6888

>  <SCORE.INTRA.VDW>
4.28978

>  <SCORE.INTRA.VDW.0>
-3.9206

>  <SCORE.INTRA.norm>
0.129746

>  <SCORE.RESTR>
1.59715

>  <SCORE.RESTR.CAVITY>
1.59715

>  <SCORE.RESTR.norm>
0.0456327

>  <SCORE.SYSTEM>
0

>  <SCORE.SYSTEM.CONST>
0

>  <SCORE.SYSTEM.DIHEDRAL>
0

>  <SCORE.SYSTEM.SOLV>
0

>  <SCORE.SYSTEM.norm>
0

>  <SCORE.heavy>
35

>  <SCORE.norm>
0.109043

>  <RMSD>
29.982

$$$$
2f4t_lig
 OpenBabel11021811433D
libRbt.so/2013.1/901 2013/11/27
 35 36  0  0  0  0  0  0  0  0999 V2000
    5.6477   11.3613    7.4263 C   0  0  2  0  0  0  0  0  0  0  0  0
    5.8851   11.8177    8.7984 O   0  0  0  0  0  0  0  0  0  0  0  0
    9.6652   13.8717    8.4123 C   0  0  2  0  0  0  0  0  0  0  0  0
   10.7553   14.8226    8.6773 N   0  0  0  0  0  0  0  0  0  0  0  0
    4.4508   10.3663    7.5097 C   0  0  2  0  0  0  0  0  0  0  0  0
    3.3033   10.9991    8.1167 N   0  0  0  0  0  0  0  0  0  0  0  0
    8.3079   14.6575    8.2957 C   0  0  0  0  0  0  0  0  0  0  0  0
   12.1685   14.3850    7.7128 C   0  0  0  0  0  0  0  0  0  0  0  0
   12.8378   15.5855    8.3445 C   0  0  1  0  0  0  0  0  0  0  0  0
   13.8812   15.0641    9.3351 C   0  0  0  0  0  0  0  0  0  0  0  0
   14.9638   14.1477    8.7409 C   0  0  0  0  0  0  0  0  0  0  0  0
   15.7533   13.5894    9.8427 N   0  0  0  0  0  0  0  0  0  0  0  0
   13.5515   16.3235    7.3873 O   0  0  0  0  0  0  0  0  0  0  0  0
   11.7260   11.2733   10.2579 C   0  0  0  0  0  0  0  0  0  0  0  0
   12.8510   11.0699    9.2547 C   0  0  0  0  0  0  0  0  0  0  0  0
    4.8676    9.0898    8.3154 C   0  0  1  0  0  0  0  0  0  0  0  0
   12.4658   10.2352    8.0956 N   0  0  0  0  0  0  0  0  0  0  0  0
    3.7958    8.1708    8.3989 O   0  0  0  0  0  0  0  0  0  0  0  0
    7.1236   13.7179    8.0289 C   0  0  2  0  0  0  0  0  0  0  0  0
    5.8714   14.4651    7.9654 N   0  0  0  0  0  0  0  0  0  0  0  0
   12.9079    8.5438    6.3138 C   0  0  0  0  0  0  0  0  0  0  0  0
   12.0039    9.0748    5.1550 N   0  0  0  0  0  0  0  0  0  0  0  0
   13.5154    9.6707    7.2006 C   0  0  0  0  0  0  0  0  0  0  0  0
   12.3877   13.6080    7.0147 O   0  0  0  0  0  0  0  0  0  0  0  0
    6.0719    8.4559    7.6115 C   0  0  2  0  0  0  0  0  0  0  0  0
    6.4946    7.2820    8.2861 O   0  0  0  0  0  0  0  0  0  0  0  0
    7.0219   12.6773    9.1159 C   0  0  2  0  0  0  0  0  0  0  0  0
    7.2387    9.4820    7.5291 C   0  0  2  0  0  0  0  0  0  0  0  0
    6.8275   10.6825    6.8426 O   0  0  0  0  0  0  0  0  0  0  0  0
    8.3795   11.8579    9.2186 C   0  0  2  0  0  0  0  0  0  0  0  0
    8.2423   10.8591   10.2734 O   0  0  0  0  0  0  0  0  0  0  0  0
    8.4194    8.9235    6.8285 C   0  0  0  0  0  0  0  0  0  0  0  0
    9.0695    9.9154    6.1812 N   0  0  0  0  0  0  0  0  0  0  0  0
    9.5460   12.8507    9.5545 C   0  0  1  0  0  0  0  0  0  0  0  0
   10.7471   12.1582    9.6792 O   0  0  0  0  0  0  0  0  0  0  0  0
  1  2  1  1  0  0  0
  1  5  1  0  0  0  0
  1 29  1  0  0  0  0
  3  4  1  1  0  0  0
  3  7  1  0  0  0  0
  3 34  1  0  0  0  0
  5  6  1  1  0  0  0
  5 16  1  0  0  0  0
  7 19  1  0  0  0  0
  8  4  1  0  0  0  0
  8 24  2  0  0  0  0
  9  8  1  6  0  0  0
  9 10  1  0  0  0  0
  9 13  1  0  0  0  0
 10 11  1  0  0  0  0
 11 12  1  0  0  0  0
 14 15  1  0  0  0  0
 14 35  1  0  0  0  0
 15 17  1  0  0  0  0
 16 18  1  6  0  0  0
 16 25  1  0  0  0  0
 19 20  1  1  0  0  0
 19 27  1  0  0  0  0
 21 22  1  0  0  0  0
 21 23  1  0  0  0  0
 23 17  1  0  0  0  0
 25 26  1  1  0  0  0
 25 28  1  0  0  0  0
 27  2  1  6  0  0  0
 27 30  1  0  0  0  0
 28 29  1  0  0  0  0
 28 32  1  6  0  0  0
 30 31  1  1  0  0  0
 30 34  1  0  0  0  0
 32 33  2  0  0  0  0
 34 35  1  6  0  0  0
M  END
>  <CHROM.1>
174.47502294,-138.23608824,108.24639636,58.16334221,-171.91225745,-71.68774970
170.61579193,-165.30344788,74.63167249,164.78092048,42.43075297,148.51598420
170.46070408,9.39623639,11.72686904,8.17106046,2.70348979,-0.04738664,-2.92500309

>  <Name>
2f4t_lig

>  <RI>
0

>  <Rbt.Current_Directory>
/home/itssahil/PROJECTS/Mol_Feturizer/New_Systems/rnas/2f4t

>  <Rbt.Executable>
rbdock ($Id: //depot/dev/client3/rdock/2013.1/src/exe/rbdock.cxx#4 $)

>  <Rbt.Library>
libRbt.so (2013.1, Build901 2013/11/27)

>  <Rbt.Parameter_File>
/export/apps/rDock/src/rDock_2013.1_src/data/scripts/dock_solv.prm

>  <Rbt.Receptor>
prm/blind_docking_80.prm

>  <SCORE>
-3.33894

>  <SCORE.INTER>
-1.15118

>  <SCORE.INTER.CONST>
1

>  <SCORE.INTER.POLAR>
-0.856063

>  <SCORE.INTER.ROT>
13

>  <SCORE.INTER.SOLV>
15.4056

>  <SCORE.INTER.VDW>
-15.3158

>  <SCORE.INTER.norm>
-0.0328908

>  <SCORE.INTRA>
-6.40261

>  <SCORE.INTRA.DIHEDRAL>
-15.0919

>  <SCORE.INTRA.DIHEDRAL.0>
23.8882

>  <SCORE.INTRA.POLAR>
0

>  <SCORE.INTRA.POLAR.0>
0

>  <SCORE.INTRA.REPUL>
0

>  <SCORE.INTRA.REPUL.0>
0

>  <SCORE.INTRA.SOLV>
4.53022

>  <SCORE.INTRA.SOLV.lig_0>
-97.6888

>  <SCORE.INTRA.VDW>
-1.12179

>  <SCORE.INTRA.VDW.0>
-3.9206

>  <SCORE.INTRA.norm>
-0.182932

>  <SCORE.RESTR>
4.21485

>  <SCORE.RESTR.CAVITY>
4.21485

>  <SCORE.RESTR.norm>
0.120424

>  <SCORE.SYSTEM>
0

>  <SCORE.SYSTEM.CONST>
0

>  <SCORE.SYSTEM.DIHEDRAL>
0

>  <SCORE.SYSTEM.SOLV>
0

>  <SCORE.SYSTEM.norm>
0

>  <SCORE.heavy>
35

>  <SCORE.norm>
-0.0953983

>  <RMSD>
29.988

$$$$
2f4t_lig
 OpenBabel11021811433D
libRbt.so/2013.1/901 2013/11/27
 35 36  0  0  0  0  0  0  0  0999 V2000
   11.6978   14.3288    9.9671 C   0  0  2  0  0  0  0  0  0  0  0  0
   10.9973   14.6117    8.7115 O   0  0  0  0  0  0  0  0  0  0  0  0
    7.7090   11.8118    8.7746 C   0  0  2  0  0  0  0  0  0  0  0  0
    6.3599   11.2591    8.5814 N   0  0  0  0  0  0  0  0  0  0  0  0
   13.2157   14.4958    9.6546 C   0  0  2  0  0  0  0  0  0  0  0  0
   13.4852   15.8118    9.1245 N   0  0  0  0  0  0  0  0  0  0  0  0
    7.6021   13.1939    9.5173 C   0  0  0  0  0  0  0  0  0  0  0  0
    6.4787    9.5591    8.1179 C   0  0  0  0  0  0  0  0  0  0  0  0
    4.9664    9.5731    8.0861 C   0  0  1  0  0  0  0  0  0  0  0  0
    4.5382   10.0249    6.6880 C   0  0  0  0  0  0  0  0  0  0  0  0
    3.0542   10.3977    6.5342 C   0  0  0  0  0  0  0  0  0  0  0  0
    2.8590   10.9808    5.2035 N   0  0  0  0  0  0  0  0  0  0  0  0
    4.4491    8.2782    8.2469 O   0  0  0  0  0  0  0  0  0  0  0  0
    8.8138    9.9003    5.6840 C   0  0  0  0  0  0  0  0  0  0  0  0
   10.2352   10.1759    5.2181 C   0  0  0  0  0  0  0  0  0  0  0  0
   13.6828   13.3896    8.6494 C   0  0  1  0  0  0  0  0  0  0  0  0
   11.0546    8.9537    5.0652 N   0  0  0  0  0  0  0  0  0  0  0  0
   15.0602   13.5205    8.3559 O   0  0  0  0  0  0  0  0  0  0  0  0
    8.9804   13.8315    9.7412 C   0  0  2  0  0  0  0  0  0  0  0  0
    8.8524   15.1302   10.3947 N   0  0  0  0  0  0  0  0  0  0  0  0
   10.7660    6.6280    5.9250 C   0  0  0  0  0  0  0  0  0  0  0  0
   10.6268    5.7220    7.1906 N   0  0  0  0  0  0  0  0  0  0  0  0
   11.2897    8.0614    6.2356 C   0  0  0  0  0  0  0  0  0  0  0  0
    7.2873    8.8827    7.9515 O   0  0  0  0  0  0  0  0  0  0  0  0
   13.3897   12.0229    9.2769 C   0  0  2  0  0  0  0  0  0  0  0  0
   13.8021   10.9711    8.4194 O   0  0  0  0  0  0  0  0  0  0  0  0
    9.6978   14.0100    8.4265 C   0  0  2  0  0  0  0  0  0  0  0  0
   11.8711   11.8991    9.5928 C   0  0  2  0  0  0  0  0  0  0  0  0
   11.4339   12.9600   10.4673 O   0  0  0  0  0  0  0  0  0  0  0  0
    9.8373   12.6119    7.6843 C   0  0  2  0  0  0  0  0  0  0  0  0
   10.5395   12.8220    6.4227 O   0  0  0  0  0  0  0  0  0  0  0  0
   11.5415   10.6019   10.2297 C   0  0  0  0  0  0  0  0  0  0  0  0
   10.8637    9.8293    9.3526 N   0  0  0  0  0  0  0  0  0  0  0  0
    8.4038   12.0326    7.4219 C   0  0  1  0  0  0  0  0  0  0  0  0
    8.4910   10.8187    6.7463 O   0  0  0  0  0  0  0  0  0  0  0  0
  1  2  1  6  0  0  0
  1  5  1  0  0  0  0
  1 29  1  0  0  0  0
  3  4  1  6  0  0  0
  3  7  1  0  0  0  0
  3 34  1  0  0  0  0
  5  6  1  6  0  0  0
  5 16  1  0  0  0  0
  7 19  1  0  0  0  0
  8  4  1  0  0  0  0
  8 24  2  0  0  0  0
  9  8  1  6  0  0  0
  9 10  1  0  0  0  0
  9 13  1  0  0  0  0
 10 11  1  0  0  0  0
 11 12  1  0  0  0  0
 14 15  1  0  0  0  0
 14 35  1  0  0  0  0
 15 17  1  0  0  0  0
 16 18  1  1  0  0  0
 16 25  1  0  0  0  0
 19 20  1  6  0  0  0
 19 27  1  0  0  0  0
 21 22  1  0  0  0  0
 21 23  1  0  0  0  0
 23 17  1  0  0  0  0
 25 26  1  6  0  0  0
 25 28  1  0  0  0  0
 27  2  1  1  0  0  0
 27 30  1  0  0  0  0
 28 29  1  0  0  0  0
 28 32  1  1  0  0  0
 30 31  1  6  0  0  0
 30 34  1  0  0  0  0
 32 33  2  0  0  0  0
 34 35  1  1  0  0  0
M  END
>  <CHROM.1>
152.37603872,-166.24490401,87.47444268,-167.32780054,172.13814941,133.60777579
45.62577362,-59.58294807,-165.13552472,121.39299227,31.55248816,-108.59001626
179.17977119,9.55506609,11.38892995,8.02856750,0.55119169,-0.04425088,0.42850219

>  <Name>
2f4t_lig

>  <RI>
0

>  <Rbt.Current_Directory>
/home/itssahil/PROJECTS/Mol_Feturizer/New_Systems/rnas/2f4t

>  <Rbt.Executable>
rbdock ($Id: //depot/dev/client3/rdock/2013.1/src/exe/rbdock.cxx#4 $)

>  <Rbt.Library>
libRbt.so (2013.1, Build901 2013/11/27)

>  <Rbt.Parameter_File>
/export/apps/rDock/src/rDock_2013.1_src/data/scripts/dock_solv.prm

>  <Rbt.Receptor>
prm/blind_docking_80.prm

>  <SCORE>
-7.21805

>  <SCORE.INTER>
-7.05834

>  <SCORE.INTER.CONST>
1

>  <SCORE.INTER.POLAR>
-1.65429

>  <SCORE.INTER.ROT>
13

>  <SCORE.INTER.SOLV>
14.7387

>  <SCORE.INTER.VDW>
-16.3708

>  <SCORE.INTER.norm>
-0.201667

>  <SCORE.INTRA>
-1.23578

>  <SCORE.INTRA.DIHEDRAL>
-6.31668

>  <SCORE.INTRA.DIHEDRAL.0>
23.8882

>  <SCORE.INTRA.POLAR>
0

>  <SCORE.INTRA.POLAR.0>
0

>  <SCORE.INTRA.REPUL>
0

>  <SCORE.INTRA.REPUL.0>
0

>  <SCORE.INTRA.SOLV>
1.70358

>  <SCORE.INTRA.SOLV.lig_0>
-97.6888

>  <SCORE.INTRA.VDW>
1.07077

>  <SCORE.INTRA.VDW.0>
-3.9206

>  <SCORE.INTRA.norm>
-0.0353081

>  <SCORE.RESTR>
1.07607

>  <SCORE.RESTR.CAVITY>
1.07607

>  <SCORE.RESTR.norm>
0.0307448

>  <SCORE.SYSTEM>
0

>  <SCORE.SYSTEM.CONST>
0

>  <SCORE.SYSTEM.DIHEDRAL>
0

>  <SCORE.SYSTEM.SOLV>
0

>  <SCORE.SYSTEM.norm>
0

>  <SCORE.heavy>
35

>  <SCORE.norm>
-0.20623

>  <RMSD>
30.001

$$$$
2f4t_lig
 OpenBabel11021811433D
libRbt.so/2013.1/901 2013/11/27
 35 36  0  0  0  0  0  0  0  0999 V2000
   11.7893   15.0607    9.4808 C   0  0  2  0  0  0  0  0  0  0  0  0
   11.2417   14.8982    8.1314 O   0  0  0  0  0  0  0  0  0  0  0  0
    7.7745   12.4219    8.8409 C   0  0  2  0  0  0  0  0  0  0  0  0
    6.4317   11.8442    8.6795 N   0  0  0  0  0  0  0  0  0  0  0  0
   13.3037   15.3767    9.2904 C   0  0  2  0  0  0  0  0  0  0  0  0
   13.4803   16.5375    8.4497 N   0  0  0  0  0  0  0  0  0  0  0  0
    7.6636   13.9902    8.8796 C   0  0  0  0  0  0  0  0  0  0  0  0
    5.8231   11.3158   10.2508 C   0  0  0  0  0  0  0  0  0  0  0  0
    4.5784   10.8885    9.5049 C   0  0  1  0  0  0  0  0  0  0  0  0
    4.7812    9.4379    9.0616 C   0  0  0  0  0  0  0  0  0  0  0  0
    3.5884    8.7897    8.3389 C   0  0  0  0  0  0  0  0  0  0  0  0
    3.3118    9.5580    7.1215 N   0  0  0  0  0  0  0  0  0  0  0  0
    3.4622   10.8779   10.3559 O   0  0  0  0  0  0  0  0  0  0  0  0
    8.4743    9.2895    7.1910 C   0  0  0  0  0  0  0  0  0  0  0  0
    8.9669    9.1041    5.7640 C   0  0  0  0  0  0  0  0  0  0  0  0
   14.0395   14.1363    8.6802 C   0  0  1  0  0  0  0  0  0  0  0  0
   10.4383    9.1829    5.6316 N   0  0  0  0  0  0  0  0  0  0  0  0
   15.4176   14.4009    8.5036 O   0  0  0  0  0  0  0  0  0  0  0  0
    9.0371   14.6575    9.0363 C   0  0  2  0  0  0  0  0  0  0  0  0
    8.9125   16.1116    9.0287 N   0  0  0  0  0  0  0  0  0  0  0  0
   12.1379    8.7337    7.4038 C   0  0  0  0  0  0  0  0  0  0  0  0
   13.0574    9.9193    6.9669 N   0  0  0  0  0  0  0  0  0  0  0  0
   11.2998    8.1291    6.2387 C   0  0  0  0  0  0  0  0  0  0  0  0
    6.2104   11.3231   11.2453 O   0  0  0  0  0  0  0  0  0  0  0  0
   13.8322   12.9485    9.6256 C   0  0  2  0  0  0  0  0  0  0  0  0
   14.4869   11.7893    9.1361 O   0  0  0  0  0  0  0  0  0  0  0  0
    9.9579   14.2359    7.9186 C   0  0  2  0  0  0  0  0  0  0  0  0
   12.3114   12.6744    9.8073 C   0  0  2  0  0  0  0  0  0  0  0  0
   11.6289   13.8427   10.3080 O   0  0  0  0  0  0  0  0  0  0  0  0
   10.0996   12.6535    7.8929 C   0  0  2  0  0  0  0  0  0  0  0  0
   10.9999   12.2837    6.8058 O   0  0  0  0  0  0  0  0  0  0  0  0
   12.0585   11.5496   10.7389 C   0  0  0  0  0  0  0  0  0  0  0  0
   12.2316   11.9711   12.0109 N   0  0  0  0  0  0  0  0  0  0  0  0
    8.6821   12.0217    7.6674 C   0  0  1  0  0  0  0  0  0  0  0  0
    8.7765   10.6340    7.6118 O   0  0  0  0  0  0  0  0  0  0  0  0
  1  2  1  6  0  0  0
  1  5  1  0  0  0  0
  1 29  1  0  0  0  0
  3  4  1  6  0  0  0
  3  7  1  0  0  0  0
  3 34  1  0  0  0  0
  5  6  1  6  0  0  0
  5 16  1  0  0  0  0
  7 19  1  0  0  0  0
  8  4  1  0  0  0  0
  8 24  2  0  0  0  0
  9  8  1  1  0  0  0
  9 10  1  0  0  0  0
  9 13  1  0  0  0  0
 10 11  1  0  0  0  0
 11 12  1  0  0  0  0
 14 15  1  0  0  0  0
 14 35  1  0  0  0  0
 15 17  1  0  0  0  0
 16 18  1  1  0  0  0
 16 25  1  0  0  0  0
 19 20  1  6  0  0  0
 19 27  1  0  0  0  0
 21 22  1  0  0  0  0
 21 23  1  0  0  0  0
 23 17  1  0  0  0  0
 25 26  1  6  0  0  0
 25 28  1  0  0  0  0
 27  2  1  1  0  0  0
 27 30  1  0  0  0  0
 28 29  1  0  0  0  0
 28 32  1  1  0  0  0
 30 31  1  6  0  0  0
 30 34  1  0  0  0  0
 32 33  2  0  0  0  0
 34 35  1  1  0  0  0
M  END
>  <CHROM.1>
162.67850379,-99.17313195,90.08932593,177.13366321,60.75626026,65.51859445
70.91077367,67.08412777,-58.67133612,-113.00839678,38.51906668,77.12877858
95.83594286,9.73416923,12.06280017,8.61280578,0.37358129,0.16802435,0.46637677

>  <Name>
2f4t_lig

>  <RI>
0

>  <Rbt.Current_Directory>
/home/itssahil/PROJECTS/Mol_Feturizer/New_Systems/rnas/2f4t

>  <Rbt.Executable>
rbdock ($Id: //depot/dev/client3/rdock/2013.1/src/exe/rbdock.cxx#4 $)

>  <Rbt.Library>
libRbt.so (2013.1, Build901 2013/11/27)

>  <Rbt.Parameter_File>
/export/apps/rDock/src/rDock_2013.1_src/data/scripts/dock_solv.prm

>  <Rbt.Receptor>
prm/blind_docking_40.prm

>  <SCORE>
-4.49731

>  <SCORE.INTER>
-2.76574

>  <SCORE.INTER.CONST>
1

>  <SCORE.INTER.POLAR>
0

>  <SCORE.INTER.ROT>
13

>  <SCORE.INTER.SOLV>
7.97337

>  <SCORE.INTER.VDW>
-16.7683

>  <SCORE.INTER.norm>
-0.0790213

>  <SCORE.INTRA>
-1.74756

>  <SCORE.INTRA.DIHEDRAL>
-9.62531

>  <SCORE.INTRA.DIHEDRAL.0>
23.8882

>  <SCORE.INTRA.POLAR>
0

>  <SCORE.INTRA.POLAR.0>
0

>  <SCORE.INTRA.REPUL>
0.000419194

>  <SCORE.INTRA.REPUL.0>
0

>  <SCORE.INTRA.SOLV>
7.12304

>  <SCORE.INTRA.SOLV.lig_0>
-97.6888

>  <SCORE.INTRA.VDW>
-0.498523

>  <SCORE.INTRA.VDW.0>
-3.9206

>  <SCORE.INTRA.norm>
-0.0499303

>  <SCORE.RESTR>
0.0159904

>  <SCORE.RESTR.CAVITY>
0.0159904

>  <SCORE.RESTR.norm>
0.00045687

>  <SCORE.SYSTEM>
0

>  <SCORE.SYSTEM.CONST>
0

>  <SCORE.SYSTEM.DIHEDRAL>
0

>  <SCORE.SYSTEM.SOLV>
0

>  <SCORE.SYSTEM.norm>
0

>  <SCORE.heavy>
35

>  <SCORE.norm>
-0.128495

>  <RMSD>
30.025

$$$$
2f4t_lig
 OpenBabel11021811433D
libRbt.so/2013.1/901 2013/11/27
 35 36  0  0  0  0  0  0  0  0999 V2000
   11.5548   14.0158    7.4046 C   0  0  2  0  0  0  0  0  0  0  0  0
   11.1446   12.8823    8.2378 O   0  0  0  0  0  0  0  0  0  0  0  0
    7.9361   10.0139    8.6047 C   0  0  2  0  0  0  0  0  0  0  0  0
    6.6048    9.4039    8.4691 N   0  0  0  0  0  0  0  0  0  0  0  0
   12.9153   14.5031    7.9887 C   0  0  2  0  0  0  0  0  0  0  0  0
   13.8751   13.4244    8.0128 N   0  0  0  0  0  0  0  0  0  0  0  0
    7.7839   11.4685    9.1831 C   0  0  0  0  0  0  0  0  0  0  0  0
    5.5158   10.5355    7.6615 C   0  0  0  0  0  0  0  0  0  0  0  0
    4.4654    9.4558    7.7985 C   0  0  1  0  0  0  0  0  0  0  0  0
    3.4326    9.9431    8.8173 C   0  0  0  0  0  0  0  0  0  0  0  0
    3.9820   10.2776   10.2142 C   0  0  0  0  0  0  0  0  0  0  0  0
    2.9140   10.9136   10.9914 N   0  0  0  0  0  0  0  0  0  0  0  0
    3.7651    9.2813    6.5946 O   0  0  0  0  0  0  0  0  0  0  0  0
    9.2575    7.7680    5.8540 C   0  0  0  0  0  0  0  0  0  0  0  0
   10.7016    7.4740    6.2304 C   0  0  0  0  0  0  0  0  0  0  0  0
   12.7052   15.0871    9.4264 C   0  0  1  0  0  0  0  0  0  0  0  0
   11.6701    8.4298    5.6501 N   0  0  0  0  0  0  0  0  0  0  0  0
   13.9285   15.5399    9.9732 O   0  0  0  0  0  0  0  0  0  0  0  0
    9.1417   12.1672    9.3396 C   0  0  2  0  0  0  0  0  0  0  0  0
    8.9715   13.5281    9.8387 N   0  0  0  0  0  0  0  0  0  0  0  0
   13.2785    9.0284    7.4629 C   0  0  0  0  0  0  0  0  0  0  0  0
   12.9941   10.5647    7.4865 N   0  0  0  0  0  0  0  0  0  0  0  0
   13.1029    8.3806    6.0576 C   0  0  0  0  0  0  0  0  0  0  0  0
    5.6163   11.5251    7.2744 O   0  0  0  0  0  0  0  0  0  0  0  0
   11.6963   16.2362    9.3297 C   0  0  2  0  0  0  0  0  0  0  0  0
   11.4688   16.8209   10.6018 O   0  0  0  0  0  0  0  0  0  0  0  0
    9.8651   12.2144    8.0169 C   0  0  2  0  0  0  0  0  0  0  0  0
   10.3591   15.7184    8.7257 C   0  0  2  0  0  0  0  0  0  0  0  0
   10.5707   15.1224    7.4290 O   0  0  0  0  0  0  0  0  0  0  0  0
   10.0503   10.7450    7.4412 C   0  0  2  0  0  0  0  0  0  0  0  0
   10.7573   10.8292    6.1675 O   0  0  0  0  0  0  0  0  0  0  0  0
    9.3581   16.8025    8.5847 C   0  0  0  0  0  0  0  0  0  0  0  0
    8.3706   16.3982    7.7559 N   0  0  0  0  0  0  0  0  0  0  0  0
    8.6361   10.0981    7.2394 C   0  0  1  0  0  0  0  0  0  0  0  0
    8.7633    8.8177    6.7084 O   0  0  0  0  0  0  0  0  0  0  0  0
  1  2  1  1  0  0  0
  1  5  1  0  0  0  0
  1 29  1  0  0  0  0
  3  4  1  6  0  0  0
  3  7  1  0  0  0  0
  3 34  1  0  0  0  0
  5  6  1  1  0  0  0
  5 16  1  0  0  0  0
  7 19  1  0  0  0  0
  8  4  1  0  0  0  0
  8 24  2  0  0  0  0
  9  8  1  6  0  0  0
  9 10  1  0  0  0  0
  9 13  1  0  0  0  0
 10 11  1  0  0  0  0
 11 12  1  0  0  0  0
 14 15  1  0  0  0  0
 14 35  1  0  0  0  0
 15 17  1  0  0  0  0
 16 18  1  6  0  0  0
 16 25  1  0  0  0  0
 19 20  1  6  0  0  0
 19 27  1  0  0  0  0
 21 22  1  0  0  0  0
 21 23  1  0  0  0  0
 23 17  1  0  0  0  0
 25 26  1  1  0  0  0
 25 28  1  0  0  0  0
 27  2  1  1  0  0  0
 27 30  1  0  0  0  0
 28 29  1  0  0  0  0
 28 32  1  6  0  0  0
 30 31  1  6  0  0  0
 30 34  1  0  0  0  0
 32 33  2  0  0  0  0
 34 35  1  1  0  0  0
M  END
>  <CHROM.1>
176.81615409,48.06027621,110.75846869,-58.30280809,171.54966004,-80.63687021
69.05590213,172.47927830,-66.68811721,-77.04586154,-127.84894219,164.15259872
-162.91691115,9.35453589,11.86802390,8.06252652,0.62009111,0.19029556,0.37510924

>  <Name>
2f4t_lig

>  <RI>
0

>  <Rbt.Current_Directory>
/home/itssahil/PROJECTS/Mol_Feturizer/New_Systems/rnas/2f4t

>  <Rbt.Executable>
rbdock ($Id: //depot/dev/client3/rdock/2013.1/src/exe/rbdock.cxx#4 $)

>  <Rbt.Library>
libRbt.so (2013.1, Build901 2013/11/27)

>  <Rbt.Parameter_File>
/export/apps/rDock/src/rDock_2013.1_src/data/scripts/dock_solv.prm

>  <Rbt.Receptor>
prm/blind_docking_80.prm

>  <SCORE>
7.14018

>  <SCORE.INTER>
2.4909

>  <SCORE.INTER.CONST>
1

>  <SCORE.INTER.POLAR>
-0.679137

>  <SCORE.INTER.ROT>
13

>  <SCORE.INTER.SOLV>
10.3044

>  <SCORE.INTER.VDW>
-11.7771

>  <SCORE.INTER.norm>
0.0711685

>  <SCORE.INTRA>
1.39176

>  <SCORE.INTRA.DIHEDRAL>
-8.90189

>  <SCORE.INTRA.DIHEDRAL.0>
23.8882

>  <SCORE.INTRA.POLAR>
0

>  <SCORE.INTRA.POLAR.0>
0

>  <SCORE.INTRA.REPUL>
0.0164279

>  <SCORE.INTRA.REPUL.0>
0

>  <SCORE.INTRA.SOLV>
12.6206

>  <SCORE.INTRA.SOLV.lig_0>
-97.6888

>  <SCORE.INTRA.VDW>
-0.549733

>  <SCORE.INTRA.VDW.0>
-3.9206

>  <SCORE.INTRA.norm>
0.0397646

>  <SCORE.RESTR>
3.25752

>  <SCORE.RESTR.CAVITY>
3.25752

>  <SCORE.RESTR.norm>
0.0930719

>  <SCORE.SYSTEM>
0

>  <SCORE.SYSTEM.CONST>
0

>  <SCORE.SYSTEM.DIHEDRAL>
0

>  <SCORE.SYSTEM.SOLV>
0

>  <SCORE.SYSTEM.norm>
0

>  <SCORE.heavy>
35

>  <SCORE.norm>
0.204005

>  <RMSD>
30.037

$$$$
2f4t_lig
 OpenBabel11021811433D
libRbt.so/2013.1/901 2013/11/27
 35 36  0  0  0  0  0  0  0  0999 V2000
   11.7523   14.9119    9.6478 C   0  0  2  0  0  0  0  0  0  0  0  0
   11.1609   14.8199    8.3103 O   0  0  0  0  0  0  0  0  0  0  0  0
    7.5617   12.5276    8.9802 C   0  0  2  0  0  0  0  0  0  0  0  0
    6.1675   12.0759    8.8580 N   0  0  0  0  0  0  0  0  0  0  0  0
   13.2593   15.2421    9.4251 C   0  0  2  0  0  0  0  0  0  0  0  0
   13.4067   16.4465    8.6422 N   0  0  0  0  0  0  0  0  0  0  0  0
    7.5842   14.0801    9.2308 C   0  0  0  0  0  0  0  0  0  0  0  0
    5.9919   10.4899    9.6146 C   0  0  0  0  0  0  0  0  0  0  0  0
    4.5356   10.5796    9.2153 C   0  0  1  0  0  0  0  0  0  0  0  0
    4.4399   10.2117    7.7330 C   0  0  0  0  0  0  0  0  0  0  0  0
    3.1009   10.5389    7.0509 C   0  0  0  0  0  0  0  0  0  0  0  0
    3.1898   10.1417    5.6426 N   0  0  0  0  0  0  0  0  0  0  0  0
    3.7681    9.6237    9.8990 O   0  0  0  0  0  0  0  0  0  0  0  0
    7.7583    9.5437    7.2475 C   0  0  0  0  0  0  0  0  0  0  0  0
    8.8148    8.6562    6.6077 C   0  0  0  0  0  0  0  0  0  0  0  0
   13.9761   14.0381    8.7259 C   0  0  1  0  0  0  0  0  0  0  0  0
   10.1397    8.7505    7.2593 N   0  0  0  0  0  0  0  0  0  0  0  0
   15.3474   14.3158    8.5187 O   0  0  0  0  0  0  0  0  0  0  0  0
    9.0161   14.6187    9.3574 C   0  0  2  0  0  0  0  0  0  0  0  0
    9.0121   16.0657    9.5485 N   0  0  0  0  0  0  0  0  0  0  0  0
   12.3983    8.7139    6.1969 C   0  0  0  0  0  0  0  0  0  0  0  0
   12.8788    9.8856    7.1123 N   0  0  0  0  0  0  0  0  0  0  0  0
   11.2527    7.8622    6.8195 C   0  0  0  0  0  0  0  0  0  0  0  0
    6.6563    9.8202   10.1138 O   0  0  0  0  0  0  0  0  0  0  0  0
   13.8014   12.8010    9.6129 C   0  0  2  0  0  0  0  0  0  0  0  0
   14.4411   11.6715    9.0412 O   0  0  0  0  0  0  0  0  0  0  0  0
    9.8145   14.2872    8.1214 C   0  0  2  0  0  0  0  0  0  0  0  0
   12.2877   12.5131    9.8294 C   0  0  2  0  0  0  0  0  0  0  0  0
   11.6206   13.6511   10.4137 O   0  0  0  0  0  0  0  0  0  0  0  0
    9.8224   12.7168    7.8794 C   0  0  2  0  0  0  0  0  0  0  0  0
   10.6070   12.4337    6.6821 O   0  0  0  0  0  0  0  0  0  0  0  0
   12.0669   11.3395   10.7075 C   0  0  0  0  0  0  0  0  0  0  0  0
   11.9909   11.7475   11.9933 N   0  0  0  0  0  0  0  0  0  0  0  0
    8.3448   12.2257    7.6930 C   0  0  1  0  0  0  0  0  0  0  0  0
    8.3196   10.8551    7.4505 O   0  0  0  0  0  0  0  0  0  0  0  0
  1  2  1  6  0  0  0
  1  5  1  0  0  0  0
  1 29  1  0  0  0  0
  3  4  1  6  0  0  0
  3  7  1  0  0  0  0
  3 34  1  0  0  0  0
  5  6  1  6  0  0  0
  5 16  1  0  0  0  0
  7 19  1  0  0  0  0
  8  4  1  0  0  0  0
  8 24  2  0  0  0  0
  9  8  1  1  0  0  0
  9 10  1  0  0  0  0
  9 13  1  0  0  0  0
 10 11  1  0  0  0  0
 11 12  1  0  0  0  0
 14 15  1  0  0  0  0
 14 35  1  0  0  0  0
 15 17  1  0  0  0  0
 16 18  1  1  0  0  0
 16 25  1  0  0  0  0
 19 20  1  6  0  0  0
 19 27  1  0  0  0  0
 21 22  1  0  0  0  0
 21 23  1  0  0  0  0
 23 17  1  0  0  0  0
 25 26  1  6  0  0  0
 25 28  1  0  0  0  0
 27  2  1  1  0  0  0
 27 30  1  0  0  0  0
 28 29  1  0  0  0  0
 28 32  1  1  0  0  0
 30 31  1  6  0  0  0
 30 34  1  0  0  0  0
 32 33  2  0  0  0  0
 34 35  1  1  0  0  0
M  END
>  <CHROM.1>
168.85441931,-142.87611116,79.60735903,-166.96486528,179.20660962,46.60260164
163.16458119,175.10862537,52.21232627,115.21078472,30.77864326,90.43619241
53.83233447,9.62086213,11.98842173,8.53836480,0.41475937,0.03038865,0.36816787

>  <Name>
2f4t_lig

>  <RI>
0

>  <Rbt.Current_Directory>
/home/itssahil/PROJECTS/Mol_Feturizer/New_Systems/rnas/2f4t

>  <Rbt.Executable>
rbdock ($Id: //depot/dev/client3/rdock/2013.1/src/exe/rbdock.cxx#4 $)

>  <Rbt.Library>
libRbt.so (2013.1, Build901 2013/11/27)

>  <Rbt.Parameter_File>
/export/apps/rDock/src/rDock_2013.1_src/data/scripts/dock_solv.prm

>  <Rbt.Receptor>
prm/blind_docking_40.prm

>  <SCORE>
-4.84322

>  <SCORE.INTER>
-1.7843

>  <SCORE.INTER.CONST>
1

>  <SCORE.INTER.POLAR>
0

>  <SCORE.INTER.ROT>
13

>  <SCORE.INTER.SOLV>
7.59191

>  <SCORE.INTER.VDW>
-15.9868

>  <SCORE.INTER.norm>
-0.0509799

>  <SCORE.INTRA>
-3.07268

>  <SCORE.INTRA.DIHEDRAL>
-12.2922

>  <SCORE.INTRA.DIHEDRAL.0>
23.8882

>  <SCORE.INTRA.POLAR>
0

>  <SCORE.INTRA.POLAR.0>
0

>  <SCORE.INTRA.REPUL>
0

>  <SCORE.INTRA.REPUL.0>
0

>  <SCORE.INTRA.SOLV>
6.15157

>  <SCORE.INTRA.SOLV.lig_0>
-97.6888

>  <SCORE.INTRA.VDW>
-0.00236498

>  <SCORE.INTRA.VDW.0>
-3.9206

>  <SCORE.INTRA.norm>
-0.0877908

>  <SCORE.RESTR>
0.0137549

>  <SCORE.RESTR.CAVITY>
0.0137549

>  <SCORE.RESTR.norm>
0.000392997

>  <SCORE.SYSTEM>
0

>  <SCORE.SYSTEM.CONST>
0

>  <SCORE.SYSTEM.DIHEDRAL>
0

>  <SCORE.SYSTEM.SOLV>
0

>  <SCORE.SYSTEM.norm>
0

>  <SCORE.heavy>
35

>  <SCORE.norm>
-0.138378

>  <RMSD>
30.039

$$$$
2f4t_lig
 OpenBabel11021811433D
libRbt.so/2013.1/901 2013/11/27
 35 36  0  0  0  0  0  0  0  0999 V2000
   11.8169   15.2448    9.9661 C   0  0  2  0  0  0  0  0  0  0  0  0
   12.0064   13.9203   10.5636 O   0  0  0  0  0  0  0  0  0  0  0  0
   11.5601   11.2815    7.1732 C   0  0  2  0  0  0  0  0  0  0  0  0
   11.7562   10.1249    6.2863 N   0  0  0  0  0  0  0  0  0  0  0  0
   10.7071   15.9388   10.8124 C   0  0  2  0  0  0  0  0  0  0  0  0
   11.0805   15.9801   12.2068 N   0  0  0  0  0  0  0  0  0  0  0  0
   12.9587   11.9090    7.5247 C   0  0  0  0  0  0  0  0  0  0  0  0
   12.2995    8.7381    7.2352 C   0  0  0  0  0  0  0  0  0  0  0  0
   12.3056    7.9806    5.9258 C   0  0  1  0  0  0  0  0  0  0  0  0
   13.6939    8.1455    5.3036 C   0  0  0  0  0  0  0  0  0  0  0  0
   14.2044    9.5917    5.1886 C   0  0  0  0  0  0  0  0  0  0  0  0
   14.7449    9.9965    6.4897 N   0  0  0  0  0  0  0  0  0  0  0  0
   12.1423    6.6034    6.1422 O   0  0  0  0  0  0  0  0  0  0  0  0
    8.4339    9.5166    8.3871 C   0  0  0  0  0  0  0  0  0  0  0  0
    7.7445   10.0243    9.6442 C   0  0  0  0  0  0  0  0  0  0  0  0
    9.3435   15.1910   10.6281 C   0  0  1  0  0  0  0  0  0  0  0  0
    6.2947   10.2608    9.4690 N   0  0  0  0  0  0  0  0  0  0  0  0
    8.3207   15.8085   11.3849 O   0  0  0  0  0  0  0  0  0  0  0  0
   12.8245   13.1188    8.4599 C   0  0  2  0  0  0  0  0  0  0  0  0
   14.1364   13.6581    8.8038 N   0  0  0  0  0  0  0  0  0  0  0  0
    4.0475    9.5366    8.6583 C   0  0  0  0  0  0  0  0  0  0  0  0
    4.2921   10.1620    7.2473 N   0  0  0  0  0  0  0  0  0  0  0  0
    5.3546    9.1070    9.3879 C   0  0  0  0  0  0  0  0  0  0  0  0
   12.5103    8.5736    8.2685 O   0  0  0  0  0  0  0  0  0  0  0  0
    8.9947   15.1998    9.1361 C   0  0  2  0  0  0  0  0  0  0  0  0
    7.7583   14.5461    8.8996 O   0  0  0  0  0  0  0  0  0  0  0  0
   12.1050   12.7279    9.7266 C   0  0  2  0  0  0  0  0  0  0  0  0
   10.1315   14.5177    8.3216 C   0  0  2  0  0  0  0  0  0  0  0  0
   11.3974   15.1719    8.5476 O   0  0  0  0  0  0  0  0  0  0  0  0
   10.6775   12.1216    9.3809 C   0  0  2  0  0  0  0  0  0  0  0  0
   10.0098   11.7613   10.6273 O   0  0  0  0  0  0  0  0  0  0  0  0
    9.8529   14.5276    6.8658 C   0  0  0  0  0  0  0  0  0  0  0  0
    8.9014   15.4482    6.5960 N   0  0  0  0  0  0  0  0  0  0  0  0
   10.8709   10.8538    8.4783 C   0  0  1  0  0  0  0  0  0  0  0  0
    9.6372   10.2817    8.1805 O   0  0  0  0  0  0  0  0  0  0  0  0
  1  2  1  1  0  0  0
  1  5  1  0  0  0  0
  1 29  1  0  0  0  0
  3  4  1  6  0  0  0
  3  7  1  0  0  0  0
  3 34  1  0  0  0  0
  5  6  1  1  0  0  0
  5 16  1  0  0  0  0
  7 19  1  0  0  0  0
  8  4  1  0  0  0  0
  8 24  2  0  0  0  0
  9  8  1  1  0  0  0
  9 10  1  0  0  0  0
  9 13  1  0  0  0  0
 10 11  1  0  0  0  0
 11 12  1  0  0  0  0
 14 15  1  0  0  0  0
 14 35  1  0  0  0  0
 15 17  1  0  0  0  0
 16 18  1  1  0  0  0
 16 25  1  0  0  0  0
 19 20  1  1  0  0  0
 19 27  1  0  0  0  0
 21 22  1  0  0  0  0
 21 23  1  0  0  0  0
 23 17  1  0  0  0  0
 25 26  1  1  0  0  0
 25 28  1  0  0  0  0
 27  2  1  1  0  0  0
 27 30  1  0  0  0  0
 28 29  1  0  0  0  0
 28 32  1  6  0  0  0
 30 31  1  1  0  0  0
 30 34  1  0  0  0  0
 32 33  2  0  0  0  0
 34 35  1  6  0  0  0
M  END
>  <CHROM.1>
134.89133452,77.61931722,89.83954124,-51.47277736,81.03719771,132.67826971
53.80174118,74.08413161,54.75260947,-157.41453364,35.03738325,17.68739573
163.43236499,10.40762818,11.91666071,8.47279985,-2.01574171,-0.20675901,-2.71868726

>  <Name>
2f4t_lig

>  <RI>
0

>  <Rbt.Current_Directory>
/home/itssahil/PROJECTS/Mol_Feturizer/New_Systems/rnas/2f4t

>  <Rbt.Executable>
rbdock ($Id: //depot/dev/client3/rdock/2013.1/src/exe/rbdock.cxx#4 $)

>  <Rbt.Library>
libRbt.so (2013.1, Build901 2013/11/27)

>  <Rbt.Parameter_File>
/export/apps/rDock/src/rDock_2013.1_src/data/scripts/dock_solv.prm

>  <Rbt.Receptor>
prm/blind_docking_80.prm

>  <SCORE>
23.0291

>  <SCORE.INTER>
5.73073

>  <SCORE.INTER.CONST>
1

>  <SCORE.INTER.POLAR>
-0.299513

>  <SCORE.INTER.ROT>
13

>  <SCORE.INTER.SOLV>
14.8416

>  <SCORE.INTER.VDW>
-12.395

>  <SCORE.INTER.norm>
0.163735

>  <SCORE.INTRA>
10.9343

>  <SCORE.INTRA.DIHEDRAL>
-3.45929

>  <SCORE.INTRA.DIHEDRAL.0>
23.8882

>  <SCORE.INTRA.POLAR>
0

>  <SCORE.INTRA.POLAR.0>
0

>  <SCORE.INTRA.REPUL>
0

>  <SCORE.INTRA.REPUL.0>
0

>  <SCORE.INTRA.SOLV>
9.82452

>  <SCORE.INTRA.SOLV.lig_0>
-97.6888

>  <SCORE.INTRA.VDW>
7.75172

>  <SCORE.INTRA.VDW.0>
-3.9206

>  <SCORE.INTRA.norm>
0.31241

>  <SCORE.RESTR>
6.36401

>  <SCORE.RESTR.CAVITY>
6.36401

>  <SCORE.RESTR.norm>
0.181829

>  <SCORE.SYSTEM>
0

>  <SCORE.SYSTEM.CONST>
0

>  <SCORE.SYSTEM.DIHEDRAL>
0

>  <SCORE.SYSTEM.SOLV>
0

>  <SCORE.SYSTEM.norm>
0

>  <SCORE.heavy>
35

>  <SCORE.norm>
0.657974

>  <RMSD>
30.041

$$$$
2f4t_lig
 OpenBabel11021811433D
libRbt.so/2013.1/901 2013/11/27
 35 36  0  0  0  0  0  0  0  0999 V2000
   11.3758   14.5113    9.6743 C   0  0  2  0  0  0  0  0  0  0  0  0
   10.9471   14.7450    8.2927 O   0  0  0  0  0  0  0  0  0  0  0  0
    7.8705   11.7736    7.6905 C   0  0  2  0  0  0  0  0  0  0  0  0
    6.6197   11.1525    7.2297 N   0  0  0  0  0  0  0  0  0  0  0  0
   12.8335   15.0556    9.7655 C   0  0  2  0  0  0  0  0  0  0  0  0
   12.8850   16.4435    9.3696 N   0  0  0  0  0  0  0  0  0  0  0  0
    7.5418   13.1389    8.3988 C   0  0  0  0  0  0  0  0  0  0  0  0
    5.4814   11.0473    8.5759 C   0  0  0  0  0  0  0  0  0  0  0  0
    4.5299   10.4186    7.5821 C   0  0  1  0  0  0  0  0  0  0  0  0
    3.9863    9.1344    8.2123 C   0  0  0  0  0  0  0  0  0  0  0  0
    5.0415    8.0859    8.6027 C   0  0  0  0  0  0  0  0  0  0  0  0
    5.9549    7.9050    7.4704 N   0  0  0  0  0  0  0  0  0  0  0  0
    3.4144   11.2425    7.3651 O   0  0  0  0  0  0  0  0  0  0  0  0
    9.6178    9.5175    5.6816 C   0  0  0  0  0  0  0  0  0  0  0  0
   11.0991    9.5259    6.0268 C   0  0  0  0  0  0  0  0  0  0  0  0
   13.7872   14.1914    8.8733 C   0  0  1  0  0  0  0  0  0  0  0  0
   11.3766    9.2235    7.4481 N   0  0  0  0  0  0  0  0  0  0  0  0
   15.1175   14.6664    8.9458 O   0  0  0  0  0  0  0  0  0  0  0  0
    8.8105   13.8459    8.8956 C   0  0  2  0  0  0  0  0  0  0  0  0
    8.4836   15.1278    9.5121 N   0  0  0  0  0  0  0  0  0  0  0  0
   11.0250    6.7693    7.1564 C   0  0  0  0  0  0  0  0  0  0  0  0
   11.3210    6.5986    5.6316 N   0  0  0  0  0  0  0  0  0  0  0  0
   11.8804    7.8766    7.8401 C   0  0  0  0  0  0  0  0  0  0  0  0
    5.5125   11.3226    9.6066 O   0  0  0  0  0  0  0  0  0  0  0  0
   13.7028   12.7395    9.3555 C   0  0  2  0  0  0  0  0  0  0  0  0
   14.5564   11.9009    8.5940 O   0  0  0  0  0  0  0  0  0  0  0  0
    9.7658   14.0786    7.7518 C   0  0  2  0  0  0  0  0  0  0  0  0
   12.2329   12.2365    9.2689 C   0  0  2  0  0  0  0  0  0  0  0  0
   11.3498   13.0766   10.0408 O   0  0  0  0  0  0  0  0  0  0  0  0
   10.1272   12.6992    7.0507 C   0  0  2  0  0  0  0  0  0  0  0  0
   11.0553   12.9620    5.9559 O   0  0  0  0  0  0  0  0  0  0  0  0
   12.0948   10.8425    9.7533 C   0  0  0  0  0  0  0  0  0  0  0  0
   11.0239   10.7548   10.5726 N   0  0  0  0  0  0  0  0  0  0  0  0
    8.8090   12.0479    6.5051 C   0  0  1  0  0  0  0  0  0  0  0  0
    9.0958   10.8487    5.8589 O   0  0  0  0  0  0  0  0  0  0  0  0
  1  2  1  6  0  0  0
  1  5  1  0  0  0  0
  1 29  1  0  0  0  0
  3  4  1  6  0  0  0
  3  7  1  0  0  0  0
  3 34  1  0  0  0  0
  5  6  1  6  0  0  0
  5 16  1  0  0  0  0
  7 19  1  0  0  0  0
  8  4  1  0  0  0  0
  8 24  2  0  0  0  0
  9  8  1  1  0  0  0
  9 10  1  0  0  0  0
  9 13  1  0  0  0  0
 10 11  1  0  0  0  0
 11 12  1  0  0  0  0
 14 15  1  0  0  0  0
 14 35  1  0  0  0  0
 15 17  1  0  0  0  0
 16 18  1  1  0  0  0
 16 25  1  0  0  0  0
 19 20  1  6  0  0  0
 19 27  1  0  0  0  0
 21 22  1  0  0  0  0
 21 23  1  0  0  0  0
 23 17  1  0  0  0  0
 25 26  1  6  0  0  0
 25 28  1  0  0  0  0
 27  2  1  1  0  0  0
 27 30  1  0  0  0  0
 28 29  1  0  0  0  0
 28 32  1  1  0  0  0
 30 31  1  6  0  0  0
 30 34  1  0  0  0  0
 32 33  2  0  0  0  0
 34 35  1  1  0  0  0
M  END
>  <CHROM.1>
164.99500146,-52.89873280,130.22829212,-58.77373982,-47.98649423,90.70990000
-54.37764473,103.39284951,74.41970054,-47.42116654,29.91460373,134.35679783
-63.90911466,9.73511949,11.64606744,8.11735910,0.53181117,0.00601340,0.32100490

>  <Name>
2f4t_lig

>  <RI>
0

>  <Rbt.Current_Directory>
/home/itssahil/PROJECTS/Mol_Feturizer/New_Systems/rnas/2f4t

>  <Rbt.Executable>
rbdock ($Id: //depot/dev/client3/rdock/2013.1/src/exe/rbdock.cxx#4 $)

>  <Rbt.Library>
libRbt.so (2013.1, Build901 2013/11/27)

>  <Rbt.Parameter_File>
/export/apps/rDock/src/rDock_2013.1_src/data/scripts/dock_solv.prm

>  <Rbt.Receptor>
prm/blind_docking_80.prm

>  <SCORE>
22.0476

>  <SCORE.INTER>
19.8563

>  <SCORE.INTER.CONST>
1

>  <SCORE.INTER.POLAR>
-1.07703

>  <SCORE.INTER.ROT>
13

>  <SCORE.INTER.SOLV>
14.8719

>  <SCORE.INTER.VDW>
-0.396304

>  <SCORE.INTER.norm>
0.567323

>  <SCORE.INTRA>
1.45389

>  <SCORE.INTRA.DIHEDRAL>
-10.449

>  <SCORE.INTRA.DIHEDRAL.0>
23.8882

>  <SCORE.INTRA.POLAR>
0

>  <SCORE.INTRA.POLAR.0>
0

>  <SCORE.INTRA.REPUL>
0

>  <SCORE.INTRA.REPUL.0>
0

>  <SCORE.INTRA.SOLV>
8.61617

>  <SCORE.INTRA.SOLV.lig_0>
-97.6888

>  <SCORE.INTRA.VDW>
2.37031

>  <SCORE.INTRA.VDW.0>
-3.9206

>  <SCORE.INTRA.norm>
0.0415397

>  <SCORE.RESTR>
0.73737

>  <SCORE.RESTR.CAVITY>
0.73737

>  <SCORE.RESTR.norm>
0.0210677

>  <SCORE.SYSTEM>
0

>  <SCORE.SYSTEM.CONST>
0

>  <SCORE.SYSTEM.DIHEDRAL>
0

>  <SCORE.SYSTEM.SOLV>
0

>  <SCORE.SYSTEM.norm>
0

>  <SCORE.heavy>
35

>  <SCORE.norm>
0.62993

>  <RMSD>
30.046

$$$$
2f4t_lig
 OpenBabel11021811433D
libRbt.so/2013.1/901 2013/11/27
 35 36  0  0  0  0  0  0  0  0999 V2000
   12.2738   15.0118    9.3314 C   0  0  2  0  0  0  0  0  0  0  0  0
   11.6989   14.7939    8.0012 O   0  0  0  0  0  0  0  0  0  0  0  0
    8.1351   12.5076    8.8551 C   0  0  2  0  0  0  0  0  0  0  0  0
    6.7547   12.0102    8.7554 N   0  0  0  0  0  0  0  0  0  0  0  0
   13.8162   15.0914    9.1207 C   0  0  2  0  0  0  0  0  0  0  0  0
   14.1478   16.1260    8.1694 N   0  0  0  0  0  0  0  0  0  0  0  0
    8.1170   14.0789    8.9209 C   0  0  0  0  0  0  0  0  0  0  0  0
    6.1507   11.6164   10.3675 C   0  0  0  0  0  0  0  0  0  0  0  0
    4.8641   11.2277    9.6735 C   0  0  1  0  0  0  0  0  0  0  0  0
    5.0322    9.7971    9.1569 C   0  0  0  0  0  0  0  0  0  0  0  0
    3.7358    9.0842    8.7370 C   0  0  0  0  0  0  0  0  0  0  0  0
    2.8760    8.9544    9.9172 N   0  0  0  0  0  0  0  0  0  0  0  0
    3.7963   11.1849   10.5835 O   0  0  0  0  0  0  0  0  0  0  0  0
    9.3570    9.3766    7.0931 C   0  0  0  0  0  0  0  0  0  0  0  0
    9.3289    9.3654    5.5724 C   0  0  0  0  0  0  0  0  0  0  0  0
   14.3660   13.7052    8.6426 C   0  0  1  0  0  0  0  0  0  0  0  0
   10.6634    9.1926    4.9577 N   0  0  0  0  0  0  0  0  0  0  0  0
   15.7663   13.7546    8.4498 O   0  0  0  0  0  0  0  0  0  0  0  0
    9.5330   14.6641    9.0155 C   0  0  2  0  0  0  0  0  0  0  0  0
    9.4923   16.1229    9.0342 N   0  0  0  0  0  0  0  0  0  0  0  0
   12.1075    8.1303    6.6948 C   0  0  0  0  0  0  0  0  0  0  0  0
   12.1048    6.7727    5.9210 N   0  0  0  0  0  0  0  0  0  0  0  0
   11.8931    9.3726    5.7803 C   0  0  0  0  0  0  0  0  0  0  0  0
    6.5610   11.6572   11.3519 O   0  0  0  0  0  0  0  0  0  0  0  0
   14.0009   12.6587    9.7005 C   0  0  2  0  0  0  0  0  0  0  0  0
   14.4827   11.3761    9.3338 O   0  0  0  0  0  0  0  0  0  0  0  0
   10.3699   14.2094    7.8460 C   0  0  2  0  0  0  0  0  0  0  0  0
   12.4580   12.6205    9.8983 C   0  0  2  0  0  0  0  0  0  0  0  0
   11.9500   13.9172   10.2750 O   0  0  0  0  0  0  0  0  0  0  0  0
   10.4185   12.6221    7.7914 C   0  0  2  0  0  0  0  0  0  0  0  0
   11.2395   12.2198    6.6542 O   0  0  0  0  0  0  0  0  0  0  0  0
   12.0564   11.6411   10.9358 C   0  0  0  0  0  0  0  0  0  0  0  0
   11.5084   10.5573   10.3436 N   0  0  0  0  0  0  0  0  0  0  0  0
    8.9573   12.0759    7.6308 C   0  0  1  0  0  0  0  0  0  0  0  0
    8.9684   10.6862    7.5514 O   0  0  0  0  0  0  0  0  0  0  0  0
  1  2  1  6  0  0  0
  1  5  1  0  0  0  0
  1 29  1  0  0  0  0
  3  4  1  6  0  0  0
  3  7  1  0  0  0  0
  3 34  1  0  0  0  0
  5  6  1  6  0  0  0
  5 16  1  0  0  0  0
  7 19  1  0  0  0  0
  8  4  1  0  0  0  0
  8 24  2  0  0  0  0
  9  8  1  1  0  0  0
  9 10  1  0  0  0  0
  9 13  1  0  0  0  0
 10 11  1  0  0  0  0
 11 12  1  0  0  0  0
 14 15  1  0  0  0  0
 14 35  1  0  0  0  0
 15 17  1  0  0  0  0
 16 18  1  1  0  0  0
 16 25  1  0  0  0  0
 19 20  1  6  0  0  0
 19 27  1  0  0  0  0
 21 22  1  0  0  0  0
 21 23  1  0  0  0  0
 23 17  1  0  0  0  0
 25 26  1  6  0  0  0
 25 28  1  0  0  0  0
 27  2  1  1  0  0  0
 27 30  1  0  0  0  0
 28 29  1  0  0  0  0
 28 32  1  1  0  0  0
 30 31  1  6  0  0  0
 30 34  1  0  0  0  0
 32 33  2  0  0  0  0
 34 35  1  1  0  0  0
M  END
>  <CHROM.1>
158.19094386,-94.53062722,82.99750701,165.16526983,-62.87160786,114.04212816
-48.94187273,-14.50898152,53.08632965,75.94485093,33.03900185,-106.04177927
-169.71032274,9.98170627,11.93563810,8.56912268,0.27764408,0.24059536,0.47981985

>  <Name>
2f4t_lig

>  <RI>
0

>  <Rbt.Current_Directory>
/home/itssahil/PROJECTS/Mol_Feturizer/New_Systems/rnas/2f4t

>  <Rbt.Executable>
rbdock ($Id: //depot/dev/client3/rdock/2013.1/src/exe/rbdock.cxx#4 $)

>  <Rbt.Library>
libRbt.so (2013.1, Build901 2013/11/27)

>  <Rbt.Parameter_File>
/export/apps/rDock/src/rDock_2013.1_src/data/scripts/dock_solv.prm

>  <Rbt.Receptor>
prm/blind_docking_80.prm

>  <SCORE>
-5.28671

>  <SCORE.INTER>
-9.53123

>  <SCORE.INTER.CONST>
1

>  <SCORE.INTER.POLAR>
-1.99355

>  <SCORE.INTER.ROT>
13

>  <SCORE.INTER.SOLV>
15.7596

>  <SCORE.INTER.VDW>
-17.2289

>  <SCORE.INTER.norm>
-0.272321

>  <SCORE.INTRA>
3.22266

>  <SCORE.INTRA.DIHEDRAL>
-7.12243

>  <SCORE.INTRA.DIHEDRAL.0>
23.8882

>  <SCORE.INTRA.POLAR>
0

>  <SCORE.INTRA.POLAR.0>
0

>  <SCORE.INTRA.REPUL>
0

>  <SCORE.INTRA.REPUL.0>
0

>  <SCORE.INTRA.SOLV>
5.71336

>  <SCORE.INTRA.SOLV.lig_0>
-97.6888

>  <SCORE.INTRA.VDW>
3.92719

>  <SCORE.INTRA.VDW.0>
-3.9206

>  <SCORE.INTRA.norm>
0.092076

>  <SCORE.RESTR>
1.02186

>  <SCORE.RESTR.CAVITY>
1.02186

>  <SCORE.RESTR.norm>
0.0291961

>  <SCORE.SYSTEM>
0

>  <SCORE.SYSTEM.CONST>
0

>  <SCORE.SYSTEM.DIHEDRAL>
0

>  <SCORE.SYSTEM.SOLV>
0

>  <SCORE.SYSTEM.norm>
0

>  <SCORE.heavy>
35

>  <SCORE.norm>
-0.151049

>  <RMSD>
30.046

$$$$
2f4t_lig
 OpenBabel11021811433D
libRbt.so/2013.1/901 2013/11/27
 35 36  0  0  0  0  0  0  0  0999 V2000
   11.0599   13.8588   10.1333 C   0  0  2  0  0  0  0  0  0  0  0  0
   10.2247   14.2436    8.9924 O   0  0  0  0  0  0  0  0  0  0  0  0
    7.9160   10.6523    8.3372 C   0  0  2  0  0  0  0  0  0  0  0  0
    6.8099    9.7762    7.9227 N   0  0  0  0  0  0  0  0  0  0  0  0
   11.6617   15.1857   10.6870 C   0  0  2  0  0  0  0  0  0  0  0  0
   10.6129   16.1189   11.0253 N   0  0  0  0  0  0  0  0  0  0  0  0
    7.3477   11.8233    9.2200 C   0  0  0  0  0  0  0  0  0  0  0  0
    5.6742    9.5848    9.2615 C   0  0  0  0  0  0  0  0  0  0  0  0
    4.8779    8.7088    8.3198 C   0  0  1  0  0  0  0  0  0  0  0  0
    4.4897    9.5637    7.1114 C   0  0  0  0  0  0  0  0  0  0  0  0
    3.8976   10.9455    7.4360 C   0  0  0  0  0  0  0  0  0  0  0  0
    3.5317   11.5997    6.1762 N   0  0  0  0  0  0  0  0  0  0  0  0
    5.6697    7.6658    7.8145 O   0  0  0  0  0  0  0  0  0  0  0  0
    9.7805    9.6064    5.1978 C   0  0  0  0  0  0  0  0  0  0  0  0
   11.2197   10.0969    5.1568 C   0  0  0  0  0  0  0  0  0  0  0  0
   12.6401   15.8120    9.6368 C   0  0  1  0  0  0  0  0  0  0  0  0
   12.2178    9.0067    5.2175 N   0  0  0  0  0  0  0  0  0  0  0  0
   13.2015   17.0160   10.1223 O   0  0  0  0  0  0  0  0  0  0  0  0
    8.4541   12.7835    9.6782 C   0  0  2  0  0  0  0  0  0  0  0  0
    7.8973   13.8826   10.4607 N   0  0  0  0  0  0  0  0  0  0  0  0
   12.2036    8.8044    7.7055 C   0  0  0  0  0  0  0  0  0  0  0  0
   13.5562    9.5236    8.0141 N   0  0  0  0  0  0  0  0  0  0  0  0
   12.1971    8.0379    6.3499 C   0  0  0  0  0  0  0  0  0  0  0  0
    5.6282    9.9508   10.2630 O   0  0  0  0  0  0  0  0  0  0  0  0
   13.7366   14.7846    9.3371 C   0  0  2  0  0  0  0  0  0  0  0  0
   14.6683   15.2955    8.3976 O   0  0  0  0  0  0  0  0  0  0  0  0
    9.1875   13.3485    8.4874 C   0  0  2  0  0  0  0  0  0  0  0  0
   13.0992   13.4685    8.8057 C   0  0  2  0  0  0  0  0  0  0  0  0
   12.1500   12.9321    9.7506 O   0  0  0  0  0  0  0  0  0  0  0  0
    9.7915   12.1715    7.6072 C   0  0  2  0  0  0  0  0  0  0  0  0
   10.4970   12.7543    6.4707 O   0  0  0  0  0  0  0  0  0  0  0  0
   14.1205   12.4307    8.5282 C   0  0  0  0  0  0  0  0  0  0  0  0
   14.8156   12.1702    9.6572 N   0  0  0  0  0  0  0  0  0  0  0  0
    8.6183   11.2566    7.1114 C   0  0  1  0  0  0  0  0  0  0  0  0
    9.1130   10.2296    6.3124 O   0  0  0  0  0  0  0  0  0  0  0  0
  1  2  1  6  0  0  0
  1  5  1  0  0  0  0
  1 29  1  0  0  0  0
  3  4  1  6  0  0  0
  3  7  1  0  0  0  0
  3 34  1  0  0  0  0
  5  6  1  6  0  0  0
  5 16  1  0  0  0  0
  7 19  1  0  0  0  0
  8  4  1  0  0  0  0
  8 24  2  0  0  0  0
  9  8  1  1  0  0  0
  9 10  1  0  0  0  0
  9 13  1  0  0  0  0
 10 11  1  0  0  0  0
 11 12  1  0  0  0  0
 14 15  1  0  0  0  0
 14 35  1  0  0  0  0
 15 17  1  0  0  0  0
 16 18  1  1  0  0  0
 16 25  1  0  0  0  0
 19 20  1  6  0  0  0
 19 27  1  0  0  0  0
 21 22  1  0  0  0  0
 21 23  1  0  0  0  0
 23 17  1  0  0  0  0
 25 26  1  6  0  0  0
 25 28  1  0  0  0  0
 27  2  1  1  0  0  0
 27 30  1  0  0  0  0
 28 29  1  0  0  0  0
 28 32  1  1  0  0  0
 30 31  1  6  0  0  0
 30 34  1  0  0  0  0
 32 33  2  0  0  0  0
 34 35  1  6  0  0  0
M  END
>  <CHROM.1>
-160.61954370,-39.38268033,-60.05331557,-47.59702813,-177.59325066,122.90248804
58.88249186,-56.02702608,-69.71221037,-52.50608882,43.77427755,58.45200966
179.86749824,9.80007720,11.86508677,8.29434758,0.57017412,0.13182307,0.54684188

>  <Name>
2f4t_lig

>  <RI>
0

>  <Rbt.Current_Directory>
/home/itssahil/PROJECTS/Mol_Feturizer/New_Systems/rnas/2f4t

>  <Rbt.Executable>
rbdock ($Id: //depot/dev/client3/rdock/2013.1/src/exe/rbdock.cxx#4 $)

>  <Rbt.Library>
libRbt.so (2013.1, Build901 2013/11/27)

>  <Rbt.Parameter_File>
/export/apps/rDock/src/rDock_2013.1_src/data/scripts/dock_solv.prm

>  <Rbt.Receptor>
prm/blind_docking_100.prm

>  <SCORE>
1.18549

>  <SCORE.INTER>
-4.94172

>  <SCORE.INTER.CONST>
1

>  <SCORE.INTER.POLAR>
-0.916515

>  <SCORE.INTER.ROT>
13

>  <SCORE.INTER.SOLV>
15.3385

>  <SCORE.INTER.VDW>
-17.6189

>  <SCORE.INTER.norm>
-0.141192

>  <SCORE.INTRA>
5.41612

>  <SCORE.INTRA.DIHEDRAL>
-11.5378

>  <SCORE.INTRA.DIHEDRAL.0>
23.8882

>  <SCORE.INTRA.POLAR>
0

>  <SCORE.INTRA.POLAR.0>
0

>  <SCORE.INTRA.REPUL>
0

>  <SCORE.INTRA.REPUL.0>
0

>  <SCORE.INTRA.SOLV>
6.22057

>  <SCORE.INTRA.SOLV.lig_0>
-97.6888

>  <SCORE.INTRA.VDW>
8.07475

>  <SCORE.INTRA.VDW.0>
-3.9206

>  <SCORE.INTRA.norm>
0.154746

>  <SCORE.RESTR>
0.711094

>  <SCORE.RESTR.CAVITY>
0.711094

>  <SCORE.RESTR.norm>
0.020317

>  <SCORE.SYSTEM>
0

>  <SCORE.SYSTEM.CONST>
0

>  <SCORE.SYSTEM.DIHEDRAL>
0

>  <SCORE.SYSTEM.SOLV>
0

>  <SCORE.SYSTEM.norm>
0

>  <SCORE.heavy>
35

>  <SCORE.norm>
0.0338711

>  <RMSD>
30.050

$$$$
2f4t_lig
 OpenBabel11021811433D
libRbt.so/2013.1/901 2013/11/27
 35 36  0  0  0  0  0  0  0  0999 V2000
   11.9151   14.7251    9.4093 C   0  0  2  0  0  0  0  0  0  0  0  0
   11.4704   14.8074    8.0155 O   0  0  0  0  0  0  0  0  0  0  0  0
    7.8263   12.4923    8.1485 C   0  0  2  0  0  0  0  0  0  0  0  0
    6.5554   11.8888    7.7202 N   0  0  0  0  0  0  0  0  0  0  0  0
   12.8864   15.9262    9.6179 C   0  0  2  0  0  0  0  0  0  0  0  0
   12.2338   17.1722    9.2904 N   0  0  0  0  0  0  0  0  0  0  0  0
    7.7858   14.0397    7.8702 C   0  0  0  0  0  0  0  0  0  0  0  0
    5.3892   11.9657    9.0441 C   0  0  0  0  0  0  0  0  0  0  0  0
    4.4266   11.2899    8.0928 C   0  0  1  0  0  0  0  0  0  0  0  0
    4.7839    9.8024    8.0541 C   0  0  0  0  0  0  0  0  0  0  0  0
    4.5928    9.0372    9.3744 C   0  0  0  0  0  0  0  0  0  0  0  0
    3.1552    8.8803    9.6145 N   0  0  0  0  0  0  0  0  0  0  0  0
    3.1113   11.3568    8.5784 O   0  0  0  0  0  0  0  0  0  0  0  0
    9.0171    9.2766    8.3412 C   0  0  0  0  0  0  0  0  0  0  0  0
   10.0087    9.3802    9.4899 C   0  0  0  0  0  0  0  0  0  0  0  0
   14.1750   15.7331    8.7492 C   0  0  1  0  0  0  0  0  0  0  0  0
    9.4086    9.8823   10.7454 N   0  0  0  0  0  0  0  0  0  0  0  0
   15.0728   16.8113    8.9277 O   0  0  0  0  0  0  0  0  0  0  0  0
    9.0919   14.7305    8.2866 C   0  0  2  0  0  0  0  0  0  0  0  0
    9.0456   16.1570    7.9814 N   0  0  0  0  0  0  0  0  0  0  0  0
   11.2609   10.9822   12.0066 C   0  0  0  0  0  0  0  0  0  0  0  0
   12.0344   11.1090   10.6547 N   0  0  0  0  0  0  0  0  0  0  0  0
   10.1924    9.8493   12.0127 C   0  0  0  0  0  0  0  0  0  0  0  0
    5.4148   12.3365   10.0446 O   0  0  0  0  0  0  0  0  0  0  0  0
   14.8294   14.4093    9.1576 C   0  0  2  0  0  0  0  0  0  0  0  0
   16.0148   14.1779    8.4140 O   0  0  0  0  0  0  0  0  0  0  0  0
   10.2664   14.1114    7.5708 C   0  0  2  0  0  0  0  0  0  0  0  0
   13.8264   13.2371    8.9548 C   0  0  2  0  0  0  0  0  0  0  0  0
   12.6145   13.4540    9.7070 O   0  0  0  0  0  0  0  0  0  0  0  0
   10.3320   12.5527    7.8726 C   0  0  2  0  0  0  0  0  0  0  0  0
   11.4808   11.9901    7.1706 O   0  0  0  0  0  0  0  0  0  0  0  0
   14.4049   11.9355    9.3648 C   0  0  0  0  0  0  0  0  0  0  0  0
   14.0210   10.9776    8.4925 N   0  0  0  0  0  0  0  0  0  0  0  0
    9.0048   11.8837    7.3726 C   0  0  1  0  0  0  0  0  0  0  0  0
    9.0430   10.5105    7.5976 O   0  0  0  0  0  0  0  0  0  0  0  0
  1  2  1  6  0  0  0
  1  5  1  0  0  0  0
  1 29  1  0  0  0  0
  3  4  1  6  0  0  0
  3  7  1  0  0  0  0
  3 34  1  0  0  0  0
  5  6  1  6  0  0  0
  5 16  1  0  0  0  0
  7 19  1  0  0  0  0
  8  4  1  0  0  0  0
  8 24  2  0  0  0  0
  9  8  1  1  0  0  0
  9 10  1  0  0  0  0
  9 13  1  0  0  0  0
 10 11  1  0  0  0  0
 11 12  1  0  0  0  0
 14 15  1  0  0  0  0
 14 35  1  0  0  0  0
 15 17  1  0  0  0  0
 16 18  1  1  0  0  0
 16 25  1  0  0  0  0
 19 20  1  6  0  0  0
 19 27  1  0  0  0  0
 21 22  1  0  0  0  0
 21 23  1  0  0  0  0
 23 17  1  0  0  0  0
 25 26  1  6  0  0  0
 25 28  1  0  0  0  0
 27  2  1  1  0  0  0
 27 30  1  0  0  0  0
 28 29  1  0  0  0  0
 28 32  1  1  0  0  0
 30 31  1  6  0  0  0
 30 34  1  0  0  0  0
 32 33  2  0  0  0  0
 34 35  1  1  0  0  0
M  END
>  <CHROM.1>
-161.23805040,-87.57974042,78.21903824,64.56634546,71.89743259,91.77286657
-50.75225789,170.84623601,-44.45522720,75.35540499,64.91190932,-140.70939097
-46.75485132,9.91514714,12.53647078,8.90390010,0.41168434,-0.14219199,-0.28555712

>  <Name>
2f4t_lig

>  <RI>
0

>  <Rbt.Current_Directory>
/home/itssahil/PROJECTS/Mol_Feturizer/New_Systems/rnas/2f4t

>  <Rbt.Executable>
rbdock ($Id: //depot/dev/client3/rdock/2013.1/src/exe/rbdock.cxx#4 $)

>  <Rbt.Library>
libRbt.so (2013.1, Build901 2013/11/27)

>  <Rbt.Parameter_File>
/export/apps/rDock/src/rDock_2013.1_src/data/scripts/dock_solv.prm

>  <Rbt.Receptor>
prm/blind_docking_40.prm

>  <SCORE>
0.711471

>  <SCORE.INTER>
-0.11571

>  <SCORE.INTER.CONST>
1

>  <SCORE.INTER.POLAR>
0

>  <SCORE.INTER.ROT>
13

>  <SCORE.INTER.SOLV>
7.92402

>  <SCORE.INTER.VDW>
-14.9851

>  <SCORE.INTER.norm>
-0.00330601

>  <SCORE.INTRA>
-0.94934

>  <SCORE.INTRA.DIHEDRAL>
-13.3868

>  <SCORE.INTRA.DIHEDRAL.0>
23.8882

>  <SCORE.INTRA.POLAR>
0

>  <SCORE.INTRA.POLAR.0>
0

>  <SCORE.INTRA.REPUL>
0

>  <SCORE.INTRA.REPUL.0>
0

>  <SCORE.INTRA.SOLV>
12.6252

>  <SCORE.INTRA.SOLV.lig_0>
-97.6888

>  <SCORE.INTRA.VDW>
-0.568571

>  <SCORE.INTRA.VDW.0>
-3.9206

>  <SCORE.INTRA.norm>
-0.027124

>  <SCORE.RESTR>
1.77652

>  <SCORE.RESTR.CAVITY>
1.77652

>  <SCORE.RESTR.norm>
0.0507577

>  <SCORE.SYSTEM>
0

>  <SCORE.SYSTEM.CONST>
0

>  <SCORE.SYSTEM.DIHEDRAL>
0

>  <SCORE.SYSTEM.SOLV>
0

>  <SCORE.SYSTEM.norm>
0

>  <SCORE.heavy>
35

>  <SCORE.norm>
0.0203278

>  <RMSD>
30.051

$$$$
2f4t_lig
 OpenBabel11021811433D
libRbt.so/2013.1/901 2013/11/27
 35 36  0  0  0  0  0  0  0  0999 V2000
   12.9389   11.9551    8.3439 C   0  0  2  0  0  0  0  0  0  0  0  0
   12.2931   11.5547    9.5969 O   0  0  0  0  0  0  0  0  0  0  0  0
    8.1553   11.3320    8.3779 C   0  0  2  0  0  0  0  0  0  0  0  0
    6.7170   11.0280    8.4171 N   0  0  0  0  0  0  0  0  0  0  0  0
   14.3527   11.2991    8.3651 C   0  0  2  0  0  0  0  0  0  0  0  0
   14.2482    9.8684    8.5318 N   0  0  0  0  0  0  0  0  0  0  0  0
    8.9707   10.0255    8.6967 C   0  0  0  0  0  0  0  0  0  0  0  0
    6.2624   10.5311   10.0496 C   0  0  0  0  0  0  0  0  0  0  0  0
    4.8598   10.3907    9.5008 C   0  0  1  0  0  0  0  0  0  0  0  0
    4.7343    8.9852    8.9088 C   0  0  0  0  0  0  0  0  0  0  0  0
    5.1675    8.8403    7.4403 C   0  0  0  0  0  0  0  0  0  0  0  0
    4.4294    9.8228    6.6410 N   0  0  0  0  0  0  0  0  0  0  0  0
    3.9088   10.4604   10.5308 O   0  0  0  0  0  0  0  0  0  0  0  0
    7.5091   14.9701    9.0580 C   0  0  0  0  0  0  0  0  0  0  0  0
    8.1420   15.4983    7.7798 C   0  0  0  0  0  0  0  0  0  0  0  0
   15.2196   11.9261    9.5086 C   0  0  1  0  0  0  0  0  0  0  0  0
    9.4973   14.9622    7.5258 N   0  0  0  0  0  0  0  0  0  0  0  0
   16.5096   11.3473    9.5420 O   0  0  0  0  0  0  0  0  0  0  0  0
   10.4848   10.2779    8.6821 C   0  0  2  0  0  0  0  0  0  0  0  0
   11.2178    9.0619    9.0204 N   0  0  0  0  0  0  0  0  0  0  0  0
   10.5631   16.2510    9.3790 C   0  0  0  0  0  0  0  0  0  0  0  0
   11.7435   17.1618    9.8472 N   0  0  0  0  0  0  0  0  0  0  0  0
   10.6983   15.7577    7.9081 C   0  0  0  0  0  0  0  0  0  0  0  0
    6.7900   10.4062   10.9690 O   0  0  0  0  0  0  0  0  0  0  0  0
   15.3089   13.4360    9.2637 C   0  0  2  0  0  0  0  0  0  0  0  0
   16.0949   14.0669   10.2617 O   0  0  0  0  0  0  0  0  0  0  0  0
   10.8475   11.3617    9.6664 C   0  0  2  0  0  0  0  0  0  0  0  0
   13.8810   14.0532    9.2295 C   0  0  2  0  0  0  0  0  0  0  0  0
   13.0673   13.4251    8.2171 O   0  0  0  0  0  0  0  0  0  0  0  0
   10.0505   12.6949    9.3313 C   0  0  2  0  0  0  0  0  0  0  0  0
   10.4301   13.7202   10.2977 O   0  0  0  0  0  0  0  0  0  0  0  0
   13.9137   15.5113    8.9655 C   0  0  0  0  0  0  0  0  0  0  0  0
   15.0035   16.0510    9.5544 N   0  0  0  0  0  0  0  0  0  0  0  0
    8.5126   12.4018    9.4214 C   0  0  1  0  0  0  0  0  0  0  0  0
    7.7853   13.5597    9.1602 O   0  0  0  0  0  0  0  0  0  0  0  0
  1  2  1  1  0  0  0
  1  5  1  0  0  0  0
  1 29  1  0  0  0  0
  3  4  1  1  0  0  0
  3  7  1  0  0  0  0
  3 34  1  0  0  0  0
  5  6  1  1  0  0  0
  5 16  1  0  0  0  0
  7 19  1  0  0  0  0
  8  4  1  0  0  0  0
  8 24  2  0  0  0  0
  9  8  1  1  0  0  0
  9 10  1  0  0  0  0
  9 13  1  0  0  0  0
 10 11  1  0  0  0  0
 11 12  1  0  0  0  0
 14 15  1  0  0  0  0
 14 35  1  0  0  0  0
 15 17  1  0  0  0  0
 16 18  1  6  0  0  0
 16 25  1  0  0  0  0
 19 20  1  1  0  0  0
 19 27  1  0  0  0  0
 21 22  1  0  0  0  0
 21 23  1  0  0  0  0
 23 17  1  0  0  0  0
 25 26  1  1  0  0  0
 25 28  1  0  0  0  0
 27  2  1  6  0  0  0
 27 30  1  0  0  0  0
 28 29  1  0  0  0  0
 28 32  1  6  0  0  0
 30 31  1  1  0  0  0
 30 34  1  0  0  0  0
 32 33  2  0  0  0  0
 34 35  1  6  0  0  0
M  END
>  <CHROM.1>
-148.18583479,63.41381031,86.57591439,-87.56022800,-54.23152925,-41.95282379
79.00926670,-97.60382805,-176.88246030,49.58879916,59.88094163,-35.05779367
-143.27465650,10.29843912,12.40924431,9.04902731,-0.34126226,0.03739574,-3.13770838

>  <Name>
2f4t_lig

>  <RI>
0

>  <Rbt.Current_Directory>
/home/itssahil/PROJECTS/Mol_Feturizer/New_Systems/rnas/2f4t

>  <Rbt.Executable>
rbdock ($Id: //depot/dev/client3/rdock/2013.1/src/exe/rbdock.cxx#4 $)

>  <Rbt.Library>
libRbt.so (2013.1, Build901 2013/11/27)

>  <Rbt.Parameter_File>
/export/apps/rDock/src/rDock_2013.1_src/data/scripts/dock_solv.prm

>  <Rbt.Receptor>
prm/blind_docking_100.prm

>  <SCORE>
9.40435

>  <SCORE.INTER>
0.961597

>  <SCORE.INTER.CONST>
1

>  <SCORE.INTER.POLAR>
0

>  <SCORE.INTER.ROT>
13

>  <SCORE.INTER.SOLV>
17.7871

>  <SCORE.INTER.VDW>
-17.5546

>  <SCORE.INTER.norm>
0.0274742

>  <SCORE.INTRA>
5.14565

>  <SCORE.INTRA.DIHEDRAL>
-5.97076

>  <SCORE.INTRA.DIHEDRAL.0>
23.8882

>  <SCORE.INTRA.POLAR>
0

>  <SCORE.INTRA.POLAR.0>
0

>  <SCORE.INTRA.REPUL>
0

>  <SCORE.INTRA.REPUL.0>
0

>  <SCORE.INTRA.SOLV>
11.0288

>  <SCORE.INTRA.SOLV.lig_0>
-97.6888

>  <SCORE.INTRA.VDW>
2.61663

>  <SCORE.INTRA.VDW.0>
-3.9206

>  <SCORE.INTRA.norm>
0.147019

>  <SCORE.RESTR>
3.2971

>  <SCORE.RESTR.CAVITY>
3.2971

>  <SCORE.RESTR.norm>
0.0942028

>  <SCORE.SYSTEM>
0

>  <SCORE.SYSTEM.CONST>
0

>  <SCORE.SYSTEM.DIHEDRAL>
0

>  <SCORE.SYSTEM.SOLV>
0

>  <SCORE.SYSTEM.norm>
0

>  <SCORE.heavy>
35

>  <SCORE.norm>
0.268696

>  <RMSD>
30.058

$$$$
2f4t_lig
 OpenBabel11021811433D
libRbt.so/2013.1/901 2013/11/27
 35 36  0  0  0  0  0  0  0  0999 V2000
   11.8334   15.3030   10.0268 C   0  0  2  0  0  0  0  0  0  0  0  0
   11.1230   15.5386    8.7670 O   0  0  0  0  0  0  0  0  0  0  0  0
    7.6803   12.9568    9.1403 C   0  0  2  0  0  0  0  0  0  0  0  0
    6.3048   12.4570    8.9952 N   0  0  0  0  0  0  0  0  0  0  0  0
   13.3194   15.6874    9.7558 C   0  0  2  0  0  0  0  0  0  0  0  0
   13.4156   17.0481    9.2819 N   0  0  0  0  0  0  0  0  0  0  0  0
    7.6417   14.4316    9.6851 C   0  0  0  0  0  0  0  0  0  0  0  0
    5.8293   11.6004   10.4645 C   0  0  0  0  0  0  0  0  0  0  0  0
    4.5012   11.3767    9.7759 C   0  0  1  0  0  0  0  0  0  0  0  0
    4.1711    9.8862    9.8830 C   0  0  0  0  0  0  0  0  0  0  0  0
    3.0081    9.3971    9.0035 C   0  0  0  0  0  0  0  0  0  0  0  0
    2.7928    7.9720    9.2716 N   0  0  0  0  0  0  0  0  0  0  0  0
    3.4681   12.0485   10.4480 O   0  0  0  0  0  0  0  0  0  0  0  0
    8.8008   10.2633    7.1924 C   0  0  0  0  0  0  0  0  0  0  0  0
    8.7483    9.8414    5.7320 C   0  0  0  0  0  0  0  0  0  0  0  0
   13.9511   14.6965    8.7206 C   0  0  1  0  0  0  0  0  0  0  0  0
    9.4502    8.5681    5.4589 N   0  0  0  0  0  0  0  0  0  0  0  0
   15.3026   15.0253    8.4640 O   0  0  0  0  0  0  0  0  0  0  0  0
    9.0508   15.0180    9.8497 C   0  0  2  0  0  0  0  0  0  0  0  0
    8.9877   16.3992   10.3170 N   0  0  0  0  0  0  0  0  0  0  0  0
   10.2441    6.2567    5.9675 C   0  0  0  0  0  0  0  0  0  0  0  0
   11.7593    6.6113    6.1105 N   0  0  0  0  0  0  0  0  0  0  0  0
    9.2883    7.4127    6.3864 C   0  0  0  0  0  0  0  0  0  0  0  0
    6.3111   11.3759   11.3901 O   0  0  0  0  0  0  0  0  0  0  0  0
   13.8367   13.2784    9.2894 C   0  0  2  0  0  0  0  0  0  0  0  0
   14.4041   12.3280    8.4026 O   0  0  0  0  0  0  0  0  0  0  0  0
    9.7955   14.9749    8.5388 C   0  0  2  0  0  0  0  0  0  0  0  0
   12.3440   12.9366    9.5654 C   0  0  2  0  0  0  0  0  0  0  0  0
   11.7505   13.8920   10.4690 O   0  0  0  0  0  0  0  0  0  0  0  0
    9.8656   13.4826    7.9974 C   0  0  2  0  0  0  0  0  0  0  0  0
   10.5963   13.4788    6.7344 O   0  0  0  0  0  0  0  0  0  0  0  0
   12.1838   11.5820   10.1454 C   0  0  0  0  0  0  0  0  0  0  0  0
   11.9813   10.6883    9.1523 N   0  0  0  0  0  0  0  0  0  0  0  0
    8.4054   12.9516    7.7856 C   0  0  1  0  0  0  0  0  0  0  0  0
    8.4329   11.6534    7.2839 O   0  0  0  0  0  0  0  0  0  0  0  0
  1  2  1  6  0  0  0
  1  5  1  0  0  0  0
  1 29  1  0  0  0  0
  3  4  1  6  0  0  0
  3  7  1  0  0  0  0
  3 34  1  0  0  0  0
  5  6  1  6  0  0  0
  5 16  1  0  0  0  0
  7 19  1  0  0  0  0
  8  4  1  0  0  0  0
  8 24  2  0  0  0  0
  9  8  1  1  0  0  0
  9 10  1  0  0  0  0
  9 13  1  0  0  0  0
 10 11  1  0  0  0  0
 11 12  1  0  0  0  0
 14 15  1  0  0  0  0
 14 35  1  0  0  0  0
 15 17  1  0  0  0  0
 16 18  1  1  0  0  0
 16 25  1  0  0  0  0
 19 20  1  6  0  0  0
 19 27  1  0  0  0  0
 21 22  1  0  0  0  0
 21 23  1  0  0  0  0
 23 17  1  0  0  0  0
 25 26  1  6  0  0  0
 25 28  1  0  0  0  0
 27  2  1  1  0  0  0
 27 30  1  0  0  0  0
 28 29  1  0  0  0  0
 28 32  1  1  0  0  0
 30 31  1  6  0  0  0
 30 34  1  0  0  0  0
 32 33  2  0  0  0  0
 34 35  1  1  0  0  0
M  END
>  <CHROM.1>
164.23827554,-93.19852157,129.89139052,-168.02013352,-177.59933378,164.13297045
-150.31391847,43.15079659,65.15702909,-173.77617780,36.44677639,-92.23741535
-68.95308080,9.45584400,12.23757117,8.71676433,0.51237171,0.23325006,0.44157366

>  <Name>
2f4t_lig

>  <RI>
0

>  <Rbt.Current_Directory>
/home/itssahil/PROJECTS/Mol_Feturizer/New_Systems/rnas/2f4t

>  <Rbt.Executable>
rbdock ($Id: //depot/dev/client3/rdock/2013.1/src/exe/rbdock.cxx#4 $)

>  <Rbt.Library>
libRbt.so (2013.1, Build901 2013/11/27)

>  <Rbt.Parameter_File>
/export/apps/rDock/src/rDock_2013.1_src/data/scripts/dock_solv.prm

>  <Rbt.Receptor>
prm/blind_docking_40.prm

>  <SCORE>
-7.59654

>  <SCORE.INTER>
-5.14148

>  <SCORE.INTER.CONST>
1

>  <SCORE.INTER.POLAR>
-1.07703

>  <SCORE.INTER.ROT>
13

>  <SCORE.INTER.SOLV>
15.4494

>  <SCORE.INTER.VDW>
-17.254

>  <SCORE.INTER.norm>
-0.146899

>  <SCORE.INTRA>
-3.95818

>  <SCORE.INTRA.DIHEDRAL>
-10.3807

>  <SCORE.INTRA.DIHEDRAL.0>
23.8882

>  <SCORE.INTRA.POLAR>
0

>  <SCORE.INTRA.POLAR.0>
0

>  <SCORE.INTRA.REPUL>
0

>  <SCORE.INTRA.REPUL.0>
0

>  <SCORE.INTRA.SOLV>
0.827415

>  <SCORE.INTRA.SOLV.lig_0>
-97.6888

>  <SCORE.INTRA.VDW>
0.818465

>  <SCORE.INTRA.VDW.0>
-3.9206

>  <SCORE.INTRA.norm>
-0.113091

>  <SCORE.RESTR>
1.50312

>  <SCORE.RESTR.CAVITY>
1.50312

>  <SCORE.RESTR.norm>
0.0429463

>  <SCORE.SYSTEM>
0

>  <SCORE.SYSTEM.CONST>
0

>  <SCORE.SYSTEM.DIHEDRAL>
0

>  <SCORE.SYSTEM.SOLV>
0

>  <SCORE.SYSTEM.norm>
0

>  <SCORE.heavy>
35

>  <SCORE.norm>
-0.217044

>  <RMSD>
30.070

$$$$
2f4t_lig
 OpenBabel11021811433D
libRbt.so/2013.1/901 2013/11/27
 35 36  0  0  0  0  0  0  0  0999 V2000
   10.8510   14.5449    9.7003 C   0  0  2  0  0  0  0  0  0  0  0  0
   10.4766   14.5060    8.2842 O   0  0  0  0  0  0  0  0  0  0  0  0
    7.4886   11.3877    8.2148 C   0  0  2  0  0  0  0  0  0  0  0  0
    6.3031   10.6177    7.8092 N   0  0  0  0  0  0  0  0  0  0  0  0
   12.2970   15.1255    9.7425 C   0  0  2  0  0  0  0  0  0  0  0  0
   12.3476   16.4148    9.0940 N   0  0  0  0  0  0  0  0  0  0  0  0
    7.0788   12.8885    8.4450 C   0  0  0  0  0  0  0  0  0  0  0  0
    5.1487   10.5633    9.1446 C   0  0  0  0  0  0  0  0  0  0  0  0
    4.2735    9.7535    8.2138 C   0  0  1  0  0  0  0  0  0  0  0  0
    3.8215   10.6798    7.0826 C   0  0  0  0  0  0  0  0  0  0  0  0
    2.8004   10.0819    6.1003 C   0  0  0  0  0  0  0  0  0  0  0  0
    2.5348   11.0701    5.0505 N   0  0  0  0  0  0  0  0  0  0  0  0
    5.0087    8.7274    7.5998 O   0  0  0  0  0  0  0  0  0  0  0  0
    8.7606    8.6094    6.6024 C   0  0  0  0  0  0  0  0  0  0  0  0
   10.1342    7.9670    6.4844 C   0  0  0  0  0  0  0  0  0  0  0  0
   13.2970   14.1279    9.0664 C   0  0  1  0  0  0  0  0  0  0  0  0
   10.9892    8.5860    5.4478 N   0  0  0  0  0  0  0  0  0  0  0  0
   14.6173   14.6343    9.0984 O   0  0  0  0  0  0  0  0  0  0  0  0
    8.2778   13.7517    8.8616 C   0  0  2  0  0  0  0  0  0  0  0  0
    7.8810   15.1462    9.0295 N   0  0  0  0  0  0  0  0  0  0  0  0
   13.4553    8.6556    5.8290 C   0  0  0  0  0  0  0  0  0  0  0  0
   14.7087    9.4984    6.2298 N   0  0  0  0  0  0  0  0  0  0  0  0
   12.1252    9.4655    5.8447 C   0  0  0  0  0  0  0  0  0  0  0  0
    5.1349   10.9499   10.1393 O   0  0  0  0  0  0  0  0  0  0  0  0
   13.2108   12.7912    9.8104 C   0  0  2  0  0  0  0  0  0  0  0  0
   14.1051   11.8414    9.2538 O   0  0  0  0  0  0  0  0  0  0  0  0
    9.3700   13.6717    7.8244 C   0  0  2  0  0  0  0  0  0  0  0  0
   11.7520   12.2519    9.7645 C   0  0  2  0  0  0  0  0  0  0  0  0
   10.8276   13.2046   10.3298 O   0  0  0  0  0  0  0  0  0  0  0  0
    9.8112   12.1604    7.6091 C   0  0  2  0  0  0  0  0  0  0  0  0
   10.8703   12.1225    6.6062 O   0  0  0  0  0  0  0  0  0  0  0  0
   11.6112   10.9715   10.4977 C   0  0  0  0  0  0  0  0  0  0  0  0
   10.3990   10.4346   10.2371 N   0  0  0  0  0  0  0  0  0  0  0  0
    8.5694   11.3346    7.1239 C   0  0  1  0  0  0  0  0  0  0  0  0
    8.9305   10.0092    6.8986 O   0  0  0  0  0  0  0  0  0  0  0  0
  1  2  1  6  0  0  0
  1  5  1  0  0  0  0
  1 29  1  0  0  0  0
  3  4  1  6  0  0  0
  3  7  1  0  0  0  0
  3 34  1  0  0  0  0
  5  6  1  6  0  0  0
  5 16  1  0  0  0  0
  7 19  1  0  0  0  0
  8  4  1  0  0  0  0
  8 24  2  0  0  0  0
  9  8  1  1  0  0  0
  9 10  1  0  0  0  0
  9 13  1  0  0  0  0
 10 11  1  0  0  0  0
 11 12  1  0  0  0  0
 14 15  1  0  0  0  0
 14 35  1  0  0  0  0
 15 17  1  0  0  0  0
 16 18  1  1  0  0  0
 16 25  1  0  0  0  0
 19 20  1  6  0  0  0
 19 27  1  0  0  0  0
 21 22  1  0  0  0  0
 21 23  1  0  0  0  0
 23 17  1  0  0  0  0
 25 26  1  6  0  0  0
 25 28  1  0  0  0  0
 27  2  1  1  0  0  0
 27 30  1  0  0  0  0
 28 29  1  0  0  0  0
 28 32  1  1  0  0  0
 30 31  1  6  0  0  0
 30 34  1  0  0  0  0
 32 33  2  0  0  0  0
 34 35  1  1  0  0  0
M  END
>  <CHROM.1>
161.77265392,-65.98928745,-67.54855886,-174.00467747,-177.03416722,-58.15131276
174.72649151,105.96997632,179.85378572,97.91970448,38.99856521,-169.55136963
53.47932845,9.42779404,11.66362516,8.07841806,0.35860065,0.00341107,0.51027466

>  <Name>
2f4t_lig

>  <RI>
0

>  <Rbt.Current_Directory>
/home/itssahil/PROJECTS/Mol_Feturizer/New_Systems/rnas/2f4t

>  <Rbt.Executable>
rbdock ($Id: //depot/dev/client3/rdock/2013.1/src/exe/rbdock.cxx#4 $)

>  <Rbt.Library>
libRbt.so (2013.1, Build901 2013/11/27)

>  <Rbt.Parameter_File>
/export/apps/rDock/src/rDock_2013.1_src/data/scripts/dock_solv.prm

>  <Rbt.Receptor>
prm/blind_docking_40.prm

>  <SCORE>
-6.43335

>  <SCORE.INTER>
-4.44821

>  <SCORE.INTER.CONST>
1

>  <SCORE.INTER.POLAR>
-0.774364

>  <SCORE.INTER.ROT>
13

>  <SCORE.INTER.SOLV>
10.4695

>  <SCORE.INTER.VDW>
-16.1408

>  <SCORE.INTER.norm>
-0.127092

>  <SCORE.INTRA>
-3.19607

>  <SCORE.INTRA.DIHEDRAL>
-15.2821

>  <SCORE.INTRA.DIHEDRAL.0>
23.8882

>  <SCORE.INTRA.POLAR>
0

>  <SCORE.INTRA.POLAR.0>
0

>  <SCORE.INTRA.REPUL>
0.0103771

>  <SCORE.INTRA.REPUL.0>
0

>  <SCORE.INTRA.SOLV>
1.98934

>  <SCORE.INTRA.SOLV.lig_0>
-97.6888

>  <SCORE.INTRA.VDW>
3.39843

>  <SCORE.INTRA.VDW.0>
-3.9206

>  <SCORE.INTRA.norm>
-0.0913161

>  <SCORE.RESTR>
1.21093

>  <SCORE.RESTR.CAVITY>
1.21093

>  <SCORE.RESTR.norm>
0.034598

>  <SCORE.SYSTEM>
0

>  <SCORE.SYSTEM.CONST>
0

>  <SCORE.SYSTEM.DIHEDRAL>
0

>  <SCORE.SYSTEM.SOLV>
0

>  <SCORE.SYSTEM.norm>
0

>  <SCORE.heavy>
35

>  <SCORE.norm>
-0.18381

>  <RMSD>
30.070

$$$$
2f4t_lig
 OpenBabel11021811433D
libRbt.so/2013.1/901 2013/11/27
 35 36  0  0  0  0  0  0  0  0999 V2000
   11.7678   15.3165   10.0008 C   0  0  2  0  0  0  0  0  0  0  0  0
   11.0459   15.4609    8.7338 O   0  0  0  0  0  0  0  0  0  0  0  0
    7.8084   12.6348    9.1680 C   0  0  2  0  0  0  0  0  0  0  0  0
    6.4737   12.0309    9.0387 N   0  0  0  0  0  0  0  0  0  0  0  0
   13.2350   15.7529    9.7068 C   0  0  2  0  0  0  0  0  0  0  0  0
   13.2702   17.0928    9.1693 N   0  0  0  0  0  0  0  0  0  0  0  0
    7.6616   14.1114    9.6891 C   0  0  0  0  0  0  0  0  0  0  0  0
    6.2232   10.8665   10.3426 C   0  0  0  0  0  0  0  0  0  0  0  0
    4.8573   10.6401    9.7333 C   0  0  1  0  0  0  0  0  0  0  0  0
    5.0266    9.6566    8.5732 C   0  0  0  0  0  0  0  0  0  0  0  0
    3.8895    9.6465    7.5377 C   0  0  0  0  0  0  0  0  0  0  0  0
    3.9328   10.9071    6.7906 N   0  0  0  0  0  0  0  0  0  0  0  0
    3.9979   10.0115   10.6479 O   0  0  0  0  0  0  0  0  0  0  0  0
    8.7213    9.9225    7.3686 C   0  0  0  0  0  0  0  0  0  0  0  0
    9.0315    9.4123    5.9697 C   0  0  0  0  0  0  0  0  0  0  0  0
   13.9085   14.7434    8.7171 C   0  0  1  0  0  0  0  0  0  0  0  0
    9.6132    8.0522    5.9519 N   0  0  0  0  0  0  0  0  0  0  0  0
   15.2437   15.1191    8.4406 O   0  0  0  0  0  0  0  0  0  0  0  0
    9.0234   14.8044    9.8363 C   0  0  2  0  0  0  0  0  0  0  0  0
    8.8589   16.1846   10.2816 N   0  0  0  0  0  0  0  0  0  0  0  0
   11.5563    8.4371    7.4710 C   0  0  0  0  0  0  0  0  0  0  0  0
   13.0994    8.6679    7.5580 N   0  0  0  0  0  0  0  0  0  0  0  0
   11.0847    7.8678    6.1003 C   0  0  0  0  0  0  0  0  0  0  0  0
    6.8127   10.5220   11.1630 O   0  0  0  0  0  0  0  0  0  0  0  0
   13.8578   13.3499    9.3521 C   0  0  2  0  0  0  0  0  0  0  0  0
   14.4655   12.3849    8.5088 O   0  0  0  0  0  0  0  0  0  0  0  0
    9.7635   14.7956    8.5221 C   0  0  2  0  0  0  0  0  0  0  0  0
   12.3821   12.9558    9.6490 C   0  0  2  0  0  0  0  0  0  0  0  0
   11.7481   13.9255   10.5089 O   0  0  0  0  0  0  0  0  0  0  0  0
    9.9431   13.3040    8.0046 C   0  0  2  0  0  0  0  0  0  0  0  0
   10.6664   13.3342    6.7377 O   0  0  0  0  0  0  0  0  0  0  0  0
   12.2828   11.6242   10.2924 C   0  0  0  0  0  0  0  0  0  0  0  0
   11.5451   10.8022    9.5140 N   0  0  0  0  0  0  0  0  0  0  0  0
    8.5259   12.6616    7.8095 C   0  0  1  0  0  0  0  0  0  0  0  0
    8.6486   11.3610    7.3287 O   0  0  0  0  0  0  0  0  0  0  0  0
  1  2  1  6  0  0  0
  1  5  1  0  0  0  0
  1 29  1  0  0  0  0
  3  4  1  6  0  0  0
  3  7  1  0  0  0  0
  3 34  1  0  0  0  0
  5  6  1  6  0  0  0
  5 16  1  0  0  0  0
  7 19  1  0  0  0  0
  8  4  1  0  0  0  0
  8 24  2  0  0  0  0
  9  8  1  1  0  0  0
  9 10  1  0  0  0  0
  9 13  1  0  0  0  0
 10 11  1  0  0  0  0
 11 12  1  0  0  0  0
 14 15  1  0  0  0  0
 14 35  1  0  0  0  0
 15 17  1  0  0  0  0
 16 18  1  1  0  0  0
 16 25  1  0  0  0  0
 19 20  1  6  0  0  0
 19 27  1  0  0  0  0
 21 22  1  0  0  0  0
 21 23  1  0  0  0  0
 23 17  1  0  0  0  0
 25 26  1  6  0  0  0
 25 28  1  0  0  0  0
 27  2  1  1  0  0  0
 27 30  1  0  0  0  0
 28 29  1  0  0  0  0
 28 32  1  1  0  0  0
 30 31  1  6  0  0  0
 30 34  1  0  0  0  0
 32 33  2  0  0  0  0
 34 35  1  1  0  0  0
M  END
>  <CHROM.1>
162.35219205,-106.37658064,82.12179236,-160.31045598,69.49326469,158.76374833
-174.91582528,-86.47098489,-163.44632844,60.66855933,35.51781575,-120.01263013
-22.92553517,9.72545692,12.22927150,8.68216031,0.51170299,0.15758198,0.40497008

>  <Name>
2f4t_lig

>  <RI>
0

>  <Rbt.Current_Directory>
/home/itssahil/PROJECTS/Mol_Feturizer/New_Systems/rnas/2f4t

>  <Rbt.Executable>
rbdock ($Id: //depot/dev/client3/rdock/2013.1/src/exe/rbdock.cxx#4 $)

>  <Rbt.Library>
libRbt.so (2013.1, Build901 2013/11/27)

>  <Rbt.Parameter_File>
/export/apps/rDock/src/rDock_2013.1_src/data/scripts/dock_solv.prm

>  <Rbt.Receptor>
prm/blind_docking_100.prm

>  <SCORE>
-0.290344

>  <SCORE.INTER>
0.330383

>  <SCORE.INTER.CONST>
1

>  <SCORE.INTER.POLAR>
0

>  <SCORE.INTER.ROT>
13

>  <SCORE.INTER.SOLV>
11.7764

>  <SCORE.INTER.VDW>
-15.9719

>  <SCORE.INTER.norm>
0.00943952

>  <SCORE.INTRA>
-1.60491

>  <SCORE.INTRA.DIHEDRAL>
-7.13419

>  <SCORE.INTRA.DIHEDRAL.0>
23.8882

>  <SCORE.INTRA.POLAR>
0

>  <SCORE.INTRA.POLAR.0>
0

>  <SCORE.INTRA.REPUL>
0

>  <SCORE.INTRA.REPUL.0>
0

>  <SCORE.INTRA.SOLV>
3.80409

>  <SCORE.INTRA.SOLV.lig_0>
-97.6888

>  <SCORE.INTRA.VDW>
0.060139

>  <SCORE.INTRA.VDW.0>
-3.9206

>  <SCORE.INTRA.norm>
-0.0458545

>  <SCORE.RESTR>
0.984182

>  <SCORE.RESTR.CAVITY>
0.984182

>  <SCORE.RESTR.norm>
0.0281195

>  <SCORE.SYSTEM>
0

>  <SCORE.SYSTEM.CONST>
0

>  <SCORE.SYSTEM.DIHEDRAL>
0

>  <SCORE.SYSTEM.SOLV>
0

>  <SCORE.SYSTEM.norm>
0

>  <SCORE.heavy>
35

>  <SCORE.norm>
-0.00829554

>  <RMSD>
30.071

$$$$
2f4t_lig
 OpenBabel11021811433D
libRbt.so/2013.1/901 2013/11/27
 35 36  0  0  0  0  0  0  0  0999 V2000
   12.3056   15.2501    9.8641 C   0  0  2  0  0  0  0  0  0  0  0  0
   11.6224   15.3848    8.5748 O   0  0  0  0  0  0  0  0  0  0  0  0
    8.2454   12.7172    8.9448 C   0  0  2  0  0  0  0  0  0  0  0  0
    6.8766   12.1942    8.8201 N   0  0  0  0  0  0  0  0  0  0  0  0
   13.8302   15.3205    9.5472 C   0  0  2  0  0  0  0  0  0  0  0  0
   14.1493   16.5426    8.8471 N   0  0  0  0  0  0  0  0  0  0  0  0
    8.1935   14.1681    9.5494 C   0  0  0  0  0  0  0  0  0  0  0  0
    6.3351   11.5772   10.3838 C   0  0  0  0  0  0  0  0  0  0  0  0
    5.0380   11.2416    9.6816 C   0  0  1  0  0  0  0  0  0  0  0  0
    5.0520    9.7417    9.3783 C   0  0  0  0  0  0  0  0  0  0  0  0
    5.8398    9.3231    8.1255 C   0  0  0  0  0  0  0  0  0  0  0  0
    5.6194    7.8920    7.8971 N   0  0  0  0  0  0  0  0  0  0  0  0
    3.9394   11.4522   10.5294 O   0  0  0  0  0  0  0  0  0  0  0  0
    8.4747   10.2294    6.5617 C   0  0  0  0  0  0  0  0  0  0  0  0
    9.5920    9.5127    5.8191 C   0  0  0  0  0  0  0  0  0  0  0  0
   14.2628   14.0730    8.7052 C   0  0  1  0  0  0  0  0  0  0  0  0
    9.2816    8.1010    5.5037 N   0  0  0  0  0  0  0  0  0  0  0  0
   15.6455   14.1152    8.4107 O   0  0  0  0  0  0  0  0  0  0  0  0
    9.5948   14.7775    9.6960 C   0  0  2  0  0  0  0  0  0  0  0  0
    9.5179   16.1374   10.2203 N   0  0  0  0  0  0  0  0  0  0  0  0
   11.3755    7.0339    6.3453 C   0  0  0  0  0  0  0  0  0  0  0  0
   11.9934    8.2426    7.1194 N   0  0  0  0  0  0  0  0  0  0  0  0
    9.8185    7.0086    6.3638 C   0  0  0  0  0  0  0  0  0  0  0  0
    6.7753   11.5035   11.3533 O   0  0  0  0  0  0  0  0  0  0  0  0
   13.9176   12.8147    9.5085 C   0  0  2  0  0  0  0  0  0  0  0  0
   14.2967   11.6430    8.8049 O   0  0  0  0  0  0  0  0  0  0  0  0
   10.3002   14.8023    8.3631 C   0  0  2  0  0  0  0  0  0  0  0  0
   12.3940   12.7875    9.8228 C   0  0  2  0  0  0  0  0  0  0  0  0
   11.9904   13.9715   10.5418 O   0  0  0  0  0  0  0  0  0  0  0  0
   10.3841   13.3345    7.7603 C   0  0  2  0  0  0  0  0  0  0  0  0
   11.0762   13.3965    6.4773 O   0  0  0  0  0  0  0  0  0  0  0  0
   12.0149   11.6006   10.6256 C   0  0  0  0  0  0  0  0  0  0  0  0
   10.8115   11.1445   10.2139 N   0  0  0  0  0  0  0  0  0  0  0  0
    8.9292   12.7812    7.5702 C   0  0  1  0  0  0  0  0  0  0  0  0
    8.9677   11.5048    7.0161 O   0  0  0  0  0  0  0  0  0  0  0  0
  1  2  1  6  0  0  0
  1  5  1  0  0  0  0
  1 29  1  0  0  0  0
  3  4  1  6  0  0  0
  3  7  1  0  0  0  0
  3 34  1  0  0  0  0
  5  6  1  6  0  0  0
  5 16  1  0  0  0  0
  7 19  1  0  0  0  0
  8  4  1  0  0  0  0
  8 24  2  0  0  0  0
  9  8  1  1  0  0  0
  9 10  1  0  0  0  0
  9 13  1  0  0  0  0
 10 11  1  0  0  0  0
 11 12  1  0  0  0  0
 14 15  1  0  0  0  0
 14 35  1  0  0  0  0
 15 17  1  0  0  0  0
 16 18  1  1  0  0  0
 16 25  1  0  0  0  0
 19 20  1  6  0  0  0
 19 27  1  0  0  0  0
 21 22  1  0  0  0  0
 21 23  1  0  0  0  0
 23 17  1  0  0  0  0
 25 26  1  6  0  0  0
 25 28  1  0  0  0  0
 27  2  1  1  0  0  0
 27 30  1  0  0  0  0
 28 29  1  0  0  0  0
 28 32  1  1  0  0  0
 30 31  1  6  0  0  0
 30 34  1  0  0  0  0
 32 33  2  0  0  0  0
 34 35  1  1  0  0  0
M  END
>  <CHROM.1>
152.74712108,-81.03733555,101.24220519,-81.21330648,-173.42537126,170.18889801
171.79650038,-99.29256536,71.30606574,-61.05486903,28.96813146,-142.29639770
52.74849291,9.96557414,12.08859351,8.64575102,0.58275503,0.22057859,0.47134446

>  <Name>
2f4t_lig

>  <RI>
0

>  <Rbt.Current_Directory>
/home/itssahil/PROJECTS/Mol_Feturizer/New_Systems/rnas/2f4t

>  <Rbt.Executable>
rbdock ($Id: //depot/dev/client3/rdock/2013.1/src/exe/rbdock.cxx#4 $)

>  <Rbt.Library>
libRbt.so (2013.1, Build901 2013/11/27)

>  <Rbt.Parameter_File>
/export/apps/rDock/src/rDock_2013.1_src/data/scripts/dock_solv.prm

>  <Rbt.Receptor>
prm/blind_docking_80.prm

>  <SCORE>
-1.87075

>  <SCORE.INTER>
-1.73283

>  <SCORE.INTER.CONST>
1

>  <SCORE.INTER.POLAR>
0

>  <SCORE.INTER.ROT>
13

>  <SCORE.INTER.SOLV>
11.8936

>  <SCORE.INTER.VDW>
-17.3864

>  <SCORE.INTER.norm>
-0.0495095

>  <SCORE.INTRA>
-1.65614

>  <SCORE.INTRA.DIHEDRAL>
-9.53252

>  <SCORE.INTRA.DIHEDRAL.0>
23.8882

>  <SCORE.INTRA.POLAR>
0

>  <SCORE.INTRA.POLAR.0>
0

>  <SCORE.INTRA.REPUL>
0.00540742

>  <SCORE.INTRA.REPUL.0>
0

>  <SCORE.INTRA.SOLV>
4.14541

>  <SCORE.INTRA.SOLV.lig_0>
-97.6888

>  <SCORE.INTRA.VDW>
1.01038

>  <SCORE.INTRA.VDW.0>
-3.9206

>  <SCORE.INTRA.norm>
-0.0473182

>  <SCORE.RESTR>
1.51821

>  <SCORE.RESTR.CAVITY>
1.51821

>  <SCORE.RESTR.norm>
0.0433775

>  <SCORE.SYSTEM>
0

>  <SCORE.SYSTEM.CONST>
0

>  <SCORE.SYSTEM.DIHEDRAL>
0

>  <SCORE.SYSTEM.SOLV>
0

>  <SCORE.SYSTEM.norm>
0

>  <SCORE.heavy>
35

>  <SCORE.norm>
-0.0534501

>  <RMSD>
30.075

$$$$
2f4t_lig
 OpenBabel11021811433D
libRbt.so/2013.1/901 2013/11/27
 35 36  0  0  0  0  0  0  0  0999 V2000
   11.8689   15.0326    9.5388 C   0  0  2  0  0  0  0  0  0  0  0  0
   11.3095   14.9221    8.1890 O   0  0  0  0  0  0  0  0  0  0  0  0
    8.0591   12.1171    8.6627 C   0  0  2  0  0  0  0  0  0  0  0  0
    6.7366   11.4939    8.5038 N   0  0  0  0  0  0  0  0  0  0  0  0
   13.3881   15.3244    9.3474 C   0  0  2  0  0  0  0  0  0  0  0  0
   13.5823   16.5066    8.5411 N   0  0  0  0  0  0  0  0  0  0  0  0
    7.8765   13.6313    9.0467 C   0  0  0  0  0  0  0  0  0  0  0  0
    6.2519   10.7401   10.0255 C   0  0  0  0  0  0  0  0  0  0  0  0
    4.9839   10.3447    9.3017 C   0  0  1  0  0  0  0  0  0  0  0  0
    5.2033    8.9482    8.7155 C   0  0  0  0  0  0  0  0  0  0  0  0
    4.0744    8.4192    7.8150 C   0  0  0  0  0  0  0  0  0  0  0  0
    3.9015    9.3493    6.6952 N   0  0  0  0  0  0  0  0  0  0  0  0
    3.9117   10.2207   10.1992 O   0  0  0  0  0  0  0  0  0  0  0  0
    8.6403    9.3881    6.5269 C   0  0  0  0  0  0  0  0  0  0  0  0
    9.9034    8.5658    6.3223 C   0  0  0  0  0  0  0  0  0  0  0  0
   14.0951   14.0889    8.6948 C   0  0  1  0  0  0  0  0  0  0  0  0
   10.7000    8.9877    5.1493 N   0  0  0  0  0  0  0  0  0  0  0  0
   15.4770   14.3316    8.5166 O   0  0  0  0  0  0  0  0  0  0  0  0
    9.2248   14.3451    9.2175 C   0  0  2  0  0  0  0  0  0  0  0  0
    9.0293   15.7566    9.5332 N   0  0  0  0  0  0  0  0  0  0  0  0
   13.0347    9.4111    5.9247 C   0  0  0  0  0  0  0  0  0  0  0  0
   12.7743    8.6517    7.2654 N   0  0  0  0  0  0  0  0  0  0  0  0
   11.7518   10.0331    5.2982 C   0  0  0  0  0  0  0  0  0  0  0  0
    6.6998   10.6426   10.9893 O   0  0  0  0  0  0  0  0  0  0  0  0
   13.8703   12.8772    9.6052 C   0  0  2  0  0  0  0  0  0  0  0  0
   14.4987   11.7208    9.0762 O   0  0  0  0  0  0  0  0  0  0  0  0
   10.0444   14.2311    7.9565 C   0  0  2  0  0  0  0  0  0  0  0  0
   12.3456   12.6276    9.7892 C   0  0  2  0  0  0  0  0  0  0  0  0
   11.6896   13.7934   10.3298 O   0  0  0  0  0  0  0  0  0  0  0  0
   10.2596   12.7026    7.5794 C   0  0  2  0  0  0  0  0  0  0  0  0
   11.0595   12.6313    6.3611 O   0  0  0  0  0  0  0  0  0  0  0  0
   12.0763   11.4802   10.6880 C   0  0  0  0  0  0  0  0  0  0  0  0
   11.7563   10.3951    9.9491 N   0  0  0  0  0  0  0  0  0  0  0  0
    8.8588   12.0347    7.3532 C   0  0  1  0  0  0  0  0  0  0  0  0
    9.0145   10.6991    6.9930 O   0  0  0  0  0  0  0  0  0  0  0  0
  1  2  1  6  0  0  0
  1  5  1  0  0  0  0
  1 29  1  0  0  0  0
  3  4  1  6  0  0  0
  3  7  1  0  0  0  0
  3 34  1  0  0  0  0
  5  6  1  6  0  0  0
  5 16  1  0  0  0  0
  7 19  1  0  0  0  0
  8  4  1  0  0  0  0
  8 24  2  0  0  0  0
  9  8  1  1  0  0  0
  9 10  1  0  0  0  0
  9 13  1  0  0  0  0
 10 11  1  0  0  0  0
 11 12  1  0  0  0  0
 14 15  1  0  0  0  0
 14 35  1  0  0  0  0
 15 17  1  0  0  0  0
 16 18  1  1  0  0  0
 16 25  1  0  0  0  0
 19 20  1  6  0  0  0
 19 27  1  0  0  0  0
 21 22  1  0  0  0  0
 21 23  1  0  0  0  0
 23 17  1  0  0  0  0
 25 26  1  6  0  0  0
 25 28  1  0  0  0  0
 27  2  1  1  0  0  0
 27 30  1  0  0  0  0
 28 29  1  0  0  0  0
 28 32  1  1  0  0  0
 30 31  1  6  0  0  0
 30 34  1  0  0  0  0
 32 33  2  0  0  0  0
 34 35  1  1  0  0  0
M  END
>  <CHROM.1>
159.49146375,-93.75905445,92.49324137,-174.06653118,59.04955613,-71.84855264
171.30083507,89.51490496,-53.66195410,78.63357927,27.87017768,-101.32037262
70.61572663,9.95315829,11.88886798,8.38459304,0.42071192,0.21814091,0.53241405

>  <Name>
2f4t_lig

>  <RI>
0

>  <Rbt.Current_Directory>
/home/itssahil/PROJECTS/Mol_Feturizer/New_Systems/rnas/2f4t

>  <Rbt.Executable>
rbdock ($Id: //depot/dev/client3/rdock/2013.1/src/exe/rbdock.cxx#4 $)

>  <Rbt.Library>
libRbt.so (2013.1, Build901 2013/11/27)

>  <Rbt.Parameter_File>
/export/apps/rDock/src/rDock_2013.1_src/data/scripts/dock_solv.prm

>  <Rbt.Receptor>
prm/blind_docking_100.prm

>  <SCORE>
-5.42981

>  <SCORE.INTER>
-3.21196

>  <SCORE.INTER.CONST>
1

>  <SCORE.INTER.POLAR>
-0.896871

>  <SCORE.INTER.ROT>
13

>  <SCORE.INTER.SOLV>
11.2215

>  <SCORE.INTER.VDW>
-15.1589

>  <SCORE.INTER.norm>
-0.0917704

>  <SCORE.INTRA>
-2.91216

>  <SCORE.INTRA.DIHEDRAL>
-12.0224

>  <SCORE.INTRA.DIHEDRAL.0>
23.8882

>  <SCORE.INTRA.POLAR>
0

>  <SCORE.INTRA.POLAR.0>
0

>  <SCORE.INTRA.REPUL>
2.65969e-05

>  <SCORE.INTRA.REPUL.0>
0

>  <SCORE.INTRA.SOLV>
6.65768

>  <SCORE.INTRA.SOLV.lig_0>
-97.6888

>  <SCORE.INTRA.VDW>
-0.22994

>  <SCORE.INTRA.VDW.0>
-3.9206

>  <SCORE.INTRA.norm>
-0.0832046

>  <SCORE.RESTR>
0.694318

>  <SCORE.RESTR.CAVITY>
0.694318

>  <SCORE.RESTR.norm>
0.0198377

>  <SCORE.SYSTEM>
0

>  <SCORE.SYSTEM.CONST>
0

>  <SCORE.SYSTEM.DIHEDRAL>
0

>  <SCORE.SYSTEM.SOLV>
0

>  <SCORE.SYSTEM.norm>
0

>  <SCORE.heavy>
35

>  <SCORE.norm>
-0.155137

>  <RMSD>
30.076

$$$$
2f4t_lig
 OpenBabel11021811433D
libRbt.so/2013.1/901 2013/11/27
 35 36  0  0  0  0  0  0  0  0999 V2000
   11.8362   15.3357    9.9410 C   0  0  2  0  0  0  0  0  0  0  0  0
   11.1365   15.4199    8.6562 O   0  0  0  0  0  0  0  0  0  0  0  0
    8.0005   12.4788    9.0718 C   0  0  2  0  0  0  0  0  0  0  0  0
    6.6875   11.8297    8.9393 N   0  0  0  0  0  0  0  0  0  0  0  0
   13.3039   15.7763    9.6560 C   0  0  2  0  0  0  0  0  0  0  0  0
   13.3349   17.0933    9.0644 N   0  0  0  0  0  0  0  0  0  0  0  0
    7.8030   13.9452    9.6051 C   0  0  0  0  0  0  0  0  0  0  0  0
    6.1379   11.2792   10.5248 C   0  0  0  0  0  0  0  0  0  0  0  0
    4.9038   10.7819    9.8054 C   0  0  1  0  0  0  0  0  0  0  0  0
    5.0967    9.2876    9.5370 C   0  0  0  0  0  0  0  0  0  0  0  0
    6.0978    8.9349    8.4241 C   0  0  0  0  0  0  0  0  0  0  0  0
    5.5442    9.3860    7.1438 N   0  0  0  0  0  0  0  0  0  0  0  0
    3.7698   10.8817   10.6266 O   0  0  0  0  0  0  0  0  0  0  0  0
    9.2519   10.2095    6.2958 C   0  0  0  0  0  0  0  0  0  0  0  0
   10.7443   10.3117    6.0204 C   0  0  0  0  0  0  0  0  0  0  0  0
   14.0063   14.7347    8.7211 C   0  0  1  0  0  0  0  0  0  0  0  0
   11.3094    9.1086    5.3710 N   0  0  0  0  0  0  0  0  0  0  0  0
   15.3424   15.1138    8.4536 O   0  0  0  0  0  0  0  0  0  0  0  0
    9.1400   14.6842    9.7561 C   0  0  2  0  0  0  0  0  0  0  0  0
    8.9279   16.0541   10.2128 N   0  0  0  0  0  0  0  0  0  0  0  0
   10.3230    6.9263    6.0754 C   0  0  0  0  0  0  0  0  0  0  0  0
   10.4748    5.6140    6.9101 N   0  0  0  0  0  0  0  0  0  0  0  0
   11.5547    7.8746    6.1702 C   0  0  0  0  0  0  0  0  0  0  0  0
    6.5432   11.3131   11.5116 O   0  0  0  0  0  0  0  0  0  0  0  0
   13.9585   13.3679    9.4121 C   0  0  2  0  0  0  0  0  0  0  0  0
   14.5919   12.3760    8.6205 O   0  0  0  0  0  0  0  0  0  0  0  0
    9.8778   14.7118    8.4408 C   0  0  2  0  0  0  0  0  0  0  0  0
   12.4818   12.9697    9.6982 C   0  0  2  0  0  0  0  0  0  0  0  0
   11.8217   13.9666   10.5056 O   0  0  0  0  0  0  0  0  0  0  0  0
   10.1086   13.2316    7.9110 C   0  0  2  0  0  0  0  0  0  0  0  0
   10.8284   13.2973    6.6435 O   0  0  0  0  0  0  0  0  0  0  0  0
   12.3846   11.6646   10.3940 C   0  0  0  0  0  0  0  0  0  0  0  0
   12.0870   10.6980    9.4981 N   0  0  0  0  0  0  0  0  0  0  0  0
    8.7144   12.5416    7.7126 C   0  0  1  0  0  0  0  0  0  0  0  0
    8.8818   11.2500    7.2212 O   0  0  0  0  0  0  0  0  0  0  0  0
  1  2  1  6  0  0  0
  1  5  1  0  0  0  0
  1 29  1  0  0  0  0
  3  4  1  6  0  0  0
  3  7  1  0  0  0  0
  3 34  1  0  0  0  0
  5  6  1  6  0  0  0
  5 16  1  0  0  0  0
  7 19  1  0  0  0  0
  8  4  1  0  0  0  0
  8 24  2  0  0  0  0
  9  8  1  1  0  0  0
  9 10  1  0  0  0  0
  9 13  1  0  0  0  0
 10 11  1  0  0  0  0
 11 12  1  0  0  0  0
 14 15  1  0  0  0  0
 14 35  1  0  0  0  0
 15 17  1  0  0  0  0
 16 18  1  1  0  0  0
 16 25  1  0  0  0  0
 19 20  1  6  0  0  0
 19 27  1  0  0  0  0
 21 22  1  0  0  0  0
 21 23  1  0  0  0  0
 23 17  1  0  0  0  0
 25 26  1  6  0  0  0
 25 28  1  0  0  0  0
 27  2  1  1  0  0  0
 27 30  1  0  0  0  0
 28 29  1  0  0  0  0
 28 32  1  1  0  0  0
 30 31  1  6  0  0  0
 30 34  1  0  0  0  0
 32 33  2  0  0  0  0
 34 35  1  1  0  0  0
M  END
>  <CHROM.1>
161.20782890,-79.42573408,97.79373942,-73.64178341,-67.19694225,165.15861031
59.95042870,-76.04358360,-178.73511674,93.44276383,32.91329299,-99.59096040
176.12247629,9.92447531,12.12298132,8.63521024,0.62106886,0.26379306,0.45033373

>  <Name>
2f4t_lig

>  <RI>
0

>  <Rbt.Current_Directory>
/home/itssahil/PROJECTS/Mol_Feturizer/New_Systems/rnas/2f4t

>  <Rbt.Executable>
rbdock ($Id: //depot/dev/client3/rdock/2013.1/src/exe/rbdock.cxx#4 $)

>  <Rbt.Library>
libRbt.so (2013.1, Build901 2013/11/27)

>  <Rbt.Parameter_File>
/export/apps/rDock/src/rDock_2013.1_src/data/scripts/dock_solv.prm

>  <Rbt.Receptor>
prm/blind_docking_100.prm

>  <SCORE>
-12.1221

>  <SCORE.INTER>
-8.89735

>  <SCORE.INTER.CONST>
1

>  <SCORE.INTER.POLAR>
-1.70253

>  <SCORE.INTER.ROT>
13

>  <SCORE.INTER.SOLV>
14.2193

>  <SCORE.INTER.VDW>
-17.2629

>  <SCORE.INTER.norm>
-0.25421

>  <SCORE.INTRA>
-5.20111

>  <SCORE.INTRA.DIHEDRAL>
-13.3605

>  <SCORE.INTRA.DIHEDRAL.0>
23.8882

>  <SCORE.INTRA.POLAR>
0

>  <SCORE.INTRA.POLAR.0>
0

>  <SCORE.INTRA.REPUL>
0

>  <SCORE.INTRA.REPUL.0>
0

>  <SCORE.INTRA.SOLV>
3.52105

>  <SCORE.INTRA.SOLV.lig_0>
-97.6888

>  <SCORE.INTRA.VDW>
-0.281365

>  <SCORE.INTRA.VDW.0>
-3.9206

>  <SCORE.INTRA.norm>
-0.148603

>  <SCORE.RESTR>
1.9764

>  <SCORE.RESTR.CAVITY>
1.9764

>  <SCORE.RESTR.norm>
0.0564684

>  <SCORE.SYSTEM>
0

>  <SCORE.SYSTEM.CONST>
0

>  <SCORE.SYSTEM.DIHEDRAL>
0

>  <SCORE.SYSTEM.SOLV>
0

>  <SCORE.SYSTEM.norm>
0

>  <SCORE.heavy>
35

>  <SCORE.norm>
-0.346345

>  <RMSD>
30.083

$$$$
2f4t_lig
 OpenBabel11021811433D
libRbt.so/2013.1/901 2013/11/27
 35 36  0  0  0  0  0  0  0  0999 V2000
   11.4672   15.2306    9.2176 C   0  0  2  0  0  0  0  0  0  0  0  0
   10.8612   14.9302    7.9177 O   0  0  0  0  0  0  0  0  0  0  0  0
    7.2491   12.8506    9.0514 C   0  0  2  0  0  0  0  0  0  0  0  0
    5.8633   12.3608    9.0047 N   0  0  0  0  0  0  0  0  0  0  0  0
   12.9707   15.5235    8.9288 C   0  0  2  0  0  0  0  0  0  0  0  0
   13.1060   16.5910    7.9657 N   0  0  0  0  0  0  0  0  0  0  0  0
    7.2538   14.4128    8.8697 C   0  0  0  0  0  0  0  0  0  0  0  0
    5.7200   10.8987    9.9848 C   0  0  0  0  0  0  0  0  0  0  0  0
    4.2609   10.9031    9.5856 C   0  0  1  0  0  0  0  0  0  0  0  0
    4.0597    9.7852    8.5601 C   0  0  0  0  0  0  0  0  0  0  0  0
    4.5655   10.0861    7.1392 C   0  0  0  0  0  0  0  0  0  0  0  0
    3.7077   11.1197    6.5519 N   0  0  0  0  0  0  0  0  0  0  0  0
    3.4412   10.5758   10.6769 O   0  0  0  0  0  0  0  0  0  0  0  0
    8.4503    9.4667    7.8229 C   0  0  0  0  0  0  0  0  0  0  0  0
    9.9203    9.2942    8.1731 C   0  0  0  0  0  0  0  0  0  0  0  0
   13.6831   14.2258    8.4181 C   0  0  1  0  0  0  0  0  0  0  0  0
   10.4882    8.0049    7.7217 N   0  0  0  0  0  0  0  0  0  0  0  0
   15.0512   14.4692    8.1543 O   0  0  0  0  0  0  0  0  0  0  0  0
    8.6767   14.9880    8.8984 C   0  0  2  0  0  0  0  0  0  0  0  0
    8.6579   16.4321    8.6874 N   0  0  0  0  0  0  0  0  0  0  0  0
   12.4381    8.7640    6.3603 C   0  0  0  0  0  0  0  0  0  0  0  0
   13.0018    9.0089    4.9236 N   0  0  0  0  0  0  0  0  0  0  0  0
   11.1402    7.9035    6.3853 C   0  0  0  0  0  0  0  0  0  0  0  0
    6.3986   10.3209   10.5720 O   0  0  0  0  0  0  0  0  0  0  0  0
   13.5218   13.1423    9.4893 C   0  0  2  0  0  0  0  0  0  0  0  0
   14.1582   11.9381    9.0938 O   0  0  0  0  0  0  0  0  0  0  0  0
    9.5262   14.3451    7.8307 C   0  0  2  0  0  0  0  0  0  0  0  0
   12.0114   12.8902    9.7655 C   0  0  2  0  0  0  0  0  0  0  0  0
   11.3476   14.1048   10.1725 O   0  0  0  0  0  0  0  0  0  0  0  0
    9.5516   12.7684    8.0266 C   0  0  2  0  0  0  0  0  0  0  0  0
   10.3855   12.1824    6.9824 O   0  0  0  0  0  0  0  0  0  0  0  0
   11.8036   11.8680   10.8185 C   0  0  0  0  0  0  0  0  0  0  0  0
   11.4758   10.6900   10.2437 N   0  0  0  0  0  0  0  0  0  0  0  0
    8.0852   12.2219    7.9258 C   0  0  1  0  0  0  0  0  0  0  0  0
    8.0765   10.8369    8.0655 O   0  0  0  0  0  0  0  0  0  0  0  0
  1  2  1  6  0  0  0
  1  5  1  0  0  0  0
  1 29  1  0  0  0  0
  3  4  1  6  0  0  0
  3  7  1  0  0  0  0
  3 34  1  0  0  0  0
  5  6  1  6  0  0  0
  5 16  1  0  0  0  0
  7 19  1  0  0  0  0
  8  4  1  0  0  0  0
  8 24  2  0  0  0  0
  9  8  1  1  0  0  0
  9 10  1  0  0  0  0
  9 13  1  0  0  0  0
 10 11  1  0  0  0  0
 11 12  1  0  0  0  0
 14 15  1  0  0  0  0
 14 35  1  0  0  0  0
 15 17  1  0  0  0  0
 16 18  1  1  0  0  0
 16 25  1  0  0  0  0
 19 20  1  6  0  0  0
 19 27  1  0  0  0  0
 21 22  1  0  0  0  0
 21 23  1  0  0  0  0
 23 17  1  0  0  0  0
 25 26  1  6  0  0  0
 25 28  1  0  0  0  0
 27  2  1  1  0  0  0
 27 30  1  0  0  0  0
 28 29  1  0  0  0  0
 28 32  1  1  0  0  0
 30 31  1  6  0  0  0
 30 34  1  0  0  0  0
 32 33  2  0  0  0  0
 34 35  1  1  0  0  0
M  END
>  <CHROM.1>
167.45849769,-150.76780653,106.16741479,-76.30915487,-69.02100541,-168.77967791
61.88896231,91.72807797,-165.79195579,66.25080787,38.84246526,-101.66270187
-170.11320095,9.50883276,12.12948420,8.51029316,0.33987349,0.13294160,0.27086860

>  <Name>
2f4t_lig

>  <RI>
0

>  <Rbt.Current_Directory>
/home/itssahil/PROJECTS/Mol_Feturizer/New_Systems/rnas/2f4t

>  <Rbt.Executable>
rbdock ($Id: //depot/dev/client3/rdock/2013.1/src/exe/rbdock.cxx#4 $)

>  <Rbt.Library>
libRbt.so (2013.1, Build901 2013/11/27)

>  <Rbt.Parameter_File>
/export/apps/rDock/src/rDock_2013.1_src/data/scripts/dock_solv.prm

>  <Rbt.Receptor>
prm/blind_docking_40.prm

>  <SCORE>
-7.98706

>  <SCORE.INTER>
-1.78144

>  <SCORE.INTER.CONST>
1

>  <SCORE.INTER.POLAR>
-0.463879

>  <SCORE.INTER.ROT>
13

>  <SCORE.INTER.SOLV>
11.8964

>  <SCORE.INTER.VDW>
-15.8735

>  <SCORE.INTER.norm>
-0.0508983

>  <SCORE.INTRA>
-6.77387

>  <SCORE.INTRA.DIHEDRAL>
-13.792

>  <SCORE.INTRA.DIHEDRAL.0>
23.8882

>  <SCORE.INTRA.POLAR>
0

>  <SCORE.INTRA.POLAR.0>
0

>  <SCORE.INTRA.REPUL>
0

>  <SCORE.INTRA.REPUL.0>
0

>  <SCORE.INTRA.SOLV>
3.18641

>  <SCORE.INTRA.SOLV.lig_0>
-97.6888

>  <SCORE.INTRA.VDW>
-1.47107

>  <SCORE.INTRA.VDW.0>
-3.9206

>  <SCORE.INTRA.norm>
-0.193539

>  <SCORE.RESTR>
0.568251

>  <SCORE.RESTR.CAVITY>
0.568251

>  <SCORE.RESTR.norm>
0.0162357

>  <SCORE.SYSTEM>
0

>  <SCORE.SYSTEM.CONST>
0

>  <SCORE.SYSTEM.DIHEDRAL>
0

>  <SCORE.SYSTEM.SOLV>
0

>  <SCORE.SYSTEM.norm>
0

>  <SCORE.heavy>
35

>  <SCORE.norm>
-0.228202

>  <RMSD>
30.093

$$$$
2f4t_lig
 OpenBabel11021811433D
libRbt.so/2013.1/901 2013/11/27
 35 36  0  0  0  0  0  0  0  0999 V2000
   11.8674   14.5488    9.9804 C   0  0  2  0  0  0  0  0  0  0  0  0
   10.8866   14.7044    8.9029 O   0  0  0  0  0  0  0  0  0  0  0  0
    8.0024   11.6483    9.9025 C   0  0  2  0  0  0  0  0  0  0  0  0
    6.7255   10.9220    9.9715 N   0  0  0  0  0  0  0  0  0  0  0  0
   13.0120   15.5582    9.6631 C   0  0  2  0  0  0  0  0  0  0  0  0
   12.4901   16.8994    9.5437 N   0  0  0  0  0  0  0  0  0  0  0  0
    7.7737   13.1424   10.3373 C   0  0  0  0  0  0  0  0  0  0  0  0
    5.7550   11.2964    8.5443 C   0  0  0  0  0  0  0  0  0  0  0  0
    4.7221   10.3614    9.1337 C   0  0  1  0  0  0  0  0  0  0  0  0
    5.3274    8.9559    9.1494 C   0  0  0  0  0  0  0  0  0  0  0  0
    5.3105    8.2087    7.8054 C   0  0  0  0  0  0  0  0  0  0  0  0
    3.9148    8.0170    7.4000 N   0  0  0  0  0  0  0  0  0  0  0  0
    4.4616   10.6829   10.4749 O   0  0  0  0  0  0  0  0  0  0  0  0
    9.2839    8.9755    8.0830 C   0  0  0  0  0  0  0  0  0  0  0  0
    8.8369    8.2588    6.8180 C   0  0  0  0  0  0  0  0  0  0  0  0
   13.7533   15.1355    8.3500 C   0  0  1  0  0  0  0  0  0  0  0  0
    9.6831    8.5539    5.6410 N   0  0  0  0  0  0  0  0  0  0  0  0
   14.8001   16.0369    8.0464 O   0  0  0  0  0  0  0  0  0  0  0  0
    9.0709   13.9610   10.2768 C   0  0  2  0  0  0  0  0  0  0  0  0
    8.8254   15.3518   10.6450 N   0  0  0  0  0  0  0  0  0  0  0  0
   10.7490   10.6601    4.8292 C   0  0  0  0  0  0  0  0  0  0  0  0
   12.0050    9.8977    4.2970 N   0  0  0  0  0  0  0  0  0  0  0  0
    9.4538    9.7957    4.8493 C   0  0  0  0  0  0  0  0  0  0  0  0
    5.8932   11.9147    7.6854 O   0  0  0  0  0  0  0  0  0  0  0  0
   14.2991   13.7176    8.5480 C   0  0  2  0  0  0  0  0  0  0  0  0
   14.9964   13.2760    7.3944 O   0  0  0  0  0  0  0  0  0  0  0  0
    9.6582   13.9152    8.8883 C   0  0  2  0  0  0  0  0  0  0  0  0
   13.1335   12.7423    8.8816 C   0  0  2  0  0  0  0  0  0  0  0  0
   12.4141   13.1744   10.0551 O   0  0  0  0  0  0  0  0  0  0  0  0
    9.9212   12.4094    8.4542 C   0  0  2  0  0  0  0  0  0  0  0  0
   10.4934   12.4046    7.1119 O   0  0  0  0  0  0  0  0  0  0  0  0
   13.6161   11.3598    9.1111 C   0  0  0  0  0  0  0  0  0  0  0  0
   14.9325   11.3872    9.4146 N   0  0  0  0  0  0  0  0  0  0  0  0
    8.5590   11.6325    8.4703 C   0  0  1  0  0  0  0  0  0  0  0  0
    8.7515   10.3143    8.0665 O   0  0  0  0  0  0  0  0  0  0  0  0
  1  2  1  6  0  0  0
  1  5  1  0  0  0  0
  1 29  1  0  0  0  0
  3  4  1  6  0  0  0
  3  7  1  0  0  0  0
  3 34  1  0  0  0  0
  5  6  1  6  0  0  0
  5 16  1  0  0  0  0
  7 19  1  0  0  0  0
  8  4  1  0  0  0  0
  8 24  2  0  0  0  0
  9  8  1  1  0  0  0
  9 10  1  0  0  0  0
  9 13  1  0  0  0  0
 10 11  1  0  0  0  0
 11 12  1  0  0  0  0
 14 15  1  0  0  0  0
 14 35  1  0  0  0  0
 15 17  1  0  0  0  0
 16 18  1  1  0  0  0
 16 25  1  0  0  0  0
 19 20  1  6  0  0  0
 19 27  1  0  0  0  0
 21 22  1  0  0  0  0
 21 23  1  0  0  0  0
 23 17  1  0  0  0  0
 25 26  1  6  0  0  0
 25 28  1  0  0  0  0
 27  2  1  1  0  0  0
 27 30  1  0  0  0  0
 28 29  1  0  0  0  0
 28 32  1  1  0  0  0
 30 31  1  6  0  0  0
 30 34  1  0  0  0  0
 32 33  2  0  0  0  0
 34 35  1  1  0  0  0
M  END
>  <CHROM.1>
-179.18034628,79.09943128,-65.19157124,-79.05076033,-62.42660509,82.66833199
-171.79088095,-82.33874616,55.57587097,121.55456849,46.04074692,20.53371967
-60.50905257,9.81997358,11.99738566,8.40418841,0.46348212,0.31421721,0.65457537

>  <Name>
2f4t_lig

>  <RI>
0

>  <Rbt.Current_Directory>
/home/itssahil/PROJECTS/Mol_Feturizer/New_Systems/rnas/2f4t

>  <Rbt.Executable>
rbdock ($Id: //depot/dev/client3/rdock/2013.1/src/exe/rbdock.cxx#4 $)

>  <Rbt.Library>
libRbt.so (2013.1, Build901 2013/11/27)

>  <Rbt.Parameter_File>
/export/apps/rDock/src/rDock_2013.1_src/data/scripts/dock_solv.prm

>  <Rbt.Receptor>
prm/blind_docking_80.prm

>  <SCORE>
1.74314

>  <SCORE.INTER>
-0.643847

>  <SCORE.INTER.CONST>
1

>  <SCORE.INTER.POLAR>
-0.916515

>  <SCORE.INTER.ROT>
13

>  <SCORE.INTER.SOLV>
14.405

>  <SCORE.INTER.VDW>
-14.4425

>  <SCORE.INTER.norm>
-0.0183956

>  <SCORE.INTRA>
-0.96841

>  <SCORE.INTRA.DIHEDRAL>
-15.9338

>  <SCORE.INTRA.DIHEDRAL.0>
23.8882

>  <SCORE.INTRA.POLAR>
0

>  <SCORE.INTRA.POLAR.0>
0

>  <SCORE.INTRA.REPUL>
0

>  <SCORE.INTRA.REPUL.0>
0

>  <SCORE.INTRA.SOLV>
4.7307

>  <SCORE.INTRA.SOLV.lig_0>
-97.6888

>  <SCORE.INTRA.VDW>
4.63315

>  <SCORE.INTRA.VDW.0>
-3.9206

>  <SCORE.INTRA.norm>
-0.0276689

>  <SCORE.RESTR>
3.3554

>  <SCORE.RESTR.CAVITY>
3.3554

>  <SCORE.RESTR.norm>
0.0958685

>  <SCORE.SYSTEM>
0

>  <SCORE.SYSTEM.CONST>
0

>  <SCORE.SYSTEM.DIHEDRAL>
0

>  <SCORE.SYSTEM.SOLV>
0

>  <SCORE.SYSTEM.norm>
0

>  <SCORE.heavy>
35

>  <SCORE.norm>
0.049804

>  <RMSD>
30.109

$$$$
2f4t_lig
 OpenBabel11021811433D
libRbt.so/2013.1/901 2013/11/27
 35 36  0  0  0  0  0  0  0  0999 V2000
   11.2152   15.3911   10.4500 C   0  0  2  0  0  0  0  0  0  0  0  0
   10.3443   15.4620    9.2737 O   0  0  0  0  0  0  0  0  0  0  0  0
    8.0308   11.8303    9.6140 C   0  0  2  0  0  0  0  0  0  0  0  0
    6.8995   10.8967    9.5077 N   0  0  0  0  0  0  0  0  0  0  0  0
   12.5845   15.9861   10.0022 C   0  0  2  0  0  0  0  0  0  0  0  0
   12.4146   17.3244    9.4868 N   0  0  0  0  0  0  0  0  0  0  0  0
    7.5435   13.1606   10.2968 C   0  0  0  0  0  0  0  0  0  0  0  0
    5.6897   11.5578    8.4039 C   0  0  0  0  0  0  0  0  0  0  0  0
    4.9027   10.2962    8.6818 C   0  0  1  0  0  0  0  0  0  0  0  0
    3.8125   10.1876    7.6134 C   0  0  0  0  0  0  0  0  0  0  0  0
    4.2983   10.2644    6.1563 C   0  0  0  0  0  0  0  0  0  0  0  0
    3.1254   10.2647    5.2769 N   0  0  0  0  0  0  0  0  0  0  0  0
    5.7086    9.1576    8.5259 O   0  0  0  0  0  0  0  0  0  0  0  0
    9.7491    9.7732    7.4117 C   0  0  0  0  0  0  0  0  0  0  0  0
   10.9377    9.7726    8.3607 C   0  0  0  0  0  0  0  0  0  0  0  0
   13.2474   15.0605    8.9270 C   0  0  1  0  0  0  0  0  0  0  0  0
   11.9016    8.6809    8.1003 N   0  0  0  0  0  0  0  0  0  0  0  0
   14.4949   15.5807    8.5102 O   0  0  0  0  0  0  0  0  0  0  0  0
    8.6788   14.1855   10.4285 C   0  0  2  0  0  0  0  0  0  0  0  0
    8.1932   15.4249   11.0270 N   0  0  0  0  0  0  0  0  0  0  0  0
   12.6554    9.5521    5.8857 C   0  0  0  0  0  0  0  0  0  0  0  0
   11.5407    8.7389    5.1523 N   0  0  0  0  0  0  0  0  0  0  0  0
   13.0955    8.9280    7.2430 C   0  0  0  0  0  0  0  0  0  0  0  0
    5.6099   12.4536    7.8292 O   0  0  0  0  0  0  0  0  0  0  0  0
   13.4187   13.6669    9.5402 C   0  0  2  0  0  0  0  0  0  0  0  0
   14.0283   12.7777    8.6185 O   0  0  0  0  0  0  0  0  0  0  0  0
    9.2720   14.4908    9.0758 C   0  0  2  0  0  0  0  0  0  0  0  0
   12.0368   13.1131    9.9926 C   0  0  2  0  0  0  0  0  0  0  0  0
   11.4026   14.0039   10.9338 O   0  0  0  0  0  0  0  0  0  0  0  0
    9.7951   13.1549    8.3929 C   0  0  2  0  0  0  0  0  0  0  0  0
   10.3662   13.4890    7.0924 O   0  0  0  0  0  0  0  0  0  0  0  0
   12.1544   11.7756   10.6205 C   0  0  0  0  0  0  0  0  0  0  0  0
   10.9264   11.3326   10.9693 N   0  0  0  0  0  0  0  0  0  0  0  0
    8.5889   12.1673    8.2225 C   0  0  1  0  0  0  0  0  0  0  0  0
    9.0098   10.9956    7.6000 O   0  0  0  0  0  0  0  0  0  0  0  0
  1  2  1  6  0  0  0
  1  5  1  0  0  0  0
  1 29  1  0  0  0  0
  3  4  1  6  0  0  0
  3  7  1  0  0  0  0
  3 34  1  0  0  0  0
  5  6  1  6  0  0  0
  5 16  1  0  0  0  0
  7 19  1  0  0  0  0
  8  4  1  0  0  0  0
  8 24  2  0  0  0  0
  9  8  1  6  0  0  0
  9 10  1  0  0  0  0
  9 13  1  0  0  0  0
 10 11  1  0  0  0  0
 11 12  1  0  0  0  0
 14 15  1  0  0  0  0
 14 35  1  0  0  0  0
 15 17  1  0  0  0  0
 16 18  1  1  0  0  0
 16 25  1  0  0  0  0
 19 20  1  6  0  0  0
 19 27  1  0  0  0  0
 21 22  1  0  0  0  0
 21 23  1  0  0  0  0
 23 17  1  0  0  0  0
 25 26  1  6  0  0  0
 25 28  1  0  0  0  0
 27  2  1  1  0  0  0
 27 30  1  0  0  0  0
 28 29  1  0  0  0  0
 28 32  1  1  0  0  0
 30 31  1  6  0  0  0
 30 34  1  0  0  0  0
 32 33  2  0  0  0  0
 34 35  1  1  0  0  0
M  END
>  <CHROM.1>
150.68591319,65.57088635,-165.10559590,53.55111054,-175.03435726,-170.06002427
-16.59938153,94.84061108,-52.40972468,-52.30946013,37.30191618,-178.81286982
-57.81953688,9.66257400,12.30895919,8.64049395,0.54322334,0.02027802,0.47864869

>  <Name>
2f4t_lig

>  <RI>
0

>  <Rbt.Current_Directory>
/home/itssahil/PROJECTS/Mol_Feturizer/New_Systems/rnas/2f4t

>  <Rbt.Executable>
rbdock ($Id: //depot/dev/client3/rdock/2013.1/src/exe/rbdock.cxx#4 $)

>  <Rbt.Library>
libRbt.so (2013.1, Build901 2013/11/27)

>  <Rbt.Parameter_File>
/export/apps/rDock/src/rDock_2013.1_src/data/scripts/dock_solv.prm

>  <Rbt.Receptor>
prm/blind_docking_100.prm

>  <SCORE>
3.51875

>  <SCORE.INTER>
-0.433517

>  <SCORE.INTER.CONST>
1

>  <SCORE.INTER.POLAR>
-0.916515

>  <SCORE.INTER.ROT>
13

>  <SCORE.INTER.SOLV>
14.1373

>  <SCORE.INTER.VDW>
-14.2131

>  <SCORE.INTER.norm>
-0.0123862

>  <SCORE.INTRA>
2.99425

>  <SCORE.INTRA.DIHEDRAL>
-7.65235

>  <SCORE.INTRA.DIHEDRAL.0>
23.8882

>  <SCORE.INTRA.POLAR>
0

>  <SCORE.INTRA.POLAR.0>
0

>  <SCORE.INTRA.REPUL>
0

>  <SCORE.INTRA.REPUL.0>
0

>  <SCORE.INTRA.SOLV>
6.16347

>  <SCORE.INTRA.SOLV.lig_0>
-97.6888

>  <SCORE.INTRA.VDW>
3.73869

>  <SCORE.INTRA.VDW.0>
-3.9206

>  <SCORE.INTRA.norm>
0.0855501

>  <SCORE.RESTR>
0.958012

>  <SCORE.RESTR.CAVITY>
0.958012

>  <SCORE.RESTR.norm>
0.0273718

>  <SCORE.SYSTEM>
0

>  <SCORE.SYSTEM.CONST>
0

>  <SCORE.SYSTEM.DIHEDRAL>
0

>  <SCORE.SYSTEM.SOLV>
0

>  <SCORE.SYSTEM.norm>
0

>  <SCORE.heavy>
35

>  <SCORE.norm>
0.100536

>  <RMSD>
30.114

$$$$
2f4t_lig
 OpenBabel11021811433D
libRbt.so/2013.1/901 2013/11/27
 35 36  0  0  0  0  0  0  0  0999 V2000
   10.5058   14.7742   10.5316 C   0  0  2  0  0  0  0  0  0  0  0  0
    9.6345   14.9067    9.3609 O   0  0  0  0  0  0  0  0  0  0  0  0
    7.7306   11.0354    9.1486 C   0  0  2  0  0  0  0  0  0  0  0  0
    6.7008   10.0123    8.9131 N   0  0  0  0  0  0  0  0  0  0  0  0
   11.7621   15.6454   10.2280 C   0  0  2  0  0  0  0  0  0  0  0  0
   11.3801   17.0082    9.9413 N   0  0  0  0  0  0  0  0  0  0  0  0
    7.1311   12.1777   10.0482 C   0  0  0  0  0  0  0  0  0  0  0  0
    5.2950   10.7550    8.1444 C   0  0  0  0  0  0  0  0  0  0  0  0
    4.6893    9.3690    8.1583 C   0  0  1  0  0  0  0  0  0  0  0  0
    3.2608    9.4841    7.6215 C   0  0  0  0  0  0  0  0  0  0  0  0
    3.0663   10.4627    6.4512 C   0  0  0  0  0  0  0  0  0  0  0  0
    4.0435   10.1367    5.4081 N   0  0  0  0  0  0  0  0  0  0  0  0
    5.3658    8.5168    7.2715 O   0  0  0  0  0  0  0  0  0  0  0  0
    8.9377    9.3146    6.5029 C   0  0  0  0  0  0  0  0  0  0  0  0
    9.5030    9.4152    5.0944 C   0  0  0  0  0  0  0  0  0  0  0  0
   12.5644   15.0335    9.0304 C   0  0  1  0  0  0  0  0  0  0  0  0
   10.9790    9.3291    5.0423 N   0  0  0  0  0  0  0  0  0  0  0  0
   13.7124   15.8074    8.7414 O   0  0  0  0  0  0  0  0  0  0  0  0
    8.1561   13.2867   10.3236 C   0  0  2  0  0  0  0  0  0  0  0  0
    7.5648   14.3535   11.1253 N   0  0  0  0  0  0  0  0  0  0  0  0
   11.6838   11.4649    6.1253 C   0  0  0  0  0  0  0  0  0  0  0  0
   12.2470   12.9080    5.9199 N   0  0  0  0  0  0  0  0  0  0  0  0
   11.7927   10.5643    4.8595 C   0  0  0  0  0  0  0  0  0  0  0  0
    5.0466   11.7457    7.8346 O   0  0  0  0  0  0  0  0  0  0  0  0
   12.9566   13.6002    9.4042 C   0  0  2  0  0  0  0  0  0  0  0  0
   13.7005   12.9891    8.3626 O   0  0  0  0  0  0  0  0  0  0  0  0
    8.6640   13.8679    9.0278 C   0  0  2  0  0  0  0  0  0  0  0  0
   11.6812   12.7663    9.7189 C   0  0  2  0  0  0  0  0  0  0  0  0
   10.9128   13.3719   10.7793 O   0  0  0  0  0  0  0  0  0  0  0  0
    9.2997   12.7240    8.1264 C   0  0  2  0  0  0  0  0  0  0  0  0
    9.7845   13.3226    6.8871 O   0  0  0  0  0  0  0  0  0  0  0  0
   12.0115   11.3768   10.1152 C   0  0  0  0  0  0  0  0  0  0  0  0
   10.9906   10.8587   10.8329 N   0  0  0  0  0  0  0  0  0  0  0  0
    8.1988   11.6499    7.8204 C   0  0  1  0  0  0  0  0  0  0  0  0
    8.7179   10.6463    7.0072 O   0  0  0  0  0  0  0  0  0  0  0  0
  1  2  1  6  0  0  0
  1  5  1  0  0  0  0
  1 29  1  0  0  0  0
  3  4  1  6  0  0  0
  3  7  1  0  0  0  0
  3 34  1  0  0  0  0
  5  6  1  6  0  0  0
  5 16  1  0  0  0  0
  7 19  1  0  0  0  0
  8  4  1  0  0  0  0
  8 24  2  0  0  0  0
  9  8  1  6  0  0  0
  9 10  1  0  0  0  0
  9 13  1  0  0  0  0
 10 11  1  0  0  0  0
 11 12  1  0  0  0  0
 14 15  1  0  0  0  0
 14 35  1  0  0  0  0
 15 17  1  0  0  0  0
 16 18  1  1  0  0  0
 16 25  1  0  0  0  0
 19 20  1  1  0  0  0
 19 27  1  0  0  0  0
 21 22  1  0  0  0  0
 21 23  1  0  0  0  0
 23 17  1  0  0  0  0
 25 26  1  6  0  0  0
 25 28  1  0  0  0  0
 27  2  1  1  0  0  0
 27 30  1  0  0  0  0
 28 29  1  0  0  0  0
 28 32  1  1  0  0  0
 30 31  1  6  0  0  0
 30 34  1  0  0  0  0
 32 33  2  0  0  0  0
 34 35  1  6  0  0  0
M  END
>  <CHROM.1>
155.07837954,58.08467456,175.93832891,38.78318355,52.05638037,95.98380083
161.35240869,-102.46143936,-167.74801155,68.13249159,34.30125319,157.45536375
21.95120292,9.14678976,12.13686976,8.25857432,0.56113261,0.23796915,0.79591494

>  <Name>
2f4t_lig

>  <RI>
0

>  <Rbt.Current_Directory>
/home/itssahil/PROJECTS/Mol_Feturizer/New_Systems/rnas/2f4t

>  <Rbt.Executable>
rbdock ($Id: //depot/dev/client3/rdock/2013.1/src/exe/rbdock.cxx#4 $)

>  <Rbt.Library>
libRbt.so (2013.1, Build901 2013/11/27)

>  <Rbt.Parameter_File>
/export/apps/rDock/src/rDock_2013.1_src/data/scripts/dock_solv.prm

>  <Rbt.Receptor>
prm/blind_docking_100.prm

>  <SCORE>
3.96121

>  <SCORE.INTER>
-4.99887

>  <SCORE.INTER.CONST>
1

>  <SCORE.INTER.POLAR>
-0.916515

>  <SCORE.INTER.ROT>
13

>  <SCORE.INTER.SOLV>
12.7982

>  <SCORE.INTER.VDW>
-16.8103

>  <SCORE.INTER.norm>
-0.142825

>  <SCORE.INTRA>
7.13333

>  <SCORE.INTRA.DIHEDRAL>
-2.63133

>  <SCORE.INTRA.DIHEDRAL.0>
23.8882

>  <SCORE.INTRA.POLAR>
0

>  <SCORE.INTRA.POLAR.0>
0

>  <SCORE.INTRA.REPUL>
0

>  <SCORE.INTRA.REPUL.0>
0

>  <SCORE.INTRA.SOLV>
11.2143

>  <SCORE.INTRA.SOLV.lig_0>
-97.6888

>  <SCORE.INTRA.VDW>
2.84186

>  <SCORE.INTRA.VDW.0>
-3.9206

>  <SCORE.INTRA.norm>
0.203809

>  <SCORE.RESTR>
1.82675

>  <SCORE.RESTR.CAVITY>
1.82675

>  <SCORE.RESTR.norm>
0.0521927

>  <SCORE.SYSTEM>
0

>  <SCORE.SYSTEM.CONST>
0

>  <SCORE.SYSTEM.DIHEDRAL>
0

>  <SCORE.SYSTEM.SOLV>
0

>  <SCORE.SYSTEM.norm>
0

>  <SCORE.heavy>
35

>  <SCORE.norm>
0.113177

>  <RMSD>
30.123

$$$$
2f4t_lig
 OpenBabel11021811433D
libRbt.so/2013.1/901 2013/11/27
 35 36  0  0  0  0  0  0  0  0999 V2000
   11.6245   14.8443    9.2403 C   0  0  2  0  0  0  0  0  0  0  0  0
   11.1698   14.5877    7.8711 O   0  0  0  0  0  0  0  0  0  0  0  0
    7.3971   12.6037    8.5696 C   0  0  2  0  0  0  0  0  0  0  0  0
    6.0340   12.1036    8.3359 N   0  0  0  0  0  0  0  0  0  0  0  0
   13.1486   15.1526    9.1318 C   0  0  2  0  0  0  0  0  0  0  0  0
   13.3826   16.2540    8.2275 N   0  0  0  0  0  0  0  0  0  0  0  0
    7.4484   14.1417    8.2450 C   0  0  0  0  0  0  0  0  0  0  0  0
    5.6455   10.8654    9.5337 C   0  0  0  0  0  0  0  0  0  0  0  0
    4.2990   10.7787    8.8498 C   0  0  1  0  0  0  0  0  0  0  0  0
    4.4077    9.7211    7.7490 C   0  0  0  0  0  0  0  0  0  0  0  0
    4.5966   10.2626    6.3220 C   0  0  0  0  0  0  0  0  0  0  0  0
    3.4444   11.1063    5.9909 N   0  0  0  0  0  0  0  0  0  0  0  0
    3.3155   10.3118    9.7357 O   0  0  0  0  0  0  0  0  0  0  0  0
    8.0742    9.1151    7.7126 C   0  0  0  0  0  0  0  0  0  0  0  0
    8.8092    8.6596    6.4613 C   0  0  0  0  0  0  0  0  0  0  0  0
   13.9233   13.8764    8.6594 C   0  0  1  0  0  0  0  0  0  0  0  0
   10.2180    9.1079    6.4071 N   0  0  0  0  0  0  0  0  0  0  0  0
   15.3104   14.1338    8.5589 O   0  0  0  0  0  0  0  0  0  0  0  0
    8.8519   14.7254    8.4591 C   0  0  2  0  0  0  0  0  0  0  0  0
    8.8838   16.1429    8.1129 N   0  0  0  0  0  0  0  0  0  0  0  0
   12.6355    8.6535    6.8316 C   0  0  0  0  0  0  0  0  0  0  0  0
   12.8017    7.7931    5.5377 N   0  0  0  0  0  0  0  0  0  0  0  0
   11.1951    8.6233    7.4228 C   0  0  0  0  0  0  0  0  0  0  0  0
    6.1708   10.4216   10.3499 O   0  0  0  0  0  0  0  0  0  0  0  0
   13.6515   12.7551    9.6676 C   0  0  2  0  0  0  0  0  0  0  0  0
   14.3373   11.5679    9.3043 O   0  0  0  0  0  0  0  0  0  0  0  0
    9.8626   13.9893    7.6155 C   0  0  2  0  0  0  0  0  0  0  0  0
   12.1217   12.4880    9.7641 C   0  0  2  0  0  0  0  0  0  0  0  0
   11.4075   13.6851   10.1361 O   0  0  0  0  0  0  0  0  0  0  0  0
    9.8385   12.4383    7.9605 C   0  0  2  0  0  0  0  0  0  0  0  0
   10.8304   11.7611    7.1319 O   0  0  0  0  0  0  0  0  0  0  0  0
   11.8053   11.4285   10.7512 C   0  0  0  0  0  0  0  0  0  0  0  0
   11.6031   10.2585   10.1064 N   0  0  0  0  0  0  0  0  0  0  0  0
    8.4045   11.8763    7.6655 C   0  0  1  0  0  0  0  0  0  0  0  0
    8.3582   10.5107    7.9315 O   0  0  0  0  0  0  0  0  0  0  0  0
  1  2  1  6  0  0  0
  1  5  1  0  0  0  0
  1 29  1  0  0  0  0
  3  4  1  6  0  0  0
  3  7  1  0  0  0  0
  3 34  1  0  0  0  0
  5  6  1  6  0  0  0
  5 16  1  0  0  0  0
  7 19  1  0  0  0  0
  8  4  1  0  0  0  0
  8 24  2  0  0  0  0
  9  8  1  1  0  0  0
  9 10  1  0  0  0  0
  9 13  1  0  0  0  0
 10 11  1  0  0  0  0
 11 12  1  0  0  0  0
 14 15  1  0  0  0  0
 14 35  1  0  0  0  0
 15 17  1  0  0  0  0
 16 18  1  1  0  0  0
 16 25  1  0  0  0  0
 19 20  1  6  0  0  0
 19 27  1  0  0  0  0
 21 22  1  0  0  0  0
 21 23  1  0  0  0  0
 23 17  1  0  0  0  0
 25 26  1  6  0  0  0
 25 28  1  0  0  0  0
 27  2  1  1  0  0  0
 27 30  1  0  0  0  0
 28 29  1  0  0  0  0
 28 32  1  1  0  0  0
 30 31  1  6  0  0  0
 30 34  1  0  0  0  0
 32 33  2  0  0  0  0
 34 35  1  1  0  0  0
M  END
>  <CHROM.1>
166.86031307,-144.30005445,90.13958115,-100.68834867,-60.00076387,45.99441031
60.14844033,64.09907556,-58.25733415,153.74208671,47.29078746,-99.32460627
108.58358163,9.58448856,11.88937963,8.29562564,0.34716829,0.00547209,0.26784300

>  <Name>
2f4t_lig

>  <RI>
0

>  <Rbt.Current_Directory>
/home/itssahil/PROJECTS/Mol_Feturizer/New_Systems/rnas/2f4t

>  <Rbt.Executable>
rbdock ($Id: //depot/dev/client3/rdock/2013.1/src/exe/rbdock.cxx#4 $)

>  <Rbt.Library>
libRbt.so (2013.1, Build901 2013/11/27)

>  <Rbt.Parameter_File>
/export/apps/rDock/src/rDock_2013.1_src/data/scripts/dock_solv.prm

>  <Rbt.Receptor>
prm/blind_docking_80.prm

>  <SCORE>
-5.71832

>  <SCORE.INTER>
-3.66674

>  <SCORE.INTER.CONST>
1

>  <SCORE.INTER.POLAR>
-0.942269

>  <SCORE.INTER.ROT>
13

>  <SCORE.INTER.SOLV>
14.7907

>  <SCORE.INTER.VDW>
-16.5005

>  <SCORE.INTER.norm>
-0.104764

>  <SCORE.INTRA>
-2.79987

>  <SCORE.INTRA.DIHEDRAL>
-7.13868

>  <SCORE.INTRA.DIHEDRAL.0>
23.8882

>  <SCORE.INTRA.POLAR>
0

>  <SCORE.INTRA.POLAR.0>
0

>  <SCORE.INTRA.REPUL>
0

>  <SCORE.INTRA.REPUL.0>
0

>  <SCORE.INTRA.SOLV>
6.00101

>  <SCORE.INTRA.SOLV.lig_0>
-97.6888

>  <SCORE.INTRA.VDW>
-2.23103

>  <SCORE.INTRA.VDW.0>
-3.9206

>  <SCORE.INTRA.norm>
-0.0799962

>  <SCORE.RESTR>
0.748292

>  <SCORE.RESTR.CAVITY>
0.748292

>  <SCORE.RESTR.norm>
0.0213798

>  <SCORE.SYSTEM>
0

>  <SCORE.SYSTEM.CONST>
0

>  <SCORE.SYSTEM.DIHEDRAL>
0

>  <SCORE.SYSTEM.SOLV>
0

>  <SCORE.SYSTEM.norm>
0

>  <SCORE.heavy>
35

>  <SCORE.norm>
-0.16338

>  <RMSD>
30.130

$$$$
2f4t_lig
 OpenBabel11021811433D
libRbt.so/2013.1/901 2013/11/27
 35 36  0  0  0  0  0  0  0  0999 V2000
    7.0275   12.2491    8.4073 C   0  0  2  0  0  0  0  0  0  0  0  0
    7.5738   11.8754    9.7146 O   0  0  0  0  0  0  0  0  0  0  0  0
   11.6973   13.0865    9.2817 C   0  0  2  0  0  0  0  0  0  0  0  0
   13.0794   13.4393    9.6395 N   0  0  0  0  0  0  0  0  0  0  0  0
    5.5315   11.8117    8.4304 C   0  0  2  0  0  0  0  0  0  0  0  0
    4.8399   12.4197    9.5428 N   0  0  0  0  0  0  0  0  0  0  0  0
   10.7024   13.9236   10.1666 C   0  0  0  0  0  0  0  0  0  0  0  0
   13.5620   14.8968    8.7667 C   0  0  0  0  0  0  0  0  0  0  0  0
   14.8877   14.7564    9.4816 C   0  0  1  0  0  0  0  0  0  0  0  0
   15.9752   14.6162    8.4140 C   0  0  0  0  0  0  0  0  0  0  0  0
   16.1093   15.7994    7.4408 C   0  0  0  0  0  0  0  0  0  0  0  0
   17.1466   15.4743    6.4573 N   0  0  0  0  0  0  0  0  0  0  0  0
   15.1986   15.9240   10.1959 O   0  0  0  0  0  0  0  0  0  0  0  0
   12.8559    9.6848    8.0847 C   0  0  0  0  0  0  0  0  0  0  0  0
   12.0420    9.4428    6.8228 C   0  0  0  0  0  0  0  0  0  0  0  0
    5.4285   10.2508    8.5030 C   0  0  1  0  0  0  0  0  0  0  0  0
   12.2611    8.1074    6.2251 N   0  0  0  0  0  0  0  0  0  0  0  0
    4.0776    9.8324    8.5202 O   0  0  0  0  0  0  0  0  0  0  0  0
    9.2373   13.5935    9.8488 C   0  0  2  0  0  0  0  0  0  0  0  0
    8.3351   14.3518   10.7097 N   0  0  0  0  0  0  0  0  0  0  0  0
   10.6835    6.1962    5.9257 C   0  0  0  0  0  0  0  0  0  0  0  0
    9.3646    7.0055    5.7084 N   0  0  0  0  0  0  0  0  0  0  0  0
   11.6962    6.8942    6.8810 C   0  0  0  0  0  0  0  0  0  0  0  0
   13.0841   15.5414    8.0630 O   0  0  0  0  0  0  0  0  0  0  0  0
    6.1609    9.6693    7.2893 C   0  0  2  0  0  0  0  0  0  0  0  0
    6.0949    8.2525    7.2869 O   0  0  0  0  0  0  0  0  0  0  0  0
    8.9765   12.1200   10.0381 C   0  0  2  0  0  0  0  0  0  0  0  0
    7.6435   10.1415    7.2882 C   0  0  2  0  0  0  0  0  0  0  0  0
    7.7303   11.5816    7.2875 O   0  0  0  0  0  0  0  0  0  0  0  0
    9.9575   11.2682    9.1232 C   0  0  2  0  0  0  0  0  0  0  0  0
    9.6730    9.8517    9.3275 O   0  0  0  0  0  0  0  0  0  0  0  0
    8.3880    9.6273    6.1142 C   0  0  0  0  0  0  0  0  0  0  0  0
    9.3525   10.5092    5.7713 N   0  0  0  0  0  0  0  0  0  0  0  0
   11.4373   11.5923    9.5285 C   0  0  1  0  0  0  0  0  0  0  0  0
   12.3226   10.8391    8.7626 O   0  0  0  0  0  0  0  0  0  0  0  0
  1  2  1  1  0  0  0
  1  5  1  0  0  0  0
  1 29  1  0  0  0  0
  3  4  1  1  0  0  0
  3  7  1  0  0  0  0
  3 34  1  0  0  0  0
  5  6  1  1  0  0  0
  5 16  1  0  0  0  0
  7 19  1  0  0  0  0
  8  4  1  0  0  0  0
  8 24  2  0  0  0  0
  9  8  1  6  0  0  0
  9 10  1  0  0  0  0
  9 13  1  0  0  0  0
 10 11  1  0  0  0  0
 11 12  1  0  0  0  0
 14 15  1  0  0  0  0
 14 35  1  0  0  0  0
 15 17  1  0  0  0  0
 16 18  1  6  0  0  0
 16 25  1  0  0  0  0
 19 20  1  1  0  0  0
 19 27  1  0  0  0  0
 21 22  1  0  0  0  0
 21 23  1  0  0  0  0
 23 17  1  0  0  0  0
 25 26  1  1  0  0  0
 25 28  1  0  0  0  0
 27  2  1  6  0  0  0
 27 30  1  0  0  0  0
 28 29  1  0  0  0  0
 28 32  1  6  0  0  0
 30 31  1  1  0  0  0
 30 34  1  0  0  0  0
 32 33  2  0  0  0  0
 34 35  1  6  0  0  0
M  END
>  <CHROM.1>
178.95464409,-83.63038567,120.63259632,60.39850767,-177.48402561,-165.32564006
74.53961955,72.93057511,-69.58833637,118.25402037,56.50521780,149.54718577
-161.63121974,10.28476468,11.60594542,8.26033022,2.60502252,-0.18268701,-2.68515181

>  <Name>
2f4t_lig

>  <RI>
0

>  <Rbt.Current_Directory>
/home/itssahil/PROJECTS/Mol_Feturizer/New_Systems/rnas/2f4t

>  <Rbt.Executable>
rbdock ($Id: //depot/dev/client3/rdock/2013.1/src/exe/rbdock.cxx#4 $)

>  <Rbt.Library>
libRbt.so (2013.1, Build901 2013/11/27)

>  <Rbt.Parameter_File>
/export/apps/rDock/src/rDock_2013.1_src/data/scripts/dock_solv.prm

>  <Rbt.Receptor>
prm/blind_docking_80.prm

>  <SCORE>
1.45098

>  <SCORE.INTER>
1.64511

>  <SCORE.INTER.CONST>
1

>  <SCORE.INTER.POLAR>
0

>  <SCORE.INTER.ROT>
13

>  <SCORE.INTER.SOLV>
14.6446

>  <SCORE.INTER.VDW>
-16.0515

>  <SCORE.INTER.norm>
0.0470031

>  <SCORE.INTRA>
-4.69935

>  <SCORE.INTRA.DIHEDRAL>
-14.6956

>  <SCORE.INTRA.DIHEDRAL.0>
23.8882

>  <SCORE.INTRA.POLAR>
0

>  <SCORE.INTRA.POLAR.0>
0

>  <SCORE.INTRA.REPUL>
0

>  <SCORE.INTRA.REPUL.0>
0

>  <SCORE.INTRA.SOLV>
5.2068

>  <SCORE.INTRA.SOLV.lig_0>
-97.6888

>  <SCORE.INTRA.VDW>
0.0450747

>  <SCORE.INTRA.VDW.0>
-3.9206

>  <SCORE.INTRA.norm>
-0.134267

>  <SCORE.RESTR>
4.50521

>  <SCORE.RESTR.CAVITY>
4.50521

>  <SCORE.RESTR.norm>
0.12872

>  <SCORE.SYSTEM>
0

>  <SCORE.SYSTEM.CONST>
0

>  <SCORE.SYSTEM.DIHEDRAL>
0

>  <SCORE.SYSTEM.SOLV>
0

>  <SCORE.SYSTEM.norm>
0

>  <SCORE.heavy>
35

>  <SCORE.norm>
0.0414565

>  <RMSD>
30.133

$$$$
2f4t_lig
 OpenBabel11021811433D
libRbt.so/2013.1/901 2013/11/27
 35 36  0  0  0  0  0  0  0  0999 V2000
    6.1816   12.7926    8.7141 C   0  0  2  0  0  0  0  0  0  0  0  0
    7.2663   12.5484    7.7596 O   0  0  0  0  0  0  0  0  0  0  0  0
   11.4778   13.3772    7.2763 C   0  0  2  0  0  0  0  0  0  0  0  0
   12.8400   13.8387    7.5830 N   0  0  0  0  0  0  0  0  0  0  0  0
    6.4244   11.8058    9.8959 C   0  0  2  0  0  0  0  0  0  0  0  0
    7.7422   11.9950   10.4554 N   0  0  0  0  0  0  0  0  0  0  0  0
   10.4583   14.5387    7.5682 C   0  0  0  0  0  0  0  0  0  0  0  0
   13.1347   13.6985    9.3186 C   0  0  0  0  0  0  0  0  0  0  0  0
   14.5142   14.2424    9.0196 C   0  0  1  0  0  0  0  0  0  0  0  0
   14.4909   15.7448    9.3099 C   0  0  0  0  0  0  0  0  0  0  0  0
   13.4952   16.5686    8.4761 C   0  0  0  0  0  0  0  0  0  0  0  0
   12.1722   16.4635    9.0986 N   0  0  0  0  0  0  0  0  0  0  0  0
   15.4686   13.6970    9.8925 O   0  0  0  0  0  0  0  0  0  0  0  0
   13.2871   10.4748    7.8034 C   0  0  0  0  0  0  0  0  0  0  0  0
   13.0507    8.9778    7.6742 C   0  0  0  0  0  0  0  0  0  0  0  0
    6.2378   10.3287    9.4103 C   0  0  1  0  0  0  0  0  0  0  0  0
   12.5735    8.5680    6.3352 N   0  0  0  0  0  0  0  0  0  0  0  0
    6.4493    9.4163   10.4701 O   0  0  0  0  0  0  0  0  0  0  0  0
    9.0113   14.1167    7.2776 C   0  0  2  0  0  0  0  0  0  0  0  0
    8.0815   15.1962    7.5942 N   0  0  0  0  0  0  0  0  0  0  0  0
   10.0811    8.4286    6.3151 C   0  0  0  0  0  0  0  0  0  0  0  0
    8.8086    7.5223    6.2801 N   0  0  0  0  0  0  0  0  0  0  0  0
   11.4174    7.6360    6.2077 C   0  0  0  0  0  0  0  0  0  0  0  0
   12.5558   13.3693   10.1526 O   0  0  0  0  0  0  0  0  0  0  0  0
    4.8189   10.1886    8.8492 C   0  0  2  0  0  0  0  0  0  0  0  0
    4.5783    8.8646    8.4009 O   0  0  0  0  0  0  0  0  0  0  0  0
    8.6456   12.8979    8.0873 C   0  0  2  0  0  0  0  0  0  0  0  0
    4.6062   11.2003    7.6863 C   0  0  2  0  0  0  0  0  0  0  0  0
    4.8439   12.5540    8.1250 O   0  0  0  0  0  0  0  0  0  0  0  0
    9.6530   11.7096    7.7742 C   0  0  2  0  0  0  0  0  0  0  0  0
    9.2657   10.5486    8.5687 O   0  0  0  0  0  0  0  0  0  0  0  0
    3.2352   11.1231    7.1285 C   0  0  0  0  0  0  0  0  0  0  0  0
    3.2796   10.5587    5.9016 N   0  0  0  0  0  0  0  0  0  0  0  0
   11.1063   12.1664    8.1465 C   0  0  1  0  0  0  0  0  0  0  0  0
   12.0109   11.1352    7.9096 O   0  0  0  0  0  0  0  0  0  0  0  0
  1  2  1  6  0  0  0
  1  5  1  0  0  0  0
  1 29  1  0  0  0  0
  3  4  1  1  0  0  0
  3  7  1  0  0  0  0
  3 34  1  0  0  0  0
  5  6  1  6  0  0  0
  5 16  1  0  0  0  0
  7 19  1  0  0  0  0
  8  4  1  0  0  0  0
  8 24  2  0  0  0  0
  9  8  1  1  0  0  0
  9 10  1  0  0  0  0
  9 13  1  0  0  0  0
 10 11  1  0  0  0  0
 11 12  1  0  0  0  0
 14 15  1  0  0  0  0
 14 35  1  0  0  0  0
 15 17  1  0  0  0  0
 16 18  1  1  0  0  0
 16 25  1  0  0  0  0
 19 20  1  1  0  0  0
 19 27  1  0  0  0  0
 21 22  1  0  0  0  0
 21 23  1  0  0  0  0
 23 17  1  0  0  0  0
 25 26  1  6  0  0  0
 25 28  1  0  0  0  0
 27  2  1  6  0  0  0
 27 30  1  0  0  0  0
 28 29  1  0  0  0  0
 28 32  1  1  0  0  0
 30 31  1  1  0  0  0
 30 34  1  0  0  0  0
 32 33  2  0  0  0  0
 34 35  1  6  0  0  0
M  END
>  <CHROM.1>
-68.25430261,81.85773058,97.68885212,-60.65323633,82.42792931,75.34121781
167.85563161,-133.19984661,-176.46720562,83.11409266,-107.02555806,-108.53561350
55.23091865,9.52967530,11.92493331,8.20135002,2.75862569,-0.02319340,-2.89395001

>  <Name>
2f4t_lig

>  <RI>
0

>  <Rbt.Current_Directory>
/home/itssahil/PROJECTS/Mol_Feturizer/New_Systems/rnas/2f4t

>  <Rbt.Executable>
rbdock ($Id: //depot/dev/client3/rdock/2013.1/src/exe/rbdock.cxx#4 $)

>  <Rbt.Library>
libRbt.so (2013.1, Build901 2013/11/27)

>  <Rbt.Parameter_File>
/export/apps/rDock/src/rDock_2013.1_src/data/scripts/dock_solv.prm

>  <Rbt.Receptor>
prm/blind_docking_40.prm

>  <SCORE>
2.17548

>  <SCORE.INTER>
1.68455

>  <SCORE.INTER.CONST>
1

>  <SCORE.INTER.POLAR>
0

>  <SCORE.INTER.ROT>
13

>  <SCORE.INTER.SOLV>
12.3481

>  <SCORE.INTER.VDW>
-15.2597

>  <SCORE.INTER.norm>
0.0481299

>  <SCORE.INTRA>
-0.0802193

>  <SCORE.INTRA.DIHEDRAL>
-9.14798

>  <SCORE.INTRA.DIHEDRAL.0>
23.8882

>  <SCORE.INTRA.POLAR>
0

>  <SCORE.INTRA.POLAR.0>
0

>  <SCORE.INTRA.REPUL>
0

>  <SCORE.INTRA.REPUL.0>
0

>  <SCORE.INTRA.SOLV>
9.67302

>  <SCORE.INTRA.SOLV.lig_0>
-97.6888

>  <SCORE.INTRA.VDW>
-0.342737

>  <SCORE.INTRA.VDW.0>
-3.9206

>  <SCORE.INTRA.norm>
-0.00229198

>  <SCORE.RESTR>
0.571152

>  <SCORE.RESTR.CAVITY>
0.571152

>  <SCORE.RESTR.norm>
0.0163186

>  <SCORE.SYSTEM>
0

>  <SCORE.SYSTEM.CONST>
0

>  <SCORE.SYSTEM.DIHEDRAL>
0

>  <SCORE.SYSTEM.SOLV>
0

>  <SCORE.SYSTEM.norm>
0

>  <SCORE.heavy>
35

>  <SCORE.norm>
0.0621566

>  <RMSD>
30.155

$$$$
2f4t_lig
 OpenBabel11021811433D
libRbt.so/2013.1/901 2013/11/27
 35 36  0  0  0  0  0  0  0  0999 V2000
   10.6563    7.6967    7.1515 C   0  0  2  0  0  0  0  0  0  0  0  0
   11.0180    8.3543    8.4101 O   0  0  0  0  0  0  0  0  0  0  0  0
   10.3660   12.1322   10.3999 C   0  0  2  0  0  0  0  0  0  0  0  0
   10.2328   13.5825   10.6036 N   0  0  0  0  0  0  0  0  0  0  0  0
   11.9827    7.5648    6.3436 C   0  0  2  0  0  0  0  0  0  0  0  0
   12.9757    6.8470    7.1080 N   0  0  0  0  0  0  0  0  0  0  0  0
   11.7253   11.8337    9.6672 C   0  0  0  0  0  0  0  0  0  0  0  0
   10.0934   14.3886    9.0385 C   0  0  0  0  0  0  0  0  0  0  0  0
    9.9888   15.6734    9.8301 C   0  0  1  0  0  0  0  0  0  0  0  0
   10.2813   16.8307    8.8724 C   0  0  0  0  0  0  0  0  0  0  0  0
   11.7650   17.0597    8.5384 C   0  0  0  0  0  0  0  0  0  0  0  0
   12.2636   15.8848    7.8172 N   0  0  0  0  0  0  0  0  0  0  0  0
    8.6774   15.8754   10.2879 O   0  0  0  0  0  0  0  0  0  0  0  0
    6.8835   12.6482   10.6321 C   0  0  0  0  0  0  0  0  0  0  0  0
    6.0600   13.0850    9.4302 C   0  0  0  0  0  0  0  0  0  0  0  0
   12.5127    8.9832    5.9443 C   0  0  1  0  0  0  0  0  0  0  0  0
    5.3768   11.9666    8.7438 N   0  0  0  0  0  0  0  0  0  0  0  0
   13.7147    8.8855    5.2054 O   0  0  0  0  0  0  0  0  0  0  0  0
   11.9214   10.3325    9.4140 C   0  0  2  0  0  0  0  0  0  0  0  0
   13.1687   10.0847    8.6978 N   0  0  0  0  0  0  0  0  0  0  0  0
    5.1462   10.0979    7.1048 C   0  0  0  0  0  0  0  0  0  0  0  0
    3.8574   10.6247    6.3954 N   0  0  0  0  0  0  0  0  0  0  0  0
    6.0683   11.2290    7.6487 C   0  0  0  0  0  0  0  0  0  0  0  0
   10.0911   14.0588    8.0235 O   0  0  0  0  0  0  0  0  0  0  0  0
   11.4256    9.6823    5.1214 C   0  0  2  0  0  0  0  0  0  0  0  0
   11.8480   10.9738    4.7147 O   0  0  0  0  0  0  0  0  0  0  0  0
   10.7723    9.7799    8.6081 C   0  0  2  0  0  0  0  0  0  0  0  0
   10.1126    9.7789    5.9506 C   0  0  2  0  0  0  0  0  0  0  0  0
    9.6658    8.4730    6.3707 O   0  0  0  0  0  0  0  0  0  0  0  0
    9.3976   10.0503    9.3577 C   0  0  2  0  0  0  0  0  0  0  0  0
    8.3121    9.4983    8.5539 O   0  0  0  0  0  0  0  0  0  0  0  0
    9.0195   10.4234    5.1845 C   0  0  0  0  0  0  0  0  0  0  0  0
    8.7452    9.6867    4.0855 N   0  0  0  0  0  0  0  0  0  0  0  0
    9.2136   11.5975    9.5356 C   0  0  1  0  0  0  0  0  0  0  0  0
    8.0023   11.8692   10.1655 O   0  0  0  0  0  0  0  0  0  0  0  0
  1  2  1  1  0  0  0
  1  5  1  0  0  0  0
  1 29  1  0  0  0  0
  3  4  1  6  0  0  0
  3  7  1  0  0  0  0
  3 34  1  0  0  0  0
  5  6  1  1  0  0  0
  5 16  1  0  0  0  0
  7 19  1  0  0  0  0
  8  4  1  0  0  0  0
  8 24  2  0  0  0  0
  9  8  1  6  0  0  0
  9 10  1  0  0  0  0
  9 13  1  0  0  0  0
 10 11  1  0  0  0  0
 11 12  1  0  0  0  0
 14 15  1  0  0  0  0
 14 35  1  0  0  0  0
 15 17  1  0  0  0  0
 16 18  1  6  0  0  0
 16 25  1  0  0  0  0
 19 20  1  6  0  0  0
 19 27  1  0  0  0  0
 21 22  1  0  0  0  0
 21 23  1  0  0  0  0
 23 17  1  0  0  0  0
 25 26  1  1  0  0  0
 25 28  1  0  0  0  0
 27  2  1  1  0  0  0
 27 30  1  0  0  0  0
 28 29  1  0  0  0  0
 28 32  1  6  0  0  0
 30 31  1  6  0  0  0
 30 34  1  0  0  0  0
 32 33  2  0  0  0  0
 34 35  1  1  0  0  0
M  END
>  <CHROM.1>
100.89081869,65.53489101,162.29064445,-77.60899586,64.38605580,67.79862956
68.97054465,-89.07593886,65.77774216,179.46615777,-143.34122042,61.25562933
74.48606668,9.80035793,11.35999395,7.96350854,1.21040145,-0.09341193,-2.69391738

>  <Name>
2f4t_lig

>  <RI>
0

>  <Rbt.Current_Directory>
/home/itssahil/PROJECTS/Mol_Feturizer/New_Systems/rnas/2f4t

>  <Rbt.Executable>
rbdock ($Id: //depot/dev/client3/rdock/2013.1/src/exe/rbdock.cxx#4 $)

>  <Rbt.Library>
libRbt.so (2013.1, Build901 2013/11/27)

>  <Rbt.Parameter_File>
/export/apps/rDock/src/rDock_2013.1_src/data/scripts/dock_solv.prm

>  <Rbt.Receptor>
prm/blind_docking_100.prm

>  <SCORE>
28.8365

>  <SCORE.INTER>
27.3051

>  <SCORE.INTER.CONST>
1

>  <SCORE.INTER.POLAR>
-0.134257

>  <SCORE.INTER.ROT>
13

>  <SCORE.INTER.SOLV>
20.3412

>  <SCORE.INTER.VDW>
-0.396163

>  <SCORE.INTER.norm>
0.780145

>  <SCORE.INTRA>
0.106174

>  <SCORE.INTRA.DIHEDRAL>
-7.09218

>  <SCORE.INTRA.DIHEDRAL.0>
23.8882

>  <SCORE.INTRA.POLAR>
0

>  <SCORE.INTRA.POLAR.0>
0

>  <SCORE.INTRA.REPUL>
0

>  <SCORE.INTRA.REPUL.0>
0

>  <SCORE.INTRA.SOLV>
9.49501

>  <SCORE.INTRA.SOLV.lig_0>
-97.6888

>  <SCORE.INTRA.VDW>
-1.09524

>  <SCORE.INTRA.VDW.0>
-3.9206

>  <SCORE.INTRA.norm>
0.00303353

>  <SCORE.RESTR>
1.42525

>  <SCORE.RESTR.CAVITY>
1.42525

>  <SCORE.RESTR.norm>
0.0407215

>  <SCORE.SYSTEM>
0

>  <SCORE.SYSTEM.CONST>
0

>  <SCORE.SYSTEM.DIHEDRAL>
0

>  <SCORE.SYSTEM.SOLV>
0

>  <SCORE.SYSTEM.norm>
0

>  <SCORE.heavy>
35

>  <SCORE.norm>
0.8239

>  <RMSD>
30.161

$$$$
2f4t_lig
 OpenBabel11021811433D
libRbt.so/2013.1/901 2013/11/27
 35 36  0  0  0  0  0  0  0  0999 V2000
   10.2495    7.7376    7.0762 C   0  0  2  0  0  0  0  0  0  0  0  0
   10.9115    8.3651    8.2231 O   0  0  0  0  0  0  0  0  0  0  0  0
   10.7147   12.1015   10.3812 C   0  0  2  0  0  0  0  0  0  0  0  0
   10.6691   13.5487   10.6384 N   0  0  0  0  0  0  0  0  0  0  0  0
   11.2326    7.8979    5.8772 C   0  0  2  0  0  0  0  0  0  0  0  0
   12.5183    7.3203    6.1916 N   0  0  0  0  0  0  0  0  0  0  0  0
   11.9337   11.7796    9.4409 C   0  0  0  0  0  0  0  0  0  0  0  0
   10.5240   14.4166    9.1072 C   0  0  0  0  0  0  0  0  0  0  0  0
   10.5169   15.6761    9.9449 C   0  0  1  0  0  0  0  0  0  0  0  0
   11.0452   16.8152    9.0702 C   0  0  0  0  0  0  0  0  0  0  0  0
   12.5410   16.7466    8.7195 C   0  0  0  0  0  0  0  0  0  0  0  0
   13.3122   16.8312    9.9634 N   0  0  0  0  0  0  0  0  0  0  0  0
    9.2069   16.0373   10.2967 O   0  0  0  0  0  0  0  0  0  0  0  0
    6.9756   11.8933   10.9846 C   0  0  0  0  0  0  0  0  0  0  0  0
    6.0419   11.7954    9.7879 C   0  0  0  0  0  0  0  0  0  0  0  0
   11.3838    9.4113    5.5042 C   0  0  1  0  0  0  0  0  0  0  0  0
    5.9777   13.0362    8.9850 N   0  0  0  0  0  0  0  0  0  0  0  0
   12.2692    9.5785    4.4140 O   0  0  0  0  0  0  0  0  0  0  0  0
   12.0318   10.2809    9.1239 C   0  0  2  0  0  0  0  0  0  0  0  0
   13.1447   10.0130    8.2183 N   0  0  0  0  0  0  0  0  0  0  0  0
    6.8942   14.9558    7.6786 C   0  0  0  0  0  0  0  0  0  0  0  0
    8.1243   15.5850    6.9487 N   0  0  0  0  0  0  0  0  0  0  0  0
    7.2297   13.6509    8.4596 C   0  0  0  0  0  0  0  0  0  0  0  0
   10.4703   14.1238    8.0822 O   0  0  0  0  0  0  0  0  0  0  0  0
    9.9937    9.9576    5.1625 C   0  0  2  0  0  0  0  0  0  0  0  0
   10.0609   11.3277    4.8017 O   0  0  0  0  0  0  0  0  0  0  0  0
   10.7530    9.7916    8.4913 C   0  0  2  0  0  0  0  0  0  0  0  0
    9.0354    9.7637    6.3730 C   0  0  2  0  0  0  0  0  0  0  0  0
    8.9521    8.3743    6.7525 O   0  0  0  0  0  0  0  0  0  0  0  0
    9.5203   10.0854    9.4500 C   0  0  2  0  0  0  0  0  0  0  0  0
    8.3046    9.5944    8.8097 O   0  0  0  0  0  0  0  0  0  0  0  0
    7.6668   10.2516    6.0800 C   0  0  0  0  0  0  0  0  0  0  0  0
    7.3190   11.1890    6.9888 N   0  0  0  0  0  0  0  0  0  0  0  0
    9.4242   11.6318    9.6919 C   0  0  1  0  0  0  0  0  0  0  0  0
    8.3347   11.9251   10.5072 O   0  0  0  0  0  0  0  0  0  0  0  0
  1  2  1  1  0  0  0
  1  5  1  0  0  0  0
  1 29  1  0  0  0  0
  3  4  1  6  0  0  0
  3  7  1  0  0  0  0
  3 34  1  0  0  0  0
  5  6  1  1  0  0  0
  5 16  1  0  0  0  0
  7 19  1  0  0  0  0
  8  4  1  0  0  0  0
  8 24  2  0  0  0  0
  9  8  1  6  0  0  0
  9 10  1  0  0  0  0
  9 13  1  0  0  0  0
 10 11  1  0  0  0  0
 11 12  1  0  0  0  0
 14 15  1  0  0  0  0
 14 35  1  0  0  0  0
 15 17  1  0  0  0  0
 16 18  1  6  0  0  0
 16 25  1  0  0  0  0
 19 20  1  6  0  0  0
 19 27  1  0  0  0  0
 21 22  1  0  0  0  0
 21 23  1  0  0  0  0
 23 17  1  0  0  0  0
 25 26  1  1  0  0  0
 25 28  1  0  0  0  0
 27  2  1  1  0  0  0
 27 30  1  0  0  0  0
 28 29  1  0  0  0  0
 28 32  1  6  0  0  0
 30 31  1  6  0  0  0
 30 34  1  0  0  0  0
 32 33  2  0  0  0  0
 34 35  1  1  0  0  0
M  END
>  <CHROM.1>
87.86024637,58.52210590,153.93417346,-69.67323860,-62.34027936,-70.83235158
-34.78816872,54.12297081,-173.30411248,-178.80345943,-148.17400262,-122.56966686
-167.41477493,9.85234949,11.81755232,8.17008994,1.45366576,-0.15894215,-2.73517063

>  <Name>
2f4t_lig

>  <RI>
0

>  <Rbt.Current_Directory>
/home/itssahil/PROJECTS/Mol_Feturizer/New_Systems/rnas/2f4t

>  <Rbt.Executable>
rbdock ($Id: //depot/dev/client3/rdock/2013.1/src/exe/rbdock.cxx#4 $)

>  <Rbt.Library>
libRbt.so (2013.1, Build901 2013/11/27)

>  <Rbt.Parameter_File>
/export/apps/rDock/src/rDock_2013.1_src/data/scripts/dock_solv.prm

>  <Rbt.Receptor>
prm/blind_docking_100.prm

>  <SCORE>
3.64484

>  <SCORE.INTER>
0.701849

>  <SCORE.INTER.CONST>
1

>  <SCORE.INTER.POLAR>
-0.854616

>  <SCORE.INTER.ROT>
13

>  <SCORE.INTER.SOLV>
19.3377

>  <SCORE.INTER.VDW>
-15.396

>  <SCORE.INTER.norm>
0.0200528

>  <SCORE.INTRA>
2.19244

>  <SCORE.INTRA.DIHEDRAL>
-10.0409

>  <SCORE.INTRA.DIHEDRAL.0>
23.8882

>  <SCORE.INTRA.POLAR>
0

>  <SCORE.INTRA.POLAR.0>
0

>  <SCORE.INTRA.REPUL>
0

>  <SCORE.INTRA.REPUL.0>
0

>  <SCORE.INTRA.SOLV>
11.5419

>  <SCORE.INTRA.SOLV.lig_0>
-97.6888

>  <SCORE.INTRA.VDW>
1.44194

>  <SCORE.INTRA.VDW.0>
-3.9206

>  <SCORE.INTRA.norm>
0.0626413

>  <SCORE.RESTR>
0.750549

>  <SCORE.RESTR.CAVITY>
0.750549

>  <SCORE.RESTR.norm>
0.0214442

>  <SCORE.SYSTEM>
0

>  <SCORE.SYSTEM.CONST>
0

>  <SCORE.SYSTEM.DIHEDRAL>
0

>  <SCORE.SYSTEM.SOLV>
0

>  <SCORE.SYSTEM.norm>
0

>  <SCORE.heavy>
35

>  <SCORE.norm>
0.104138

>  <RMSD>
30.180

$$$$
2f4t_lig
 OpenBabel11021811433D
libRbt.so/2013.1/901 2013/11/27
 35 36  0  0  0  0  0  0  0  0999 V2000
   11.2195   15.3629   10.3660 C   0  0  2  0  0  0  0  0  0  0  0  0
   10.3604   15.4159    9.1801 O   0  0  0  0  0  0  0  0  0  0  0  0
    8.0678   11.7691    9.4998 C   0  0  2  0  0  0  0  0  0  0  0  0
    6.9367   10.8343    9.4031 N   0  0  0  0  0  0  0  0  0  0  0  0
   12.5900   15.9609    9.9259 C   0  0  2  0  0  0  0  0  0  0  0  0
   12.4179   17.2924    9.3941 N   0  0  0  0  0  0  0  0  0  0  0  0
    7.5956   13.0817   10.2262 C   0  0  0  0  0  0  0  0  0  0  0  0
    5.6673   11.5445    8.4016 C   0  0  0  0  0  0  0  0  0  0  0  0
    4.9018   10.2640    8.6522 C   0  0  1  0  0  0  0  0  0  0  0  0
    3.7891   10.1790    7.6050 C   0  0  0  0  0  0  0  0  0  0  0  0
    4.2473   10.2563    6.1390 C   0  0  0  0  0  0  0  0  0  0  0  0
    3.0575   10.2763    5.2828 N   0  0  0  0  0  0  0  0  0  0  0  0
    5.7175    9.1419    8.4385 O   0  0  0  0  0  0  0  0  0  0  0  0
    9.4543   10.1579    6.3544 C   0  0  0  0  0  0  0  0  0  0  0  0
   10.9139   10.4856    6.0792 C   0  0  0  0  0  0  0  0  0  0  0  0
   13.2693   15.0274    8.8678 C   0  0  1  0  0  0  0  0  0  0  0  0
   11.8292   10.0615    7.1613 N   0  0  0  0  0  0  0  0  0  0  0  0
   14.5180   15.5502    8.4583 O   0  0  0  0  0  0  0  0  0  0  0  0
    8.7311   14.1072   10.3504 C   0  0  2  0  0  0  0  0  0  0  0  0
    8.2586   15.3309   10.9905 N   0  0  0  0  0  0  0  0  0  0  0  0
   11.3304    7.6401    6.8157 C   0  0  0  0  0  0  0  0  0  0  0  0
   12.3647    7.5987    5.6451 N   0  0  0  0  0  0  0  0  0  0  0  0
   11.6096    8.7626    7.8585 C   0  0  0  0  0  0  0  0  0  0  0  0
    5.5531   12.4691    7.8809 O   0  0  0  0  0  0  0  0  0  0  0  0
   13.4420   13.6416    9.4981 C   0  0  2  0  0  0  0  0  0  0  0  0
   14.0662   12.7459    8.5925 O   0  0  0  0  0  0  0  0  0  0  0  0
    9.2860   14.4458    8.9893 C   0  0  2  0  0  0  0  0  0  0  0  0
   12.0586   13.0848    9.9422 C   0  0  2  0  0  0  0  0  0  0  0  0
   11.4097   13.9822   10.8669 O   0  0  0  0  0  0  0  0  0  0  0  0
    9.7940   13.1277    8.2616 C   0  0  2  0  0  0  0  0  0  0  0  0
   10.3281   13.4937    6.9540 O   0  0  0  0  0  0  0  0  0  0  0  0
   12.1772   11.7549   10.5860 C   0  0  0  0  0  0  0  0  0  0  0  0
   12.1002   11.8959   11.9276 N   0  0  0  0  0  0  0  0  0  0  0  0
    8.5864   12.1400    8.1017 C   0  0  1  0  0  0  0  0  0  0  0  0
    8.9935   10.9844    7.4409 O   0  0  0  0  0  0  0  0  0  0  0  0
  1  2  1  6  0  0  0
  1  5  1  0  0  0  0
  1 29  1  0  0  0  0
  3  4  1  6  0  0  0
  3  7  1  0  0  0  0
  3 34  1  0  0  0  0
  5  6  1  6  0  0  0
  5 16  1  0  0  0  0
  7 19  1  0  0  0  0
  8  4  1  0  0  0  0
  8 24  2  0  0  0  0
  9  8  1  6  0  0  0
  9 10  1  0  0  0  0
  9 13  1  0  0  0  0
 10 11  1  0  0  0  0
 11 12  1  0  0  0  0
 14 15  1  0  0  0  0
 14 35  1  0  0  0  0
 15 17  1  0  0  0  0
 16 18  1  1  0  0  0
 16 25  1  0  0  0  0
 19 20  1  6  0  0  0
 19 27  1  0  0  0  0
 21 22  1  0  0  0  0
 21 23  1  0  0  0  0
 23 17  1  0  0  0  0
 25 26  1  6  0  0  0
 25 28  1  0  0  0  0
 27  2  1  1  0  0  0
 27 30  1  0  0  0  0
 28 29  1  0  0  0  0
 28 32  1  1  0  0  0
 30 31  1  6  0  0  0
 30 34  1  0  0  0  0
 32 33  2  0  0  0  0
 34 35  1  1  0  0  0
M  END
>  <CHROM.1>
151.39230641,63.28672206,-163.02908529,55.90489547,-175.20430941,68.59064525
72.05388730,39.30838897,49.22241199,46.01331642,34.08487391,101.35798888
172.33571749,9.63275498,12.27996440,8.55214953,0.59331634,0.00571258,0.48549881

>  <Name>
2f4t_lig

>  <RI>
0

>  <Rbt.Current_Directory>
/home/itssahil/PROJECTS/Mol_Feturizer/New_Systems/rnas/2f4t

>  <Rbt.Executable>
rbdock ($Id: //depot/dev/client3/rdock/2013.1/src/exe/rbdock.cxx#4 $)

>  <Rbt.Library>
libRbt.so (2013.1, Build901 2013/11/27)

>  <Rbt.Parameter_File>
/export/apps/rDock/src/rDock_2013.1_src/data/scripts/dock_solv.prm

>  <Rbt.Receptor>
prm/blind_docking_100.prm

>  <SCORE>
-0.882483

>  <SCORE.INTER>
-4.88256

>  <SCORE.INTER.CONST>
1

>  <SCORE.INTER.POLAR>
-1.20781

>  <SCORE.INTER.ROT>
13

>  <SCORE.INTER.SOLV>
15.6186

>  <SCORE.INTER.VDW>
-16.7019

>  <SCORE.INTER.norm>
-0.139502

>  <SCORE.INTRA>
2.96271

>  <SCORE.INTRA.DIHEDRAL>
-13.2132

>  <SCORE.INTRA.DIHEDRAL.0>
23.8882

>  <SCORE.INTRA.POLAR>
0

>  <SCORE.INTRA.POLAR.0>
0

>  <SCORE.INTRA.REPUL>
0

>  <SCORE.INTRA.REPUL.0>
0

>  <SCORE.INTRA.SOLV>
6.23169

>  <SCORE.INTRA.SOLV.lig_0>
-97.6888

>  <SCORE.INTRA.VDW>
6.45349

>  <SCORE.INTRA.VDW.0>
-3.9206

>  <SCORE.INTRA.norm>
0.0846488

>  <SCORE.RESTR>
1.03737

>  <SCORE.RESTR.CAVITY>
1.03737

>  <SCORE.RESTR.norm>
0.0296392

>  <SCORE.SYSTEM>
0

>  <SCORE.SYSTEM.CONST>
0

>  <SCORE.SYSTEM.DIHEDRAL>
0

>  <SCORE.SYSTEM.SOLV>
0

>  <SCORE.SYSTEM.norm>
0

>  <SCORE.heavy>
35

>  <SCORE.norm>
-0.0252138

>  <RMSD>
30.181

$$$$
2f4t_lig
 OpenBabel11021811433D
libRbt.so/2013.1/901 2013/11/27
 35 36  0  0  0  0  0  0  0  0999 V2000
   11.8562   14.6227    9.6081 C   0  0  2  0  0  0  0  0  0  0  0  0
   11.3892   14.8113    8.2320 O   0  0  0  0  0  0  0  0  0  0  0  0
    8.4190   11.6913    7.9150 C   0  0  2  0  0  0  0  0  0  0  0  0
    7.3085   10.8889    7.3805 N   0  0  0  0  0  0  0  0  0  0  0  0
   12.9670   15.6932    9.8311 C   0  0  2  0  0  0  0  0  0  0  0  0
   12.4574   17.0187    9.5686 N   0  0  0  0  0  0  0  0  0  0  0  0
    7.9937   13.2050    7.9541 C   0  0  0  0  0  0  0  0  0  0  0  0
    5.8614   11.1589    8.3562 C   0  0  0  0  0  0  0  0  0  0  0  0
    5.1761   10.1949    7.4132 C   0  0  1  0  0  0  0  0  0  0  0  0
    3.6815   10.2123    7.7413 C   0  0  0  0  0  0  0  0  0  0  0  0
    2.7745    9.4580    6.7545 C   0  0  0  0  0  0  0  0  0  0  0  0
    2.8882   10.0973    5.4402 N   0  0  0  0  0  0  0  0  0  0  0  0
    5.2830   10.6321    6.0837 O   0  0  0  0  0  0  0  0  0  0  0  0
   10.6479    8.9777    7.3947 C   0  0  0  0  0  0  0  0  0  0  0  0
   10.5145    8.8646    8.9056 C   0  0  0  0  0  0  0  0  0  0  0  0
   14.2015   15.3857    8.9180 C   0  0  1  0  0  0  0  0  0  0  0  0
   11.3781    9.8091    9.6477 N   0  0  0  0  0  0  0  0  0  0  0  0
   15.2242   16.3440    9.1087 O   0  0  0  0  0  0  0  0  0  0  0  0
    9.1168   14.1012    8.4943 C   0  0  2  0  0  0  0  0  0  0  0  0
    8.7134   15.5038    8.4828 N   0  0  0  0  0  0  0  0  0  0  0  0
   10.6620   10.1319   12.0171 C   0  0  0  0  0  0  0  0  0  0  0  0
    9.6476    8.9452   12.0861 N   0  0  0  0  0  0  0  0  0  0  0  0
   10.7739   10.7786   10.6049 C   0  0  0  0  0  0  0  0  0  0  0  0
    5.6369   11.7510    9.2153 O   0  0  0  0  0  0  0  0  0  0  0  0
   14.7058   13.9795    9.2584 C   0  0  2  0  0  0  0  0  0  0  0  0
   15.8366   13.6410    8.4719 O   0  0  0  0  0  0  0  0  0  0  0  0
   10.3647   13.9406    7.6626 C   0  0  2  0  0  0  0  0  0  0  0  0
   13.5671   12.9412    9.0432 C   0  0  2  0  0  0  0  0  0  0  0  0
   12.4085   13.2680    9.8385 O   0  0  0  0  0  0  0  0  0  0  0  0
   10.8184   12.4179    7.6440 C   0  0  2  0  0  0  0  0  0  0  0  0
   12.0287   12.3020    6.8372 O   0  0  0  0  0  0  0  0  0  0  0  0
   13.9987   11.5658    9.3883 C   0  0  0  0  0  0  0  0  0  0  0  0
   14.0388   10.8122    8.2675 N   0  0  0  0  0  0  0  0  0  0  0  0
    9.6650   11.5533    7.0264 C   0  0  1  0  0  0  0  0  0  0  0  0
   10.0435   10.2149    6.9701 O   0  0  0  0  0  0  0  0  0  0  0  0
  1  2  1  6  0  0  0
  1  5  1  0  0  0  0
  1 29  1  0  0  0  0
  3  4  1  6  0  0  0
  3  7  1  0  0  0  0
  3 34  1  0  0  0  0
  5  6  1  6  0  0  0
  5 16  1  0  0  0  0
  7 19  1  0  0  0  0
  8  4  1  0  0  0  0
  8 24  2  0  0  0  0
  9  8  1  1  0  0  0
  9 10  1  0  0  0  0
  9 13  1  0  0  0  0
 10 11  1  0  0  0  0
 11 12  1  0  0  0  0
 14 15  1  0  0  0  0
 14 35  1  0  0  0  0
 15 17  1  0  0  0  0
 16 18  1  1  0  0  0
 16 25  1  0  0  0  0
 19 20  1  6  0  0  0
 19 27  1  0  0  0  0
 21 22  1  0  0  0  0
 21 23  1  0  0  0  0
 23 17  1  0  0  0  0
 25 26  1  6  0  0  0
 25 28  1  0  0  0  0
 27  2  1  1  0  0  0
 27 30  1  0  0  0  0
 28 29  1  0  0  0  0
 28 32  1  1  0  0  0
 30 31  1  6  0  0  0
 30 34  1  0  0  0  0
 32 33  2  0  0  0  0
 34 35  1  1  0  0  0
M  END
>  <CHROM.1>
178.08430630,-56.35383857,-171.98444390,171.10751752,-62.14617102,-70.96624571
35.19097572,122.39021956,-66.74925909,88.36786022,61.10704697,-112.92876105
-80.29627888,10.07647172,12.19947605,8.48888569,0.36785338,-0.27438080,-0.17271674

>  <Name>
2f4t_lig

>  <RI>
0

>  <Rbt.Current_Directory>
/home/itssahil/PROJECTS/Mol_Feturizer/New_Systems/rnas/2f4t

>  <Rbt.Executable>
rbdock ($Id: //depot/dev/client3/rdock/2013.1/src/exe/rbdock.cxx#4 $)

>  <Rbt.Library>
libRbt.so (2013.1, Build901 2013/11/27)

>  <Rbt.Parameter_File>
/export/apps/rDock/src/rDock_2013.1_src/data/scripts/dock_solv.prm

>  <Rbt.Receptor>
prm/blind_docking_80.prm

>  <SCORE>
-0.559101

>  <SCORE.INTER>
0.818149

>  <SCORE.INTER.CONST>
1

>  <SCORE.INTER.POLAR>
0

>  <SCORE.INTER.ROT>
13

>  <SCORE.INTER.SOLV>
10.5385

>  <SCORE.INTER.VDW>
-15.2341

>  <SCORE.INTER.norm>
0.0233757

>  <SCORE.INTRA>
-3.9449

>  <SCORE.INTRA.DIHEDRAL>
-15.0308

>  <SCORE.INTRA.DIHEDRAL.0>
23.8882

>  <SCORE.INTRA.POLAR>
0

>  <SCORE.INTRA.POLAR.0>
0

>  <SCORE.INTRA.REPUL>
0

>  <SCORE.INTRA.REPUL.0>
0

>  <SCORE.INTRA.SOLV>
7.53659

>  <SCORE.INTRA.SOLV.lig_0>
-97.6888

>  <SCORE.INTRA.VDW>
-0.197769

>  <SCORE.INTRA.VDW.0>
-3.9206

>  <SCORE.INTRA.norm>
-0.112711

>  <SCORE.RESTR>
2.56765

>  <SCORE.RESTR.CAVITY>
2.56765

>  <SCORE.RESTR.norm>
0.0733614

>  <SCORE.SYSTEM>
0

>  <SCORE.SYSTEM.CONST>
0

>  <SCORE.SYSTEM.DIHEDRAL>
0

>  <SCORE.SYSTEM.SOLV>
0

>  <SCORE.SYSTEM.norm>
0

>  <SCORE.heavy>
35

>  <SCORE.norm>
-0.0159743

>  <RMSD>
30.182

$$$$
2f4t_lig
 OpenBabel11021811433D
libRbt.so/2013.1/901 2013/11/27
 35 36  0  0  0  0  0  0  0  0999 V2000
   11.7388   15.3858   10.1030 C   0  0  2  0  0  0  0  0  0  0  0  0
   10.9772   15.5695    8.8647 O   0  0  0  0  0  0  0  0  0  0  0  0
    7.9428   12.5074    9.1368 C   0  0  2  0  0  0  0  0  0  0  0  0
    6.6428   11.8335    9.0011 N   0  0  0  0  0  0  0  0  0  0  0  0
   13.2118   15.7594    9.7561 C   0  0  2  0  0  0  0  0  0  0  0  0
   13.2858   17.0997    9.2237 N   0  0  0  0  0  0  0  0  0  0  0  0
    7.7316   13.9108    9.8147 C   0  0  0  0  0  0  0  0  0  0  0  0
    6.6536   10.3352    9.9358 C   0  0  0  0  0  0  0  0  0  0  0  0
    5.2308   10.1516    9.4562 C   0  0  1  0  0  0  0  0  0  0  0  0
    5.2726    9.2472    8.2224 C   0  0  0  0  0  0  0  0  0  0  0  0
    4.0102    9.2606    7.3441 C   0  0  0  0  0  0  0  0  0  0  0  0
    3.8795   10.5908    6.7420 N   0  0  0  0  0  0  0  0  0  0  0  0
    4.4643    9.4647   10.4106 O   0  0  0  0  0  0  0  0  0  0  0  0
    8.4282   10.1731    6.6515 C   0  0  0  0  0  0  0  0  0  0  0  0
    8.9720   10.0249    5.2388 C   0  0  0  0  0  0  0  0  0  0  0  0
   13.8028   14.7274    8.7373 C   0  0  1  0  0  0  0  0  0  0  0  0
   10.4274    9.7643    5.1900 N   0  0  0  0  0  0  0  0  0  0  0  0
   15.1420   15.0459    8.4126 O   0  0  0  0  0  0  0  0  0  0  0  0
    9.0541   14.6732    9.9763 C   0  0  2  0  0  0  0  0  0  0  0  0
    8.8274   15.9873   10.5696 N   0  0  0  0  0  0  0  0  0  0  0  0
   11.7399    8.4441    6.8531 C   0  0  0  0  0  0  0  0  0  0  0  0
   12.3583    7.6200    5.6782 N   0  0  0  0  0  0  0  0  0  0  0  0
   11.2449    9.8595    6.4326 C   0  0  0  0  0  0  0  0  0  0  0  0
    7.3747    9.8377   10.5456 O   0  0  0  0  0  0  0  0  0  0  0  0
   13.7145   13.3336    9.3676 C   0  0  2  0  0  0  0  0  0  0  0  0
   14.2473   12.3480    8.4978 O   0  0  0  0  0  0  0  0  0  0  0  0
    9.7290   14.8463    8.6386 C   0  0  2  0  0  0  0  0  0  0  0  0
   12.2351   13.0027    9.7180 C   0  0  2  0  0  0  0  0  0  0  0  0
   11.6769   13.9939   10.6054 O   0  0  0  0  0  0  0  0  0  0  0  0
    9.9740   13.4299    7.9613 C   0  0  2  0  0  0  0  0  0  0  0  0
   10.6321   13.6358    6.6754 O   0  0  0  0  0  0  0  0  0  0  0  0
   12.1014   11.6728   10.3587 C   0  0  0  0  0  0  0  0  0  0  0  0
   11.2497   10.9099    9.6386 N   0  0  0  0  0  0  0  0  0  0  0  0
    8.5909   12.7189    7.7597 C   0  0  1  0  0  0  0  0  0  0  0  0
    8.7693   11.4846    7.1412 O   0  0  0  0  0  0  0  0  0  0  0  0
  1  2  1  6  0  0  0
  1  5  1  0  0  0  0
  1 29  1  0  0  0  0
  3  4  1  6  0  0  0
  3  7  1  0  0  0  0
  3 34  1  0  0  0  0
  5  6  1  6  0  0  0
  5 16  1  0  0  0  0
  7 19  1  0  0  0  0
  8  4  1  0  0  0  0
  8 24  2  0  0  0  0
  9  8  1  1  0  0  0
  9 10  1  0  0  0  0
  9 13  1  0  0  0  0
 10 11  1  0  0  0  0
 11 12  1  0  0  0  0
 14 15  1  0  0  0  0
 14 35  1  0  0  0  0
 15 17  1  0  0  0  0
 16 18  1  1  0  0  0
 16 25  1  0  0  0  0
 19 20  1  6  0  0  0
 19 27  1  0  0  0  0
 21 22  1  0  0  0  0
 21 23  1  0  0  0  0
 23 17  1  0  0  0  0
 25 26  1  6  0  0  0
 25 28  1  0  0  0  0
 27  2  1  1  0  0  0
 27 30  1  0  0  0  0
 28 29  1  0  0  0  0
 28 32  1  1  0  0  0
 30 31  1  6  0  0  0
 30 34  1  0  0  0  0
 32 33  2  0  0  0  0
 34 35  1  1  0  0  0
M  END
>  <CHROM.1>
155.59404854,-118.12295384,95.79952244,-162.91377362,66.27682219,77.42087706
134.57109541,-8.56310350,47.56517376,111.10121675,32.99851119,-122.88725234
49.93931346,9.76515937,12.23747362,8.52155012,0.56852517,0.22421998,0.53591536

>  <Name>
2f4t_lig

>  <RI>
0

>  <Rbt.Current_Directory>
/home/itssahil/PROJECTS/Mol_Feturizer/New_Systems/rnas/2f4t

>  <Rbt.Executable>
rbdock ($Id: //depot/dev/client3/rdock/2013.1/src/exe/rbdock.cxx#4 $)

>  <Rbt.Library>
libRbt.so (2013.1, Build901 2013/11/27)

>  <Rbt.Parameter_File>
/export/apps/rDock/src/rDock_2013.1_src/data/scripts/dock_solv.prm

>  <Rbt.Receptor>
prm/blind_docking_100.prm

>  <SCORE>
-1.64033

>  <SCORE.INTER>
-4.10981

>  <SCORE.INTER.CONST>
1

>  <SCORE.INTER.POLAR>
-1.20146

>  <SCORE.INTER.ROT>
13

>  <SCORE.INTER.SOLV>
14.9836

>  <SCORE.INTER.VDW>
-15.9962

>  <SCORE.INTER.norm>
-0.117423

>  <SCORE.INTRA>
2.00175

>  <SCORE.INTRA.DIHEDRAL>
-2.70438

>  <SCORE.INTRA.DIHEDRAL.0>
23.8882

>  <SCORE.INTRA.POLAR>
0

>  <SCORE.INTRA.POLAR.0>
0

>  <SCORE.INTRA.REPUL>
0

>  <SCORE.INTRA.REPUL.0>
0

>  <SCORE.INTRA.SOLV>
4.51567

>  <SCORE.INTRA.SOLV.lig_0>
-97.6888

>  <SCORE.INTRA.VDW>
1.09611

>  <SCORE.INTRA.VDW.0>
-3.9206

>  <SCORE.INTRA.norm>
0.0571929

>  <SCORE.RESTR>
0.467729

>  <SCORE.RESTR.CAVITY>
0.467729

>  <SCORE.RESTR.norm>
0.0133637

>  <SCORE.SYSTEM>
0

>  <SCORE.SYSTEM.CONST>
0

>  <SCORE.SYSTEM.DIHEDRAL>
0

>  <SCORE.SYSTEM.SOLV>
0

>  <SCORE.SYSTEM.norm>
0

>  <SCORE.heavy>
35

>  <SCORE.norm>
-0.0468665

>  <RMSD>
30.185

$$$$
2f4t_lig
 OpenBabel11021811433D
libRbt.so/2013.1/901 2013/11/27
 35 36  0  0  0  0  0  0  0  0999 V2000
   11.4696   15.7640    8.0154 C   0  0  2  0  0  0  0  0  0  0  0  0
   12.2896   14.5503    8.0576 O   0  0  0  0  0  0  0  0  0  0  0  0
    9.3192   11.4872    7.3861 C   0  0  2  0  0  0  0  0  0  0  0  0
    8.7284   10.1899    7.0246 N   0  0  0  0  0  0  0  0  0  0  0  0
   12.3296   16.8820    8.6788 C   0  0  2  0  0  0  0  0  0  0  0  0
   13.5991   17.0166    8.0037 N   0  0  0  0  0  0  0  0  0  0  0  0
   10.2436   11.9812    6.2135 C   0  0  0  0  0  0  0  0  0  0  0  0
    9.8040    8.8870    7.5389 C   0  0  0  0  0  0  0  0  0  0  0  0
    8.7647    7.9482    6.9674 C   0  0  1  0  0  0  0  0  0  0  0  0
    9.4828    6.9893    6.0152 C   0  0  0  0  0  0  0  0  0  0  0  0
   10.8266    6.4348    6.5170 C   0  0  0  0  0  0  0  0  0  0  0  0
   11.5744    5.9216    5.3653 N   0  0  0  0  0  0  0  0  0  0  0  0
    8.2070    7.1445    7.9740 O   0  0  0  0  0  0  0  0  0  0  0  0
    8.3140   10.1716   10.3602 C   0  0  0  0  0  0  0  0  0  0  0  0
    7.0471   11.0132   10.3468 C   0  0  0  0  0  0  0  0  0  0  0  0
   12.5430   16.5665   10.1978 C   0  0  1  0  0  0  0  0  0  0  0  0
    6.4843   11.2127    8.9933 N   0  0  0  0  0  0  0  0  0  0  0  0
   13.3179   17.5726   10.8203 O   0  0  0  0  0  0  0  0  0  0  0  0
   10.9019   13.3305    6.5333 C   0  0  2  0  0  0  0  0  0  0  0  0
   11.7855   13.7477    5.4491 N   0  0  0  0  0  0  0  0  0  0  0  0
    4.9353   10.7247    7.0975 C   0  0  0  0  0  0  0  0  0  0  0  0
    3.9274    9.7298    6.4370 N   0  0  0  0  0  0  0  0  0  0  0  0
    5.6073   10.1704    8.3884 C   0  0  0  0  0  0  0  0  0  0  0  0
   10.7511    8.8470    8.0294 O   0  0  0  0  0  0  0  0  0  0  0  0
   11.1649   16.4570   10.8585 C   0  0  2  0  0  0  0  0  0  0  0  0
   11.2864   16.1833   12.2449 O   0  0  0  0  0  0  0  0  0  0  0  0
   11.6989   13.2380    7.8105 C   0  0  2  0  0  0  0  0  0  0  0  0
   10.3284   15.3466   10.1595 C   0  0  2  0  0  0  0  0  0  0  0  0
   10.1915   15.6101    8.7477 O   0  0  0  0  0  0  0  0  0  0  0  0
   10.7640   12.7693    9.0068 C   0  0  2  0  0  0  0  0  0  0  0  0
   11.5656   12.6971   10.2240 O   0  0  0  0  0  0  0  0  0  0  0  0
    8.9728   15.2222   10.7459 C   0  0  0  0  0  0  0  0  0  0  0  0
    8.0655   15.0769    9.7552 N   0  0  0  0  0  0  0  0  0  0  0  0
   10.1671   11.3610    8.6613 C   0  0  1  0  0  0  0  0  0  0  0  0
    9.3639   10.9090    9.7045 O   0  0  0  0  0  0  0  0  0  0  0  0
  1  2  1  1  0  0  0
  1  5  1  0  0  0  0
  1 29  1  0  0  0  0
  3  4  1  6  0  0  0
  3  7  1  0  0  0  0
  3 34  1  0  0  0  0
  5  6  1  6  0  0  0
  5 16  1  0  0  0  0
  7 19  1  0  0  0  0
  8  4  1  0  0  0  0
  8 24  2  0  0  0  0
  9  8  1  1  0  0  0
  9 10  1  0  0  0  0
  9 13  1  0  0  0  0
 10 11  1  0  0  0  0
 11 12  1  0  0  0  0
 14 15  1  0  0  0  0
 14 35  1  0  0  0  0
 15 17  1  0  0  0  0
 16 18  1  1  0  0  0
 16 25  1  0  0  0  0
 19 20  1  6  0  0  0
 19 27  1  0  0  0  0
 21 22  1  0  0  0  0
 21 23  1  0  0  0  0
 23 17  1  0  0  0  0
 25 26  1  1  0  0  0
 25 28  1  0  0  0  0
 27  2  1  1  0  0  0
 27 30  1  0  0  0  0
 28 29  1  0  0  0  0
 28 32  1  1  0  0  0
 30 31  1  1  0  0  0
 30 34  1  0  0  0  0
 32 33  2  0  0  0  0
 34 35  1  1  0  0  0
M  END
>  <CHROM.1>
165.59148867,88.73718270,128.19940160,42.82144154,-161.45503387,67.24415907
-89.63203316,83.24117878,-176.53742293,169.37689302,50.01386536,137.28310695
34.99766260,9.89273868,12.25781743,8.43904712,-1.15297724,-0.30392220,-2.69674516

>  <Name>
2f4t_lig

>  <RI>
0

>  <Rbt.Current_Directory>
/home/itssahil/PROJECTS/Mol_Feturizer/New_Systems/rnas/2f4t

>  <Rbt.Executable>
rbdock ($Id: //depot/dev/client3/rdock/2013.1/src/exe/rbdock.cxx#4 $)

>  <Rbt.Library>
libRbt.so (2013.1, Build901 2013/11/27)

>  <Rbt.Parameter_File>
/export/apps/rDock/src/rDock_2013.1_src/data/scripts/dock_solv.prm

>  <Rbt.Receptor>
prm/blind_docking_100.prm

>  <SCORE>
5.48278

>  <SCORE.INTER>
0.691337

>  <SCORE.INTER.CONST>
1

>  <SCORE.INTER.POLAR>
-1.07703

>  <SCORE.INTER.ROT>
13

>  <SCORE.INTER.SOLV>
19.1653

>  <SCORE.INTER.VDW>
-14.6041

>  <SCORE.INTER.norm>
0.0197525

>  <SCORE.INTRA>
-0.715473

>  <SCORE.INTRA.DIHEDRAL>
-9.43294

>  <SCORE.INTRA.DIHEDRAL.0>
23.8882

>  <SCORE.INTRA.POLAR>
0

>  <SCORE.INTRA.POLAR.0>
0

>  <SCORE.INTRA.REPUL>
0

>  <SCORE.INTRA.REPUL.0>
0

>  <SCORE.INTRA.SOLV>
3.61549

>  <SCORE.INTRA.SOLV.lig_0>
-97.6888

>  <SCORE.INTRA.VDW>
2.19325

>  <SCORE.INTRA.VDW.0>
-3.9206

>  <SCORE.INTRA.norm>
-0.0204421

>  <SCORE.RESTR>
5.50692

>  <SCORE.RESTR.CAVITY>
5.50692

>  <SCORE.RESTR.norm>
0.157341

>  <SCORE.SYSTEM>
0

>  <SCORE.SYSTEM.CONST>
0

>  <SCORE.SYSTEM.DIHEDRAL>
0

>  <SCORE.SYSTEM.SOLV>
0

>  <SCORE.SYSTEM.norm>
0

>  <SCORE.heavy>
35

>  <SCORE.norm>
0.156651

>  <RMSD>
30.188

$$$$
2f4t_lig
 OpenBabel11021811433D
libRbt.so/2013.1/901 2013/11/27
 35 36  0  0  0  0  0  0  0  0999 V2000
   11.6853   15.2468   10.0485 C   0  0  2  0  0  0  0  0  0  0  0  0
   10.9468   15.4024    8.7925 O   0  0  0  0  0  0  0  0  0  0  0  0
    7.5904   12.7264    9.2727 C   0  0  2  0  0  0  0  0  0  0  0  0
    6.2186   12.2017    9.1964 N   0  0  0  0  0  0  0  0  0  0  0  0
   13.1477   15.6896    9.7401 C   0  0  2  0  0  0  0  0  0  0  0  0
   13.1729   17.0350    9.2158 N   0  0  0  0  0  0  0  0  0  0  0  0
    7.5591   14.1734    9.8881 C   0  0  0  0  0  0  0  0  0  0  0  0
    6.2532   10.4395    9.3060 C   0  0  0  0  0  0  0  0  0  0  0  0
    4.7463   10.5100    9.1934 C   0  0  1  0  0  0  0  0  0  0  0  0
    4.4095   10.9221    7.7586 C   0  0  0  0  0  0  0  0  0  0  0  0
    4.6257    9.8404    6.6870 C   0  0  0  0  0  0  0  0  0  0  0  0
    4.0260   10.3052    5.4327 N   0  0  0  0  0  0  0  0  0  0  0  0
    4.1698    9.2432    9.3749 O   0  0  0  0  0  0  0  0  0  0  0  0
    7.7575   10.3764    6.5915 C   0  0  0  0  0  0  0  0  0  0  0  0
    8.6809    9.2017    6.8761 C   0  0  0  0  0  0  0  0  0  0  0  0
   13.8105   14.6917    8.7315 C   0  0  1  0  0  0  0  0  0  0  0  0
   10.0667    9.4108    6.4024 N   0  0  0  0  0  0  0  0  0  0  0  0
   15.1412   15.0733    8.4416 O   0  0  0  0  0  0  0  0  0  0  0  0
    8.9639   14.7844    9.9856 C   0  0  2  0  0  0  0  0  0  0  0  0
    8.9048   16.1409   10.5210 N   0  0  0  0  0  0  0  0  0  0  0  0
   12.3687    9.9606    7.1960 C   0  0  0  0  0  0  0  0  0  0  0  0
   13.6295    9.5183    8.0064 N   0  0  0  0  0  0  0  0  0  0  0  0
   11.2153    8.9144    7.2122 C   0  0  0  0  0  0  0  0  0  0  0  0
    7.0259    9.7100    9.4059 O   0  0  0  0  0  0  0  0  0  0  0  0
   13.7710   13.2918    9.3530 C   0  0  2  0  0  0  0  0  0  0  0  0
   14.3698   12.3367    8.4922 O   0  0  0  0  0  0  0  0  0  0  0  0
    9.6185   14.8189    8.6272 C   0  0  2  0  0  0  0  0  0  0  0  0
   12.3001   12.8913    9.6650 C   0  0  2  0  0  0  0  0  0  0  0  0
   11.6752   13.8507   10.5427 O   0  0  0  0  0  0  0  0  0  0  0  0
    9.6819   13.3551    8.0123 C   0  0  2  0  0  0  0  0  0  0  0  0
   10.3250   13.4264    6.7044 O   0  0  0  0  0  0  0  0  0  0  0  0
   12.2121   11.5530   10.2960 C   0  0  0  0  0  0  0  0  0  0  0  0
   11.0131   11.4205   10.9047 N   0  0  0  0  0  0  0  0  0  0  0  0
    8.2217   12.8004    7.8737 C   0  0  1  0  0  0  0  0  0  0  0  0
    8.2413   11.5275    7.3104 O   0  0  0  0  0  0  0  0  0  0  0  0
  1  2  1  6  0  0  0
  1  5  1  0  0  0  0
  1 29  1  0  0  0  0
  3  4  1  6  0  0  0
  3  7  1  0  0  0  0
  3 34  1  0  0  0  0
  5  6  1  6  0  0  0
  5 16  1  0  0  0  0
  7 19  1  0  0  0  0
  8  4  1  0  0  0  0
  8 24  2  0  0  0  0
  9  8  1  6  0  0  0
  9 10  1  0  0  0  0
  9 13  1  0  0  0  0
 10 11  1  0  0  0  0
 11 12  1  0  0  0  0
 14 15  1  0  0  0  0
 14 35  1  0  0  0  0
 15 17  1  0  0  0  0
 16 18  1  1  0  0  0
 16 25  1  0  0  0  0
 19 20  1  6  0  0  0
 19 27  1  0  0  0  0
 21 22  1  0  0  0  0
 21 23  1  0  0  0  0
 23 17  1  0  0  0  0
 25 26  1  6  0  0  0
 25 28  1  0  0  0  0
 27  2  1  1  0  0  0
 27 30  1  0  0  0  0
 28 29  1  0  0  0  0
 28 32  1  1  0  0  0
 30 31  1  6  0  0  0
 30 34  1  0  0  0  0
 32 33  2  0  0  0  0
 34 35  1  1  0  0  0
M  END
>  <CHROM.1>
166.95808582,-151.77754653,70.98289775,72.98192551,169.48647162,-62.91913481
-165.39886456,142.16257778,-179.23694085,-139.76776705,29.72536318,161.61026343
85.37861849,9.65655363,12.35134685,8.58430195,0.51113108,0.04158730,0.39088632

>  <Name>
2f4t_lig

>  <RI>
0

>  <Rbt.Current_Directory>
/home/itssahil/PROJECTS/Mol_Feturizer/New_Systems/rnas/2f4t

>  <Rbt.Executable>
rbdock ($Id: //depot/dev/client3/rdock/2013.1/src/exe/rbdock.cxx#4 $)

>  <Rbt.Library>
libRbt.so (2013.1, Build901 2013/11/27)

>  <Rbt.Parameter_File>
/export/apps/rDock/src/rDock_2013.1_src/data/scripts/dock_solv.prm

>  <Rbt.Receptor>
prm/blind_docking_100.prm

>  <SCORE>
1.3922

>  <SCORE.INTER>
1.68934

>  <SCORE.INTER.CONST>
1

>  <SCORE.INTER.POLAR>
0

>  <SCORE.INTER.ROT>
13

>  <SCORE.INTER.SOLV>
14.5644

>  <SCORE.INTER.VDW>
-15.9952

>  <SCORE.INTER.norm>
0.0482669

>  <SCORE.INTRA>
-1.38906

>  <SCORE.INTRA.DIHEDRAL>
-9.86877

>  <SCORE.INTRA.DIHEDRAL.0>
23.8882

>  <SCORE.INTRA.POLAR>
0

>  <SCORE.INTRA.POLAR.0>
0

>  <SCORE.INTRA.REPUL>
0

>  <SCORE.INTRA.REPUL.0>
0

>  <SCORE.INTRA.SOLV>
6.03292

>  <SCORE.INTRA.SOLV.lig_0>
-97.6888

>  <SCORE.INTRA.VDW>
0.528865

>  <SCORE.INTRA.VDW.0>
-3.9206

>  <SCORE.INTRA.norm>
-0.0396873

>  <SCORE.RESTR>
1.09191

>  <SCORE.RESTR.CAVITY>
1.09191

>  <SCORE.RESTR.norm>
0.0311975

>  <SCORE.SYSTEM>
0

>  <SCORE.SYSTEM.CONST>
0

>  <SCORE.SYSTEM.DIHEDRAL>
0

>  <SCORE.SYSTEM.SOLV>
0

>  <SCORE.SYSTEM.norm>
0

>  <SCORE.heavy>
35

>  <SCORE.norm>
0.039777

>  <RMSD>
30.192

$$$$
2f4t_lig
 OpenBabel11021811433D
libRbt.so/2013.1/901 2013/11/27
 35 36  0  0  0  0  0  0  0  0999 V2000
    6.3849   12.3730    8.0899 C   0  0  2  0  0  0  0  0  0  0  0  0
    7.1300   12.3272    9.3509 O   0  0  0  0  0  0  0  0  0  0  0  0
   11.2379   12.9454    8.1676 C   0  0  2  0  0  0  0  0  0  0  0  0
   12.6178   13.4538    8.1772 N   0  0  0  0  0  0  0  0  0  0  0  0
    5.0300   11.6551    8.3698 C   0  0  2  0  0  0  0  0  0  0  0  0
    4.3402   12.2808    9.4735 N   0  0  0  0  0  0  0  0  0  0  0  0
   10.2382   14.1557    8.2634 C   0  0  0  0  0  0  0  0  0  0  0  0
   12.8710   14.4484    9.6144 C   0  0  0  0  0  0  0  0  0  0  0  0
   14.2843   14.6317    9.1073 C   0  0  1  0  0  0  0  0  0  0  0  0
   14.7350   16.0415    9.4963 C   0  0  0  0  0  0  0  0  0  0  0  0
   13.7866   17.1806    9.0862 C   0  0  0  0  0  0  0  0  0  0  0  0
   13.5193   17.0655    7.6494 N   0  0  0  0  0  0  0  0  0  0  0  0
   15.1674   13.7534    9.7544 O   0  0  0  0  0  0  0  0  0  0  0  0
   12.7067    9.9212    8.7012 C   0  0  0  0  0  0  0  0  0  0  0  0
   11.8010    8.8955    8.0371 C   0  0  0  0  0  0  0  0  0  0  0  0
    5.2761   10.1365    8.6624 C   0  0  1  0  0  0  0  0  0  0  0  0
   11.0592    9.4276    6.8730 N   0  0  0  0  0  0  0  0  0  0  0  0
    4.0572    9.4650    8.9147 O   0  0  0  0  0  0  0  0  0  0  0  0
    8.7753   13.6907    8.2689 C   0  0  2  0  0  0  0  0  0  0  0  0
    7.8691   14.8274    8.3993 N   0  0  0  0  0  0  0  0  0  0  0  0
   11.5008   11.3719    5.3709 C   0  0  0  0  0  0  0  0  0  0  0  0
   10.2090   11.6072    4.5237 N   0  0  0  0  0  0  0  0  0  0  0  0
   11.7975    9.8700    5.6562 C   0  0  0  0  0  0  0  0  0  0  0  0
   12.2587   14.7476   10.4358 O   0  0  0  0  0  0  0  0  0  0  0  0
    5.9894    9.5286    7.4502 C   0  0  2  0  0  0  0  0  0  0  0  0
    6.2325    8.1449    7.6451 O   0  0  0  0  0  0  0  0  0  0  0  0
    8.5315   12.7328    9.4082 C   0  0  2  0  0  0  0  0  0  0  0  0
    7.3261   10.2810    7.1891 C   0  0  2  0  0  0  0  0  0  0  0  0
    7.0977   11.6909    6.9853 O   0  0  0  0  0  0  0  0  0  0  0  0
    9.5172   11.4912    9.3004 C   0  0  2  0  0  0  0  0  0  0  0  0
    9.2491   10.5854   10.4125 O   0  0  0  0  0  0  0  0  0  0  0  0
    8.0405    9.7468    6.0054 C   0  0  0  0  0  0  0  0  0  0  0  0
    8.7571    8.6593    6.3651 N   0  0  0  0  0  0  0  0  0  0  0  0
   10.9954   12.0112    9.3633 C   0  0  1  0  0  0  0  0  0  0  0  0
   11.8851   10.9425    9.2995 O   0  0  0  0  0  0  0  0  0  0  0  0
  1  2  1  1  0  0  0
  1  5  1  0  0  0  0
  1 29  1  0  0  0  0
  3  4  1  1  0  0  0
  3  7  1  0  0  0  0
  3 34  1  0  0  0  0
  5  6  1  1  0  0  0
  5 16  1  0  0  0  0
  7 19  1  0  0  0  0
  8  4  1  0  0  0  0
  8 24  2  0  0  0  0
  9  8  1  1  0  0  0
  9 10  1  0  0  0  0
  9 13  1  0  0  0  0
 10 11  1  0  0  0  0
 11 12  1  0  0  0  0
 14 15  1  0  0  0  0
 14 35  1  0  0  0  0
 15 17  1  0  0  0  0
 16 18  1  6  0  0  0
 16 25  1  0  0  0  0
 19 20  1  1  0  0  0
 19 27  1  0  0  0  0
 21 22  1  0  0  0  0
 21 23  1  0  0  0  0
 23 17  1  0  0  0  0
 25 26  1  1  0  0  0
 25 28  1  0  0  0  0
 27  2  1  6  0  0  0
 27 30  1  0  0  0  0
 28 29  1  0  0  0  0
 28 32  1  6  0  0  0
 30 31  1  1  0  0  0
 30 34  1  0  0  0  0
 32 33  2  0  0  0  0
 34 35  1  6  0  0  0
M  END
>  <CHROM.1>
170.83286130,55.62376269,146.08355733,-52.13335117,-53.24434709,66.81523551
-66.77458499,64.72595157,-86.03865632,-120.72243138,24.83295074,-83.24829646
-35.07533267,9.77864449,12.03757917,8.24599318,2.60129858,-0.12562847,-2.72236588

>  <Name>
2f4t_lig

>  <RI>
0

>  <Rbt.Current_Directory>
/home/itssahil/PROJECTS/Mol_Feturizer/New_Systems/rnas/2f4t

>  <Rbt.Executable>
rbdock ($Id: //depot/dev/client3/rdock/2013.1/src/exe/rbdock.cxx#4 $)

>  <Rbt.Library>
libRbt.so (2013.1, Build901 2013/11/27)

>  <Rbt.Parameter_File>
/export/apps/rDock/src/rDock_2013.1_src/data/scripts/dock_solv.prm

>  <Rbt.Receptor>
prm/blind_docking_100.prm

>  <SCORE>
8.51378

>  <SCORE.INTER>
6.56191

>  <SCORE.INTER.CONST>
1

>  <SCORE.INTER.POLAR>
0

>  <SCORE.INTER.ROT>
13

>  <SCORE.INTER.SOLV>
10.8619

>  <SCORE.INTER.VDW>
-11.5127

>  <SCORE.INTER.norm>
0.187483

>  <SCORE.INTRA>
0.388707

>  <SCORE.INTRA.DIHEDRAL>
-8.80215

>  <SCORE.INTRA.DIHEDRAL.0>
23.8882

>  <SCORE.INTRA.POLAR>
0

>  <SCORE.INTRA.POLAR.0>
0

>  <SCORE.INTRA.REPUL>
0

>  <SCORE.INTRA.REPUL.0>
0

>  <SCORE.INTRA.SOLV>
9.85631

>  <SCORE.INTRA.SOLV.lig_0>
-97.6888

>  <SCORE.INTRA.VDW>
-0.138376

>  <SCORE.INTRA.VDW.0>
-3.9206

>  <SCORE.INTRA.norm>
0.0111059

>  <SCORE.RESTR>
1.56316

>  <SCORE.RESTR.CAVITY>
1.56316

>  <SCORE.RESTR.norm>
0.0446618

>  <SCORE.SYSTEM>
0

>  <SCORE.SYSTEM.CONST>
0

>  <SCORE.SYSTEM.DIHEDRAL>
0

>  <SCORE.SYSTEM.SOLV>
0

>  <SCORE.SYSTEM.norm>
0

>  <SCORE.heavy>
35

>  <SCORE.norm>
0.243251

>  <RMSD>
30.222

$$$$
2f4t_lig
 OpenBabel11021811433D
libRbt.so/2013.1/901 2013/11/27
 35 36  0  0  0  0  0  0  0  0999 V2000
   13.7267   14.4847    8.6695 C   0  0  2  0  0  0  0  0  0  0  0  0
   13.7616   13.5311    9.7816 O   0  0  0  0  0  0  0  0  0  0  0  0
   11.6673   10.1447    8.1072 C   0  0  2  0  0  0  0  0  0  0  0  0
   11.2453    8.7542    7.8808 N   0  0  0  0  0  0  0  0  0  0  0  0
   13.8555   15.8972    9.3159 C   0  0  2  0  0  0  0  0  0  0  0  0
   15.0545   15.9839   10.1162 N   0  0  0  0  0  0  0  0  0  0  0  0
   13.2369   10.2262    8.0524 C   0  0  0  0  0  0  0  0  0  0  0  0
   11.7031    8.2562    6.2495 C   0  0  0  0  0  0  0  0  0  0  0  0
   11.0863    6.9201    6.5999 C   0  0  1  0  0  0  0  0  0  0  0  0
    9.6478    6.9247    6.0778 C   0  0  0  0  0  0  0  0  0  0  0  0
    8.8688    8.2345    6.2841 C   0  0  0  0  0  0  0  0  0  0  0  0
    9.3400    9.2132    5.2997 N   0  0  0  0  0  0  0  0  0  0  0  0
   11.7368    5.8749    5.9257 O   0  0  0  0  0  0  0  0  0  0  0  0
    8.4902   10.6585   10.1242 C   0  0  0  0  0  0  0  0  0  0  0  0
    7.4895   10.0559    9.1500 C   0  0  0  0  0  0  0  0  0  0  0  0
   12.5894   16.2096   10.1829 C   0  0  1  0  0  0  0  0  0  0  0  0
    7.2687   10.8820    7.9428 N   0  0  0  0  0  0  0  0  0  0  0  0
   12.6843   17.4904   10.7752 O   0  0  0  0  0  0  0  0  0  0  0  0
   13.7446   11.6548    8.2928 C   0  0  2  0  0  0  0  0  0  0  0  0
   15.2034   11.6974    8.2777 N   0  0  0  0  0  0  0  0  0  0  0  0
    4.8164   10.9516    7.4814 C   0  0  0  0  0  0  0  0  0  0  0  0
    3.6467   10.6343    6.4949 N   0  0  0  0  0  0  0  0  0  0  0  0
    6.2137   10.5019    6.9610 C   0  0  0  0  0  0  0  0  0  0  0  0
   12.1942    8.7330    5.4306 O   0  0  0  0  0  0  0  0  0  0  0  0
   11.3584   16.1220    9.2748 C   0  0  2  0  0  0  0  0  0  0  0  0
   10.1722   16.4078    9.9981 O   0  0  0  0  0  0  0  0  0  0  0  0
   13.2502   12.1729    9.6203 C   0  0  2  0  0  0  0  0  0  0  0  0
   11.2725   14.7072    8.6328 C   0  0  2  0  0  0  0  0  0  0  0  0
   12.4704   14.4001    7.8897 O   0  0  0  0  0  0  0  0  0  0  0  0
   11.6628   12.1228    9.6710 C   0  0  2  0  0  0  0  0  0  0  0  0
   11.2215   12.6358   10.9638 O   0  0  0  0  0  0  0  0  0  0  0  0
   10.1110   14.5822    7.7206 C   0  0  0  0  0  0  0  0  0  0  0  0
   10.4411   13.7889    6.6778 N   0  0  0  0  0  0  0  0  0  0  0  0
   11.1969   10.6371    9.4847 C   0  0  1  0  0  0  0  0  0  0  0  0
    9.8089   10.5554    9.5527 O   0  0  0  0  0  0  0  0  0  0  0  0
  1  2  1  1  0  0  0
  1  5  1  0  0  0  0
  1 29  1  0  0  0  0
  3  4  1  1  0  0  0
  3  7  1  0  0  0  0
  3 34  1  0  0  0  0
  5  6  1  1  0  0  0
  5 16  1  0  0  0  0
  7 19  1  0  0  0  0
  8  4  1  0  0  0  0
  8 24  2  0  0  0  0
  9  8  1  6  0  0  0
  9 10  1  0  0  0  0
  9 13  1  0  0  0  0
 10 11  1  0  0  0  0
 11 12  1  0  0  0  0
 14 15  1  0  0  0  0
 14 35  1  0  0  0  0
 15 17  1  0  0  0  0
 16 18  1  6  0  0  0
 16 25  1  0  0  0  0
 19 20  1  1  0  0  0
 19 27  1  0  0  0  0
 21 22  1  0  0  0  0
 21 23  1  0  0  0  0
 23 17  1  0  0  0  0
 25 26  1  1  0  0  0
 25 28  1  0  0  0  0
 27  2  1  6  0  0  0
 27 30  1  0  0  0  0
 28 29  1  0  0  0  0
 28 32  1  6  0  0  0
 30 31  1  1  0  0  0
 30 34  1  0  0  0  0
 32 33  2  0  0  0  0
 34 35  1  6  0  0  0
M  END
>  <CHROM.1>
160.33445491,-64.23798322,95.55051198,-41.35489513,75.94945052,-71.54979260
-173.29882329,-173.59575638,178.21161956,79.48541890,43.71104568,144.75826885
178.61802019,10.91520343,11.77961452,8.26821982,-1.05271417,0.05190674,-2.76381642

>  <Name>
2f4t_lig

>  <RI>
0

>  <Rbt.Current_Directory>
/home/itssahil/PROJECTS/Mol_Feturizer/New_Systems/rnas/2f4t

>  <Rbt.Executable>
rbdock ($Id: //depot/dev/client3/rdock/2013.1/src/exe/rbdock.cxx#4 $)

>  <Rbt.Library>
libRbt.so (2013.1, Build901 2013/11/27)

>  <Rbt.Parameter_File>
/export/apps/rDock/src/rDock_2013.1_src/data/scripts/dock_solv.prm

>  <Rbt.Receptor>
prm/blind_docking_100.prm

>  <SCORE>
-8.79099

>  <SCORE.INTER>
-8.61317

>  <SCORE.INTER.CONST>
1

>  <SCORE.INTER.POLAR>
-1.86146

>  <SCORE.INTER.ROT>
13

>  <SCORE.INTER.SOLV>
16.6967

>  <SCORE.INTER.VDW>
-17.3695

>  <SCORE.INTER.norm>
-0.246091

>  <SCORE.INTRA>
-2.3887

>  <SCORE.INTRA.DIHEDRAL>
-14.82

>  <SCORE.INTRA.DIHEDRAL.0>
23.8882

>  <SCORE.INTRA.POLAR>
0

>  <SCORE.INTRA.POLAR.0>
0

>  <SCORE.INTRA.REPUL>
0

>  <SCORE.INTRA.REPUL.0>
0

>  <SCORE.INTRA.SOLV>
6.71538

>  <SCORE.INTRA.SOLV.lig_0>
-97.6888

>  <SCORE.INTRA.VDW>
1.66361

>  <SCORE.INTRA.VDW.0>
-3.9206

>  <SCORE.INTRA.norm>
-0.0682485

>  <SCORE.RESTR>
2.21088

>  <SCORE.RESTR.CAVITY>
2.21088

>  <SCORE.RESTR.norm>
0.0631679

>  <SCORE.SYSTEM>
0

>  <SCORE.SYSTEM.CONST>
0

>  <SCORE.SYSTEM.DIHEDRAL>
0

>  <SCORE.SYSTEM.SOLV>
0

>  <SCORE.SYSTEM.norm>
0

>  <SCORE.heavy>
35

>  <SCORE.norm>
-0.251171

>  <RMSD>
30.226

$$$$
2f4t_lig
 OpenBabel11021811433D
libRbt.so/2013.1/901 2013/11/27
 35 36  0  0  0  0  0  0  0  0999 V2000
   11.8554   15.3282   10.0586 C   0  0  2  0  0  0  0  0  0  0  0  0
   11.0966   15.4806    8.8143 O   0  0  0  0  0  0  0  0  0  0  0  0
    8.1159   12.3641    9.0576 C   0  0  2  0  0  0  0  0  0  0  0  0
    6.8204   11.6779    8.9405 N   0  0  0  0  0  0  0  0  0  0  0  0
   13.3072   15.7915    9.7313 C   0  0  2  0  0  0  0  0  0  0  0  0
   13.3075   17.1398    9.2139 N   0  0  0  0  0  0  0  0  0  0  0  0
    7.9133   13.7305    9.8095 C   0  0  0  0  0  0  0  0  0  0  0  0
    6.1301   11.4407   10.5486 C   0  0  0  0  0  0  0  0  0  0  0  0
    4.9660   10.7891    9.8355 C   0  0  1  0  0  0  0  0  0  0  0  0
    5.0173   11.2291    8.3707 C   0  0  0  0  0  0  0  0  0  0  0  0
    3.8911   10.6889    7.4735 C   0  0  0  0  0  0  0  0  0  0  0  0
    4.1026    9.2511    7.2805 N   0  0  0  0  0  0  0  0  0  0  0  0
    5.1039    9.3923    9.8224 O   0  0  0  0  0  0  0  0  0  0  0  0
    9.4877   10.1999    6.6095 C   0  0  0  0  0  0  0  0  0  0  0  0
   10.6607   10.4907    5.6859 C   0  0  0  0  0  0  0  0  0  0  0  0
   13.9681   14.8075    8.7080 C   0  0  1  0  0  0  0  0  0  0  0  0
   11.4075    9.2800    5.2796 N   0  0  0  0  0  0  0  0  0  0  0  0
   15.2894   15.2079    8.4009 O   0  0  0  0  0  0  0  0  0  0  0  0
    9.2311   14.5041    9.9558 C   0  0  2  0  0  0  0  0  0  0  0  0
    9.0109   15.7851   10.6196 N   0  0  0  0  0  0  0  0  0  0  0  0
   12.8126    9.1868    7.3408 C   0  0  0  0  0  0  0  0  0  0  0  0
   11.9475    8.1160    8.0802 N   0  0  0  0  0  0  0  0  0  0  0  0
   12.7887    9.0488    5.7897 C   0  0  0  0  0  0  0  0  0  0  0  0
    6.4446   11.6757   11.5411 O   0  0  0  0  0  0  0  0  0  0  0  0
   13.9558   13.4040    9.3225 C   0  0  2  0  0  0  0  0  0  0  0  0
   14.5543   12.4612    8.4480 O   0  0  0  0  0  0  0  0  0  0  0  0
    9.8501   14.7504    8.6026 C   0  0  2  0  0  0  0  0  0  0  0  0
   12.4949   12.9828    9.6536 C   0  0  2  0  0  0  0  0  0  0  0  0
   11.8705   13.9296   10.5455 O   0  0  0  0  0  0  0  0  0  0  0  0
   10.0866   13.3714    7.8493 C   0  0  2  0  0  0  0  0  0  0  0  0
   10.6905   13.6477    6.5500 O   0  0  0  0  0  0  0  0  0  0  0  0
   12.4334   11.6403   10.2787 C   0  0  0  0  0  0  0  0  0  0  0  0
   11.1474   11.2299   10.3377 N   0  0  0  0  0  0  0  0  0  0  0  0
    8.7060   12.6501    7.6679 C   0  0  1  0  0  0  0  0  0  0  0  0
    8.8759   11.4493    6.9847 O   0  0  0  0  0  0  0  0  0  0  0  0
  1  2  1  6  0  0  0
  1  5  1  0  0  0  0
  1 29  1  0  0  0  0
  3  4  1  6  0  0  0
  3  7  1  0  0  0  0
  3 34  1  0  0  0  0
  5  6  1  6  0  0  0
  5 16  1  0  0  0  0
  7 19  1  0  0  0  0
  8  4  1  0  0  0  0
  8 24  2  0  0  0  0
  9  8  1  1  0  0  0
  9 10  1  0  0  0  0
  9 13  1  0  0  0  0
 10 11  1  0  0  0  0
 11 12  1  0  0  0  0
 14 15  1  0  0  0  0
 14 35  1  0  0  0  0
 15 17  1  0  0  0  0
 16 18  1  1  0  0  0
 16 25  1  0  0  0  0
 19 20  1  6  0  0  0
 19 27  1  0  0  0  0
 21 22  1  0  0  0  0
 21 23  1  0  0  0  0
 23 17  1  0  0  0  0
 25 26  1  6  0  0  0
 25 28  1  0  0  0  0
 27  2  1  1  0  0  0
 27 30  1  0  0  0  0
 28 29  1  0  0  0  0
 28 32  1  1  0  0  0
 30 31  1  6  0  0  0
 30 34  1  0  0  0  0
 32 33  2  0  0  0  0
 34 35  1  1  0  0  0
M  END
>  <CHROM.1>
159.47836736,-57.39107334,-18.47767846,-178.91550642,-70.33802658,177.47106804
-78.68603083,-110.43492977,63.64876750,51.24359048,28.17757883,-169.74211694
-78.68256496,9.99454735,12.39601035,8.64879091,0.39399716,0.20816543,0.51565558

>  <Name>
2f4t_lig

>  <RI>
0

>  <Rbt.Current_Directory>
/home/itssahil/PROJECTS/Mol_Feturizer/New_Systems/rnas/2f4t

>  <Rbt.Executable>
rbdock ($Id: //depot/dev/client3/rdock/2013.1/src/exe/rbdock.cxx#4 $)

>  <Rbt.Library>
libRbt.so (2013.1, Build901 2013/11/27)

>  <Rbt.Parameter_File>
/export/apps/rDock/src/rDock_2013.1_src/data/scripts/dock_solv.prm

>  <Rbt.Receptor>
prm/blind_docking_100.prm

>  <SCORE>
8.73717

>  <SCORE.INTER>
-4.13727

>  <SCORE.INTER.CONST>
1

>  <SCORE.INTER.POLAR>
-0.916515

>  <SCORE.INTER.ROT>
13

>  <SCORE.INTER.SOLV>
11.8175

>  <SCORE.INTER.VDW>
-15.909

>  <SCORE.INTER.norm>
-0.118208

>  <SCORE.INTRA>
12.7839

>  <SCORE.INTRA.DIHEDRAL>
-9.29191

>  <SCORE.INTRA.DIHEDRAL.0>
23.8882

>  <SCORE.INTRA.POLAR>
0

>  <SCORE.INTRA.POLAR.0>
0

>  <SCORE.INTRA.REPUL>
0

>  <SCORE.INTRA.REPUL.0>
0

>  <SCORE.INTRA.SOLV>
6.35885

>  <SCORE.INTRA.SOLV.lig_0>
-97.6888

>  <SCORE.INTRA.VDW>
14.2504

>  <SCORE.INTRA.VDW.0>
-3.9206

>  <SCORE.INTRA.norm>
0.365255

>  <SCORE.RESTR>
0.0905282

>  <SCORE.RESTR.CAVITY>
0.0905282

>  <SCORE.RESTR.norm>
0.00258652

>  <SCORE.SYSTEM>
0

>  <SCORE.SYSTEM.CONST>
0

>  <SCORE.SYSTEM.DIHEDRAL>
0

>  <SCORE.SYSTEM.SOLV>
0

>  <SCORE.SYSTEM.norm>
0

>  <SCORE.heavy>
35

>  <SCORE.norm>
0.249634

>  <RMSD>
30.228

$$$$
2f4t_lig
 OpenBabel11021811433D
libRbt.so/2013.1/901 2013/11/27
 35 36  0  0  0  0  0  0  0  0999 V2000
   14.3261   14.3656    8.6370 C   0  0  2  0  0  0  0  0  0  0  0  0
   14.2033   13.4681    9.7888 O   0  0  0  0  0  0  0  0  0  0  0  0
   11.7794   10.2732    8.1842 C   0  0  2  0  0  0  0  0  0  0  0  0
   11.2164    8.9285    7.9906 N   0  0  0  0  0  0  0  0  0  0  0  0
   14.7579   15.7463    9.2174 C   0  0  2  0  0  0  0  0  0  0  0  0
   15.9745   15.6185    9.9849 N   0  0  0  0  0  0  0  0  0  0  0  0
   13.3493   10.1894    8.1432 C   0  0  0  0  0  0  0  0  0  0  0  0
   11.6578    8.3280    6.3896 C   0  0  0  0  0  0  0  0  0  0  0  0
   10.8928    7.0782    6.7652 C   0  0  1  0  0  0  0  0  0  0  0  0
    9.5232    7.1540    6.0868 C   0  0  0  0  0  0  0  0  0  0  0  0
    8.8881    8.5532    6.0236 C   0  0  0  0  0  0  0  0  0  0  0  0
    8.3756    8.8893    7.3552 N   0  0  0  0  0  0  0  0  0  0  0  0
   11.5164    5.9331    6.2457 O   0  0  0  0  0  0  0  0  0  0  0  0
    8.6029   10.4411    9.6191 C   0  0  0  0  0  0  0  0  0  0  0  0
    7.6712   11.6409    9.6970 C   0  0  0  0  0  0  0  0  0  0  0  0
   13.6091   16.3421   10.0992 C   0  0  1  0  0  0  0  0  0  0  0  0
    6.2752   11.3309    9.3178 N   0  0  0  0  0  0  0  0  0  0  0  0
   13.9792   17.5988   10.6323 O   0  0  0  0  0  0  0  0  0  0  0  0
   14.0015   11.5635    8.3505 C   0  0  2  0  0  0  0  0  0  0  0  0
   15.4569   11.4536    8.3490 N   0  0  0  0  0  0  0  0  0  0  0  0
    4.4574   10.5758    7.7826 C   0  0  0  0  0  0  0  0  0  0  0  0
    4.1984    9.2210    8.5169 N   0  0  0  0  0  0  0  0  0  0  0  0
    5.9285   11.0755    7.8910 C   0  0  0  0  0  0  0  0  0  0  0  0
   12.2171    8.7211    5.5700 O   0  0  0  0  0  0  0  0  0  0  0  0
   12.3574   16.4714    9.2250 C   0  0  2  0  0  0  0  0  0  0  0  0
   11.2770   17.0195    9.9626 O   0  0  0  0  0  0  0  0  0  0  0  0
   13.5542   12.1666    9.6586 C   0  0  2  0  0  0  0  0  0  0  0  0
   11.9674   15.0800    8.6480 C   0  0  2  0  0  0  0  0  0  0  0  0
   13.0545   14.5080    7.8912 O   0  0  0  0  0  0  0  0  0  0  0  0
   11.9699   12.2834    9.6946 C   0  0  2  0  0  0  0  0  0  0  0  0
   11.5751   12.8750   10.9686 O   0  0  0  0  0  0  0  0  0  0  0  0
   10.7762   15.1585    7.7696 C   0  0  0  0  0  0  0  0  0  0  0  0
   10.7364   14.0721    6.9671 N   0  0  0  0  0  0  0  0  0  0  0  0
   11.3529   10.8497    9.5432 C   0  0  1  0  0  0  0  0  0  0  0  0
    9.9635   10.9148    9.5992 O   0  0  0  0  0  0  0  0  0  0  0  0
  1  2  1  1  0  0  0
  1  5  1  0  0  0  0
  1 29  1  0  0  0  0
  3  4  1  1  0  0  0
  3  7  1  0  0  0  0
  3 34  1  0  0  0  0
  5  6  1  1  0  0  0
  5 16  1  0  0  0  0
  7 19  1  0  0  0  0
  8  4  1  0  0  0  0
  8 24  2  0  0  0  0
  9  8  1  6  0  0  0
  9 10  1  0  0  0  0
  9 13  1  0  0  0  0
 10 11  1  0  0  0  0
 11 12  1  0  0  0  0
 14 15  1  0  0  0  0
 14 35  1  0  0  0  0
 15 17  1  0  0  0  0
 16 18  1  6  0  0  0
 16 25  1  0  0  0  0
 19 20  1  1  0  0  0
 19 27  1  0  0  0  0
 21 22  1  0  0  0  0
 21 23  1  0  0  0  0
 23 17  1  0  0  0  0
 25 26  1  1  0  0  0
 25 28  1  0  0  0  0
 27  2  1  6  0  0  0
 27 30  1  0  0  0  0
 28 29  1  0  0  0  0
 28 32  1  6  0  0  0
 30 31  1  1  0  0  0
 30 34  1  0  0  0  0
 32 33  2  0  0  0  0
 34 35  1  6  0  0  0
M  END
>  <CHROM.1>
167.37333587,-63.15656443,101.07228837,-37.30970646,-75.43454248,162.56140795
-178.61120710,-72.25676792,-62.30896008,171.88141284,41.11043966,160.05651127
63.84524595,11.18061529,11.89091978,8.48494459,-0.90699835,-0.06980242,-2.77890149

>  <Name>
2f4t_lig

>  <RI>
0

>  <Rbt.Current_Directory>
/home/itssahil/PROJECTS/Mol_Feturizer/New_Systems/rnas/2f4t

>  <Rbt.Executable>
rbdock ($Id: //depot/dev/client3/rdock/2013.1/src/exe/rbdock.cxx#4 $)

>  <Rbt.Library>
libRbt.so (2013.1, Build901 2013/11/27)

>  <Rbt.Parameter_File>
/export/apps/rDock/src/rDock_2013.1_src/data/scripts/dock_solv.prm

>  <Rbt.Receptor>
prm/blind_docking_100.prm

>  <SCORE>
-8.07761

>  <SCORE.INTER>
-8.97039

>  <SCORE.INTER.CONST>
1

>  <SCORE.INTER.POLAR>
-1.9049

>  <SCORE.INTER.ROT>
13

>  <SCORE.INTER.SOLV>
12.5112

>  <SCORE.INTER.VDW>
-16.0677

>  <SCORE.INTER.norm>
-0.256297

>  <SCORE.INTRA>
-1.56912

>  <SCORE.INTRA.DIHEDRAL>
-14.0659

>  <SCORE.INTRA.DIHEDRAL.0>
23.8882

>  <SCORE.INTRA.POLAR>
0

>  <SCORE.INTRA.POLAR.0>
0

>  <SCORE.INTRA.REPUL>
0

>  <SCORE.INTRA.REPUL.0>
0

>  <SCORE.INTRA.SOLV>
8.3754

>  <SCORE.INTRA.SOLV.lig_0>
-97.6888

>  <SCORE.INTRA.VDW>
1.27612

>  <SCORE.INTRA.VDW.0>
-3.9206

>  <SCORE.INTRA.norm>
-0.0448321

>  <SCORE.RESTR>
2.46191

>  <SCORE.RESTR.CAVITY>
2.46191

>  <SCORE.RESTR.norm>
0.0703402

>  <SCORE.SYSTEM>
0

>  <SCORE.SYSTEM.CONST>
0

>  <SCORE.SYSTEM.DIHEDRAL>
0

>  <SCORE.SYSTEM.SOLV>
0

>  <SCORE.SYSTEM.norm>
0

>  <SCORE.heavy>
35

>  <SCORE.norm>
-0.230789

>  <RMSD>
30.232

$$$$
2f4t_lig
 OpenBabel11021811433D
libRbt.so/2013.1/901 2013/11/27
 35 36  0  0  0  0  0  0  0  0999 V2000
   11.3835   14.8580   10.1732 C   0  0  2  0  0  0  0  0  0  0  0  0
   10.8377   15.2363    8.8670 O   0  0  0  0  0  0  0  0  0  0  0  0
    7.7672   12.2450    8.3368 C   0  0  2  0  0  0  0  0  0  0  0  0
    6.5765   11.5652    7.8048 N   0  0  0  0  0  0  0  0  0  0  0  0
   12.6791   15.7053   10.3548 C   0  0  2  0  0  0  0  0  0  0  0  0
   12.3873   17.1146   10.2348 N   0  0  0  0  0  0  0  0  0  0  0  0
    7.3917   13.7225    8.7237 C   0  0  0  0  0  0  0  0  0  0  0  0
    5.5512   11.0365    9.1420 C   0  0  0  0  0  0  0  0  0  0  0  0
    4.6229   10.4977    8.0761 C   0  0  1  0  0  0  0  0  0  0  0  0
    4.1079    9.1390    8.5564 C   0  0  0  0  0  0  0  0  0  0  0  0
    5.1707    8.0365    8.6983 C   0  0  0  0  0  0  0  0  0  0  0  0
    5.8510    7.8809    7.4091 N   0  0  0  0  0  0  0  0  0  0  0  0
    3.4883   11.3128    7.9402 O   0  0  0  0  0  0  0  0  0  0  0  0
    9.7707    9.9134    6.1244 C   0  0  0  0  0  0  0  0  0  0  0  0
   11.1330   10.3489    5.6069 C   0  0  0  0  0  0  0  0  0  0  0  0
   13.7562   15.2732    9.3034 C   0  0  1  0  0  0  0  0  0  0  0  0
   12.0547    9.2214    5.3467 N   0  0  0  0  0  0  0  0  0  0  0  0
   14.9430   16.0277    9.4543 O   0  0  0  0  0  0  0  0  0  0  0  0
    8.5981   14.4932    9.2779 C   0  0  2  0  0  0  0  0  0  0  0  0
    8.2349   15.8716    9.5912 N   0  0  0  0  0  0  0  0  0  0  0  0
   11.6330    7.2767    6.8539 C   0  0  0  0  0  0  0  0  0  0  0  0
   11.6839    6.0696    5.8628 N   0  0  0  0  0  0  0  0  0  0  0  0
   12.6087    8.4326    6.4834 C   0  0  0  0  0  0  0  0  0  0  0  0
    5.6151   11.0999   10.2055 O   0  0  0  0  0  0  0  0  0  0  0  0
   14.0355   13.7790    9.4960 C   0  0  2  0  0  0  0  0  0  0  0  0
   15.0166   13.3232    8.5787 O   0  0  0  0  0  0  0  0  0  0  0  0
    9.7261   14.4962    8.2766 C   0  0  2  0  0  0  0  0  0  0  0  0
   12.7188   12.9673    9.3270 C   0  0  2  0  0  0  0  0  0  0  0  0
   11.7092   13.4155   10.2551 O   0  0  0  0  0  0  0  0  0  0  0  0
   10.1321   13.0057    7.9043 C   0  0  2  0  0  0  0  0  0  0  0  0
   11.2270   13.0478    6.9408 O   0  0  0  0  0  0  0  0  0  0  0  0
   12.9326   11.5152    9.5335 C   0  0  0  0  0  0  0  0  0  0  0  0
   12.9971   10.8949    8.3349 N   0  0  0  0  0  0  0  0  0  0  0  0
    8.8867   12.2814    7.2849 C   0  0  1  0  0  0  0  0  0  0  0  0
    9.2183   10.9792    6.9214 O   0  0  0  0  0  0  0  0  0  0  0  0
  1  2  1  6  0  0  0
  1  5  1  0  0  0  0
  1 29  1  0  0  0  0
  3  4  1  6  0  0  0
  3  7  1  0  0  0  0
  3 34  1  0  0  0  0
  5  6  1  6  0  0  0
  5 16  1  0  0  0  0
  7 19  1  0  0  0  0
  8  4  1  0  0  0  0
  8 24  2  0  0  0  0
  9  8  1  1  0  0  0
  9 10  1  0  0  0  0
  9 13  1  0  0  0  0
 10 11  1  0  0  0  0
 11 12  1  0  0  0  0
 14 15  1  0  0  0  0
 14 35  1  0  0  0  0
 15 17  1  0  0  0  0
 16 18  1  1  0  0  0
 16 25  1  0  0  0  0
 19 20  1  6  0  0  0
 19 27  1  0  0  0  0
 21 22  1  0  0  0  0
 21 23  1  0  0  0  0
 23 17  1  0  0  0  0
 25 26  1  6  0  0  0
 25 28  1  0  0  0  0
 27  2  1  1  0  0  0
 27 30  1  0  0  0  0
 28 29  1  0  0  0  0
 28 32  1  1  0  0  0
 30 31  1  6  0  0  0
 30 34  1  0  0  0  0
 32 33  2  0  0  0  0
 34 35  1  1  0  0  0
M  END
>  <CHROM.1>
170.91358142,-80.02750361,139.21375342,-64.92100649,-56.30383881,152.74499895
42.15142130,-69.47399251,76.56137636,87.36402981,55.05658556,-101.26859842
161.45165984,9.91041813,12.06229838,8.31415313,0.60643691,0.10598131,0.41743360

>  <Name>
2f4t_lig

>  <RI>
0

>  <Rbt.Current_Directory>
/home/itssahil/PROJECTS/Mol_Feturizer/New_Systems/rnas/2f4t

>  <Rbt.Executable>
rbdock ($Id: //depot/dev/client3/rdock/2013.1/src/exe/rbdock.cxx#4 $)

>  <Rbt.Library>
libRbt.so (2013.1, Build901 2013/11/27)

>  <Rbt.Parameter_File>
/export/apps/rDock/src/rDock_2013.1_src/data/scripts/dock_solv.prm

>  <Rbt.Receptor>
prm/blind_docking_100.prm

>  <SCORE>
-5.31908

>  <SCORE.INTER>
-1.4899

>  <SCORE.INTER.CONST>
1

>  <SCORE.INTER.POLAR>
-1.99611

>  <SCORE.INTER.ROT>
13

>  <SCORE.INTER.SOLV>
18.0644

>  <SCORE.INTER.VDW>
-12.6277

>  <SCORE.INTER.norm>
-0.0425686

>  <SCORE.INTRA>
-4.75946

>  <SCORE.INTRA.DIHEDRAL>
-12.9119

>  <SCORE.INTRA.DIHEDRAL.0>
23.8882

>  <SCORE.INTRA.POLAR>
0

>  <SCORE.INTRA.POLAR.0>
0

>  <SCORE.INTRA.REPUL>
0

>  <SCORE.INTRA.REPUL.0>
0

>  <SCORE.INTRA.SOLV>
3.95512

>  <SCORE.INTRA.SOLV.lig_0>
-97.6888

>  <SCORE.INTRA.VDW>
-0.281079

>  <SCORE.INTRA.VDW.0>
-3.9206

>  <SCORE.INTRA.norm>
-0.135985

>  <SCORE.RESTR>
0.930285

>  <SCORE.RESTR.CAVITY>
0.930285

>  <SCORE.RESTR.norm>
0.0265796

>  <SCORE.SYSTEM>
0

>  <SCORE.SYSTEM.CONST>
0

>  <SCORE.SYSTEM.DIHEDRAL>
0

>  <SCORE.SYSTEM.SOLV>
0

>  <SCORE.SYSTEM.norm>
0

>  <SCORE.heavy>
35

>  <SCORE.norm>
-0.151974

>  <RMSD>
30.238

$$$$
2f4t_lig
 OpenBabel11021811433D
libRbt.so/2013.1/901 2013/11/27
 35 36  0  0  0  0  0  0  0  0999 V2000
   12.1267   15.0038    9.7900 C   0  0  2  0  0  0  0  0  0  0  0  0
   11.5103   15.0718    8.4624 O   0  0  0  0  0  0  0  0  0  0  0  0
    8.0786   12.5016    8.9865 C   0  0  2  0  0  0  0  0  0  0  0  0
    6.8100   11.8141    8.7023 N   0  0  0  0  0  0  0  0  0  0  0  0
   13.2066   16.1275    9.8160 C   0  0  2  0  0  0  0  0  0  0  0  0
   12.6146   17.4103    9.5170 N   0  0  0  0  0  0  0  0  0  0  0  0
    7.8974   14.0453    8.7465 C   0  0  0  0  0  0  0  0  0  0  0  0
    6.0466   11.3318   10.2200 C   0  0  0  0  0  0  0  0  0  0  0  0
    4.9381   10.7678    9.3589 C   0  0  1  0  0  0  0  0  0  0  0  0
    5.4076    9.4092    8.8337 C   0  0  0  0  0  0  0  0  0  0  0  0
    4.5430    8.7901    7.7226 C   0  0  0  0  0  0  0  0  0  0  0  0
    4.9973    7.4150    7.4948 N   0  0  0  0  0  0  0  0  0  0  0  0
    3.7906   10.5084   10.1244 O   0  0  0  0  0  0  0  0  0  0  0  0
    9.7019    9.3945    8.9299 C   0  0  0  0  0  0  0  0  0  0  0  0
   11.2160    9.3223    9.0559 C   0  0  0  0  0  0  0  0  0  0  0  0
   14.3510   15.7974    8.7992 C   0  0  1  0  0  0  0  0  0  0  0  0
   11.8503    8.4316    8.0596 N   0  0  0  0  0  0  0  0  0  0  0  0
   15.3448   16.8036    8.8106 O   0  0  0  0  0  0  0  0  0  0  0  0
    9.1934   14.8225    9.0164 C   0  0  2  0  0  0  0  0  0  0  0  0
    9.0116   16.2455    8.7479 N   0  0  0  0  0  0  0  0  0  0  0  0
   11.6969    9.7670    5.9561 C   0  0  0  0  0  0  0  0  0  0  0  0
   11.8811    9.6475    4.4089 N   0  0  0  0  0  0  0  0  0  0  0  0
   11.3589    8.4157    6.6526 C   0  0  0  0  0  0  0  0  0  0  0  0
    6.3043   11.4260   11.2514 O   0  0  0  0  0  0  0  0  0  0  0  0
   14.9495   14.4398    9.1819 C   0  0  2  0  0  0  0  0  0  0  0  0
   16.0054   14.0845    8.3040 O   0  0  0  0  0  0  0  0  0  0  0  0
   10.3122   14.2970    8.1520 C   0  0  2  0  0  0  0  0  0  0  0  0
   13.8413   13.3477    9.1643 C   0  0  2  0  0  0  0  0  0  0  0  0
   12.7591   13.6910   10.0547 O   0  0  0  0  0  0  0  0  0  0  0  0
   10.5220   12.7435    8.4122 C   0  0  2  0  0  0  0  0  0  0  0  0
   11.6131   12.2724    7.5657 O   0  0  0  0  0  0  0  0  0  0  0  0
   14.3667   12.0186    9.5571 C   0  0  0  0  0  0  0  0  0  0  0  0
   15.5010   12.1770   10.2740 N   0  0  0  0  0  0  0  0  0  0  0  0
    9.1934   11.9875    8.0622 C   0  0  1  0  0  0  0  0  0  0  0  0
    9.3537   10.6180    8.2532 O   0  0  0  0  0  0  0  0  0  0  0  0
  1  2  1  6  0  0  0
  1  5  1  0  0  0  0
  1 29  1  0  0  0  0
  3  4  1  6  0  0  0
  3  7  1  0  0  0  0
  3 34  1  0  0  0  0
  5  6  1  6  0  0  0
  5 16  1  0  0  0  0
  7 19  1  0  0  0  0
  8  4  1  0  0  0  0
  8 24  2  0  0  0  0
  9  8  1  1  0  0  0
  9 10  1  0  0  0  0
  9 13  1  0  0  0  0
 10 11  1  0  0  0  0
 11 12  1  0  0  0  0
 14 15  1  0  0  0  0
 14 35  1  0  0  0  0
 15 17  1  0  0  0  0
 16 18  1  1  0  0  0
 16 25  1  0  0  0  0
 19 20  1  6  0  0  0
 19 27  1  0  0  0  0
 21 22  1  0  0  0  0
 21 23  1  0  0  0  0
 23 17  1  0  0  0  0
 25 26  1  6  0  0  0
 25 28  1  0  0  0  0
 27  2  1  1  0  0  0
 27 30  1  0  0  0  0
 28 29  1  0  0  0  0
 28 32  1  1  0  0  0
 30 31  1  6  0  0  0
 30 34  1  0  0  0  0
 32 33  2  0  0  0  0
 34 35  1  1  0  0  0
M  END
>  <CHROM.1>
-170.52825871,-105.58757593,80.08308381,-168.67044690,-170.84218346,-101.34244522
-69.50208068,40.19411180,151.92342449,68.42768139,64.99332417,22.01728770
-68.45559622,10.36217090,12.33637118,8.69730988,0.52268083,0.16380041,0.32898176

>  <Name>
2f4t_lig

>  <RI>
0

>  <Rbt.Current_Directory>
/home/itssahil/PROJECTS/Mol_Feturizer/New_Systems/rnas/2f4t

>  <Rbt.Executable>
rbdock ($Id: //depot/dev/client3/rdock/2013.1/src/exe/rbdock.cxx#4 $)

>  <Rbt.Library>
libRbt.so (2013.1, Build901 2013/11/27)

>  <Rbt.Parameter_File>
/export/apps/rDock/src/rDock_2013.1_src/data/scripts/dock_solv.prm

>  <Rbt.Receptor>
prm/blind_docking_100.prm

>  <SCORE>
-1.28874

>  <SCORE.INTER>
-0.19119

>  <SCORE.INTER.CONST>
1

>  <SCORE.INTER.POLAR>
-0.916515

>  <SCORE.INTER.ROT>
13

>  <SCORE.INTER.SOLV>
15.3932

>  <SCORE.INTER.VDW>
-14.4702

>  <SCORE.INTER.norm>
-0.00546257

>  <SCORE.INTRA>
-3.11485

>  <SCORE.INTRA.DIHEDRAL>
-11.3445

>  <SCORE.INTRA.DIHEDRAL.0>
23.8882

>  <SCORE.INTRA.POLAR>
0

>  <SCORE.INTRA.POLAR.0>
0

>  <SCORE.INTRA.REPUL>
0

>  <SCORE.INTRA.REPUL.0>
0

>  <SCORE.INTRA.SOLV>
1.43305

>  <SCORE.INTRA.SOLV.lig_0>
-97.6888

>  <SCORE.INTRA.VDW>
1.84087

>  <SCORE.INTRA.VDW.0>
-3.9206

>  <SCORE.INTRA.norm>
-0.0889956

>  <SCORE.RESTR>
2.0173

>  <SCORE.RESTR.CAVITY>
2.0173

>  <SCORE.RESTR.norm>
0.0576371

>  <SCORE.SYSTEM>
0

>  <SCORE.SYSTEM.CONST>
0

>  <SCORE.SYSTEM.DIHEDRAL>
0

>  <SCORE.SYSTEM.SOLV>
0

>  <SCORE.SYSTEM.norm>
0

>  <SCORE.heavy>
35

>  <SCORE.norm>
-0.0368211

>  <RMSD>
30.256

$$$$
2f4t_lig
 OpenBabel11021811433D
libRbt.so/2013.1/901 2013/11/27
 35 36  0  0  0  0  0  0  0  0999 V2000
   11.6800   15.2889    9.7739 C   0  0  2  0  0  0  0  0  0  0  0  0
   10.9839   15.1117    8.4967 O   0  0  0  0  0  0  0  0  0  0  0  0
    8.0220   12.1381    9.5172 C   0  0  2  0  0  0  0  0  0  0  0  0
    6.7812   11.3501    9.4711 N   0  0  0  0  0  0  0  0  0  0  0  0
   13.1123   15.7866    9.4127 C   0  0  2  0  0  0  0  0  0  0  0  0
   13.0480   16.9894    8.6161 N   0  0  0  0  0  0  0  0  0  0  0  0
    7.6638   13.6694    9.5374 C   0  0  0  0  0  0  0  0  0  0  0  0
    6.3377   11.0444    7.7892 C   0  0  0  0  0  0  0  0  0  0  0  0
    5.1536   10.2889    8.3509 C   0  0  1  0  0  0  0  0  0  0  0  0
    3.9379   10.6259    7.4846 C   0  0  0  0  0  0  0  0  0  0  0  0
    4.0877   10.3293    5.9830 C   0  0  0  0  0  0  0  0  0  0  0  0
    2.9653   10.9514    5.2743 N   0  0  0  0  0  0  0  0  0  0  0  0
    5.3396    8.9029    8.2299 O   0  0  0  0  0  0  0  0  0  0  0  0
    9.0152    9.0880    8.0075 C   0  0  0  0  0  0  0  0  0  0  0  0
    8.9578    8.8508    6.5062 C   0  0  0  0  0  0  0  0  0  0  0  0
   13.8967   14.6634    8.6542 C   0  0  1  0  0  0  0  0  0  0  0  0
   10.1334    9.3778    5.7791 N   0  0  0  0  0  0  0  0  0  0  0  0
   15.2021   15.0936    8.3210 O   0  0  0  0  0  0  0  0  0  0  0  0
    8.9201   14.5506    9.5750 C   0  0  2  0  0  0  0  0  0  0  0  0
    8.5633   15.9657    9.5520 N   0  0  0  0  0  0  0  0  0  0  0  0
   11.9706    7.7358    6.1792 C   0  0  0  0  0  0  0  0  0  0  0  0
   11.0728    6.6996    6.9289 N   0  0  0  0  0  0  0  0  0  0  0  0
   11.5003    9.2106    6.3494 C   0  0  0  0  0  0  0  0  0  0  0  0
    6.7595   11.3046    6.8440 O   0  0  0  0  0  0  0  0  0  0  0  0
   13.9472   13.4265    9.5570 C   0  0  2  0  0  0  0  0  0  0  0  0
   14.6582   12.3701    8.9322 O   0  0  0  0  0  0  0  0  0  0  0  0
    9.8110   14.2480    8.3961 C   0  0  2  0  0  0  0  0  0  0  0  0
   12.5028   12.9700    9.9125 C   0  0  2  0  0  0  0  0  0  0  0  0
   11.7648   14.0318   10.5524 O   0  0  0  0  0  0  0  0  0  0  0  0
   10.2027   12.7080    8.3868 C   0  0  2  0  0  0  0  0  0  0  0  0
   11.0674   12.4541    7.2392 O   0  0  0  0  0  0  0  0  0  0  0  0
   12.4995   11.7908   10.8105 C   0  0  0  0  0  0  0  0  0  0  0  0
   11.8607   12.1020   11.9598 N   0  0  0  0  0  0  0  0  0  0  0  0
    8.8923   11.8528    8.2835 C   0  0  1  0  0  0  0  0  0  0  0  0
    9.2040   10.4966    8.2445 O   0  0  0  0  0  0  0  0  0  0  0  0
  1  2  1  6  0  0  0
  1  5  1  0  0  0  0
  1 29  1  0  0  0  0
  3  4  1  6  0  0  0
  3  7  1  0  0  0  0
  3 34  1  0  0  0  0
  5  6  1  6  0  0  0
  5 16  1  0  0  0  0
  7 19  1  0  0  0  0
  8  4  1  0  0  0  0
  8 24  2  0  0  0  0
  9  8  1  6  0  0  0
  9 10  1  0  0  0  0
  9 13  1  0  0  0  0
 10 11  1  0  0  0  0
 11 12  1  0  0  0  0
 14 15  1  0  0  0  0
 14 35  1  0  0  0  0
 15 17  1  0  0  0  0
 16 18  1  1  0  0  0
 16 25  1  0  0  0  0
 19 20  1  6  0  0  0
 19 27  1  0  0  0  0
 21 22  1  0  0  0  0
 21 23  1  0  0  0  0
 23 17  1  0  0  0  0
 25 26  1  6  0  0  0
 25 28  1  0  0  0  0
 27  2  1  1  0  0  0
 27 30  1  0  0  0  0
 28 29  1  0  0  0  0
 28 32  1  1  0  0  0
 30 31  1  6  0  0  0
 30 34  1  0  0  0  0
 32 33  2  0  0  0  0
 34 35  1  1  0  0  0
M  END
>  <CHROM.1>
159.01888582,90.84619276,139.37246292,56.60713316,-168.67237243,54.90886811
69.21205476,41.43027672,-61.83289290,74.70701678,44.87321410,120.28952749
79.05469973,9.77582399,12.08564187,8.34996412,0.59491025,-0.06650419,0.36794294

>  <Name>
2f4t_lig

>  <RI>
0

>  <Rbt.Current_Directory>
/home/itssahil/PROJECTS/Mol_Feturizer/New_Systems/rnas/2f4t

>  <Rbt.Executable>
rbdock ($Id: //depot/dev/client3/rdock/2013.1/src/exe/rbdock.cxx#4 $)

>  <Rbt.Library>
libRbt.so (2013.1, Build901 2013/11/27)

>  <Rbt.Parameter_File>
/export/apps/rDock/src/rDock_2013.1_src/data/scripts/dock_solv.prm

>  <Rbt.Receptor>
prm/blind_docking_100.prm

>  <SCORE>
2.39025

>  <SCORE.INTER>
0.890937

>  <SCORE.INTER.CONST>
1

>  <SCORE.INTER.POLAR>
0

>  <SCORE.INTER.ROT>
13

>  <SCORE.INTER.SOLV>
11.4456

>  <SCORE.INTER.VDW>
-15.4879

>  <SCORE.INTER.norm>
0.0254554

>  <SCORE.INTRA>
0.433795

>  <SCORE.INTRA.DIHEDRAL>
-14.2516

>  <SCORE.INTRA.DIHEDRAL.0>
23.8882

>  <SCORE.INTRA.POLAR>
0

>  <SCORE.INTRA.POLAR.0>
0

>  <SCORE.INTRA.REPUL>
0

>  <SCORE.INTRA.REPUL.0>
0

>  <SCORE.INTRA.SOLV>
6.55003

>  <SCORE.INTRA.SOLV.lig_0>
-97.6888

>  <SCORE.INTRA.VDW>
4.28458

>  <SCORE.INTRA.VDW.0>
-3.9206

>  <SCORE.INTRA.norm>
0.0123941

>  <SCORE.RESTR>
1.06552

>  <SCORE.RESTR.CAVITY>
1.06552

>  <SCORE.RESTR.norm>
0.0304435

>  <SCORE.SYSTEM>
0

>  <SCORE.SYSTEM.CONST>
0

>  <SCORE.SYSTEM.DIHEDRAL>
0

>  <SCORE.SYSTEM.SOLV>
0

>  <SCORE.SYSTEM.norm>
0

>  <SCORE.heavy>
35

>  <SCORE.norm>
0.068293

>  <RMSD>
30.282

$$$$
2f4t_lig
 OpenBabel11021811433D
libRbt.so/2013.1/901 2013/11/27
 35 36  0  0  0  0  0  0  0  0999 V2000
    6.4827   12.4086    7.9918 C   0  0  2  0  0  0  0  0  0  0  0  0
    7.1185   13.0517    9.1449 O   0  0  0  0  0  0  0  0  0  0  0  0
   11.0867   13.7975    7.6107 C   0  0  2  0  0  0  0  0  0  0  0  0
   12.4508   14.3376    7.5094 N   0  0  0  0  0  0  0  0  0  0  0  0
    5.0531   12.0053    8.4640 C   0  0  2  0  0  0  0  0  0  0  0  0
    4.3342   13.1580    8.9540 N   0  0  0  0  0  0  0  0  0  0  0  0
   10.0751   14.9811    7.8325 C   0  0  0  0  0  0  0  0  0  0  0  0
   13.0335   14.7764    9.1177 C   0  0  0  0  0  0  0  0  0  0  0  0
   14.3106   15.1953    8.4234 C   0  0  1  0  0  0  0  0  0  0  0  0
   14.1369   16.6480    7.9749 C   0  0  0  0  0  0  0  0  0  0  0  0
   13.8610   17.6628    9.0970 C   0  0  0  0  0  0  0  0  0  0  0  0
   12.4549   17.5426    9.4941 N   0  0  0  0  0  0  0  0  0  0  0  0
   15.3915   15.1959    9.3189 O   0  0  0  0  0  0  0  0  0  0  0  0
   13.1474   11.1301    8.4248 C   0  0  0  0  0  0  0  0  0  0  0  0
   12.9386    9.6249    8.4899 C   0  0  0  0  0  0  0  0  0  0  0  0
    5.1436   10.9002    9.5698 C   0  0  1  0  0  0  0  0  0  0  0  0
   12.0571    9.1037    7.4222 N   0  0  0  0  0  0  0  0  0  0  0  0
    3.8552   10.5162   10.0092 O   0  0  0  0  0  0  0  0  0  0  0  0
    8.6288   14.4821    7.9576 C   0  0  2  0  0  0  0  0  0  0  0  0
    7.7150   15.5933    8.2032 N   0  0  0  0  0  0  0  0  0  0  0  0
   11.0592    7.2020    6.1497 C   0  0  0  0  0  0  0  0  0  0  0  0
    9.5325    6.9139    5.9825 N   0  0  0  0  0  0  0  0  0  0  0  0
   11.4422    7.7525    7.5552 C   0  0  0  0  0  0  0  0  0  0  0  0
   12.6197   14.7381   10.1007 O   0  0  0  0  0  0  0  0  0  0  0  0
    5.8960    9.7014    8.9830 C   0  0  2  0  0  0  0  0  0  0  0  0
    6.0029    8.6539    9.9334 O   0  0  0  0  0  0  0  0  0  0  0  0
    8.5106   13.4883    9.0860 C   0  0  2  0  0  0  0  0  0  0  0  0
    7.3090   10.1442    8.5052 C   0  0  2  0  0  0  0  0  0  0  0  0
    7.2198   11.2081    7.5347 O   0  0  0  0  0  0  0  0  0  0  0  0
    9.5078   12.2734    8.8528 C   0  0  2  0  0  0  0  0  0  0  0  0
    9.3618   11.3318    9.9578 O   0  0  0  0  0  0  0  0  0  0  0  0
    8.0667    9.0225    7.9015 C   0  0  0  0  0  0  0  0  0  0  0  0
    8.3860    9.3304    6.6252 N   0  0  0  0  0  0  0  0  0  0  0  0
   10.9744   12.8259    8.7958 C   0  0  1  0  0  0  0  0  0  0  0  0
   11.8766   11.7804    8.6201 O   0  0  0  0  0  0  0  0  0  0  0  0
  1  2  1  1  0  0  0
  1  5  1  0  0  0  0
  1 29  1  0  0  0  0
  3  4  1  1  0  0  0
  3  7  1  0  0  0  0
  3 34  1  0  0  0  0
  5  6  1  1  0  0  0
  5 16  1  0  0  0  0
  7 19  1  0  0  0  0
  8  4  1  0  0  0  0
  8 24  2  0  0  0  0
  9  8  1  1  0  0  0
  9 10  1  0  0  0  0
  9 13  1  0  0  0  0
 10 11  1  0  0  0  0
 11 12  1  0  0  0  0
 14 15  1  0  0  0  0
 14 35  1  0  0  0  0
 15 17  1  0  0  0  0
 16 18  1  6  0  0  0
 16 25  1  0  0  0  0
 19 20  1  1  0  0  0
 19 27  1  0  0  0  0
 21 22  1  0  0  0  0
 21 23  1  0  0  0  0
 23 17  1  0  0  0  0
 25 26  1  1  0  0  0
 25 28  1  0  0  0  0
 27  2  1  6  0  0  0
 27 30  1  0  0  0  0
 28 29  1  0  0  0  0
 28 32  1  6  0  0  0
 30 31  1  1  0  0  0
 30 34  1  0  0  0  0
 32 33  2  0  0  0  0
 34 35  1  6  0  0  0
M  END
>  <CHROM.1>
176.24761789,76.10959536,87.15628291,59.65269154,-77.50426662,62.84054792
174.66403682,-162.67634288,-119.46964308,-157.46966133,59.07914956,120.58597295
57.38905966,9.74520713,12.22733673,8.46962271,2.48883666,-0.12030949,-2.93958656

>  <Name>
2f4t_lig

>  <RI>
0

>  <Rbt.Current_Directory>
/home/itssahil/PROJECTS/Mol_Feturizer/New_Systems/rnas/2f4t

>  <Rbt.Executable>
rbdock ($Id: //depot/dev/client3/rdock/2013.1/src/exe/rbdock.cxx#4 $)

>  <Rbt.Library>
libRbt.so (2013.1, Build901 2013/11/27)

>  <Rbt.Parameter_File>
/export/apps/rDock/src/rDock_2013.1_src/data/scripts/dock_solv.prm

>  <Rbt.Receptor>
prm/blind_docking_100.prm

>  <SCORE>
4.39128

>  <SCORE.INTER>
3.24903

>  <SCORE.INTER.CONST>
1

>  <SCORE.INTER.POLAR>
0

>  <SCORE.INTER.ROT>
13

>  <SCORE.INTER.SOLV>
8.15747

>  <SCORE.INTER.VDW>
-12.8198

>  <SCORE.INTER.norm>
0.0928294

>  <SCORE.INTRA>
-1.81376

>  <SCORE.INTRA.DIHEDRAL>
-13.9033

>  <SCORE.INTRA.DIHEDRAL.0>
23.8882

>  <SCORE.INTRA.POLAR>
0

>  <SCORE.INTRA.POLAR.0>
0

>  <SCORE.INTRA.REPUL>
0

>  <SCORE.INTRA.REPUL.0>
0

>  <SCORE.INTRA.SOLV>
8.75824

>  <SCORE.INTRA.SOLV.lig_0>
-97.6888

>  <SCORE.INTRA.VDW>
0.758781

>  <SCORE.INTRA.VDW.0>
-3.9206

>  <SCORE.INTRA.norm>
-0.0518219

>  <SCORE.RESTR>
2.95602

>  <SCORE.RESTR.CAVITY>
2.95602

>  <SCORE.RESTR.norm>
0.0844577

>  <SCORE.SYSTEM>
0

>  <SCORE.SYSTEM.CONST>
0

>  <SCORE.SYSTEM.DIHEDRAL>
0

>  <SCORE.SYSTEM.SOLV>
0

>  <SCORE.SYSTEM.norm>
0

>  <SCORE.heavy>
35

>  <SCORE.norm>
0.125465

>  <RMSD>
30.283

$$$$
2f4t_lig
 OpenBabel11021811433D
libRbt.so/2013.1/901 2013/11/27
 35 36  0  0  0  0  0  0  0  0999 V2000
   12.0351   15.2451    9.2535 C   0  0  2  0  0  0  0  0  0  0  0  0
   11.4017   14.8245    8.0009 O   0  0  0  0  0  0  0  0  0  0  0  0
    7.7734   12.9930    9.4633 C   0  0  2  0  0  0  0  0  0  0  0  0
    6.4143   12.4313    9.4712 N   0  0  0  0  0  0  0  0  0  0  0  0
   13.5315   15.5090    8.9061 C   0  0  2  0  0  0  0  0  0  0  0  0
   13.6444   16.4815    7.8445 N   0  0  0  0  0  0  0  0  0  0  0  0
    7.7426   14.4169    8.7961 C   0  0  0  0  0  0  0  0  0  0  0  0
    6.1401   11.5271    7.9792 C   0  0  0  0  0  0  0  0  0  0  0  0
    4.7637   11.2359    8.5351 C   0  0  1  0  0  0  0  0  0  0  0  0
    4.0576   10.2992    7.5523 C   0  0  0  0  0  0  0  0  0  0  0  0
    4.4734    8.8204    7.6264 C   0  0  0  0  0  0  0  0  0  0  0  0
    5.9112    8.7298    7.3551 N   0  0  0  0  0  0  0  0  0  0  0  0
    4.8504   10.5294    9.7449 O   0  0  0  0  0  0  0  0  0  0  0  0
    8.8725    9.3907    9.2970 C   0  0  0  0  0  0  0  0  0  0  0  0
    9.9888    8.9534    8.3609 C   0  0  0  0  0  0  0  0  0  0  0  0
   14.2348   14.1689    8.5040 C   0  0  1  0  0  0  0  0  0  0  0  0
    9.5717    8.8649    6.9443 N   0  0  0  0  0  0  0  0  0  0  0  0
   15.5965   14.3858    8.1891 O   0  0  0  0  0  0  0  0  0  0  0  0
    9.1374   15.0561    8.7467 C   0  0  2  0  0  0  0  0  0  0  0  0
    9.0897   16.3574    8.0875 N   0  0  0  0  0  0  0  0  0  0  0  0
    9.7676    9.8565    4.6619 C   0  0  0  0  0  0  0  0  0  0  0  0
   11.2655    9.4536    4.4721 N   0  0  0  0  0  0  0  0  0  0  0  0
    9.3701   10.1075    6.1465 C   0  0  0  0  0  0  0  0  0  0  0  0
    6.7255   11.3177    7.1117 O   0  0  0  0  0  0  0  0  0  0  0  0
   14.0983   13.1906    9.6753 C   0  0  2  0  0  0  0  0  0  0  0  0
   14.7280   11.9543    9.3807 O   0  0  0  0  0  0  0  0  0  0  0  0
   10.1000   14.1629    8.0048 C   0  0  2  0  0  0  0  0  0  0  0  0
   12.5946   12.9661   10.0064 C   0  0  2  0  0  0  0  0  0  0  0  0
   11.9378   14.2138   10.3120 O   0  0  0  0  0  0  0  0  0  0  0  0
   10.1600   12.7315    8.6923 C   0  0  2  0  0  0  0  0  0  0  0  0
   11.1031   11.8987    7.9533 O   0  0  0  0  0  0  0  0  0  0  0  0
   12.4112   12.0472   11.1548 C   0  0  0  0  0  0  0  0  0  0  0  0
   11.8275   10.9055   10.7289 N   0  0  0  0  0  0  0  0  0  0  0  0
    8.7274   12.0944    8.6611 C   0  0  1  0  0  0  0  0  0  0  0  0
    8.7522   10.8250    9.2321 O   0  0  0  0  0  0  0  0  0  0  0  0
  1  2  1  6  0  0  0
  1  5  1  0  0  0  0
  1 29  1  0  0  0  0
  3  4  1  6  0  0  0
  3  7  1  0  0  0  0
  3 34  1  0  0  0  0
  5  6  1  6  0  0  0
  5 16  1  0  0  0  0
  7 19  1  0  0  0  0
  8  4  1  0  0  0  0
  8 24  2  0  0  0  0
  9  8  1  6  0  0  0
  9 10  1  0  0  0  0
  9 13  1  0  0  0  0
 10 11  1  0  0  0  0
 11 12  1  0  0  0  0
 14 15  1  0  0  0  0
 14 35  1  0  0  0  0
 15 17  1  0  0  0  0
 16 18  1  1  0  0  0
 16 25  1  0  0  0  0
 19 20  1  6  0  0  0
 19 27  1  0  0  0  0
 21 22  1  0  0  0  0
 21 23  1  0  0  0  0
 23 17  1  0  0  0  0
 25 26  1  6  0  0  0
 25 28  1  0  0  0  0
 27  2  1  1  0  0  0
 27 30  1  0  0  0  0
 28 29  1  0  0  0  0
 28 32  1  1  0  0  0
 30 31  1  6  0  0  0
 30 34  1  0  0  0  0
 32 33  2  0  0  0  0
 34 35  1  1  0  0  0
M  END
>  <CHROM.1>
163.82596195,89.46212838,-176.16408876,78.33957165,-59.63203914,-81.07005879
39.28376036,74.67375746,-61.02054057,146.65213285,54.98449786,-113.43374190
149.66989246,9.81163197,12.20848749,8.41906138,0.50974244,0.05389270,0.34943635

>  <Name>
2f4t_lig

>  <RI>
0

>  <Rbt.Current_Directory>
/home/itssahil/PROJECTS/Mol_Feturizer/New_Systems/rnas/2f4t

>  <Rbt.Executable>
rbdock ($Id: //depot/dev/client3/rdock/2013.1/src/exe/rbdock.cxx#4 $)

>  <Rbt.Library>
libRbt.so (2013.1, Build901 2013/11/27)

>  <Rbt.Parameter_File>
/export/apps/rDock/src/rDock_2013.1_src/data/scripts/dock_solv.prm

>  <Rbt.Receptor>
prm/blind_docking_100.prm

>  <SCORE>
-0.532143

>  <SCORE.INTER>
-2.71543

>  <SCORE.INTER.CONST>
1

>  <SCORE.INTER.POLAR>
-0.916515

>  <SCORE.INTER.ROT>
13

>  <SCORE.INTER.SOLV>
13.2918

>  <SCORE.INTER.VDW>
-15.4525

>  <SCORE.INTER.norm>
-0.0775837

>  <SCORE.INTRA>
1.71518

>  <SCORE.INTRA.DIHEDRAL>
-11.2762

>  <SCORE.INTRA.DIHEDRAL.0>
23.8882

>  <SCORE.INTRA.POLAR>
0

>  <SCORE.INTRA.POLAR.0>
0

>  <SCORE.INTRA.REPUL>
0

>  <SCORE.INTRA.REPUL.0>
0

>  <SCORE.INTRA.SOLV>
10.8931

>  <SCORE.INTRA.SOLV.lig_0>
-97.6888

>  <SCORE.INTRA.VDW>
1.90671

>  <SCORE.INTRA.VDW.0>
-3.9206

>  <SCORE.INTRA.norm>
0.0490051

>  <SCORE.RESTR>
0.46811

>  <SCORE.RESTR.CAVITY>
0.46811

>  <SCORE.RESTR.norm>
0.0133746

>  <SCORE.SYSTEM>
0

>  <SCORE.SYSTEM.CONST>
0

>  <SCORE.SYSTEM.DIHEDRAL>
0

>  <SCORE.SYSTEM.SOLV>
0

>  <SCORE.SYSTEM.norm>
0

>  <SCORE.heavy>
35

>  <SCORE.norm>
-0.0152041

>  <RMSD>
30.287

$$$$
2f4t_lig
 OpenBabel11021811433D
libRbt.so/2013.1/901 2013/11/27
 35 36  0  0  0  0  0  0  0  0999 V2000
   11.3846   14.7069   10.1084 C   0  0  2  0  0  0  0  0  0  0  0  0
   10.7466   15.0395    8.8319 O   0  0  0  0  0  0  0  0  0  0  0  0
    7.7710   11.9225    8.5370 C   0  0  2  0  0  0  0  0  0  0  0  0
    6.5757   11.1898    8.0929 N   0  0  0  0  0  0  0  0  0  0  0  0
   12.5471   15.7306   10.2828 C   0  0  2  0  0  0  0  0  0  0  0  0
   12.0478   17.0842   10.2198 N   0  0  0  0  0  0  0  0  0  0  0  0
    7.3629   13.3882    8.9356 C   0  0  0  0  0  0  0  0  0  0  0  0
    6.0278   10.1157    9.3832 C   0  0  0  0  0  0  0  0  0  0  0  0
    4.9198    9.7163    8.4340 C   0  0  1  0  0  0  0  0  0  0  0  0
    4.5318   10.9584    7.6287 C   0  0  0  0  0  0  0  0  0  0  0  0
    3.4594   10.7426    6.5476 C   0  0  0  0  0  0  0  0  0  0  0  0
    4.0920   10.1049    5.3891 N   0  0  0  0  0  0  0  0  0  0  0  0
    5.3768    8.7773    7.4961 O   0  0  0  0  0  0  0  0  0  0  0  0
    9.6125    9.3359    7.1940 C   0  0  0  0  0  0  0  0  0  0  0  0
    9.8234    8.7316    5.8142 C   0  0  0  0  0  0  0  0  0  0  0  0
   13.6409   15.4942    9.1873 C   0  0  1  0  0  0  0  0  0  0  0  0
   10.4844    7.4084    5.8430 N   0  0  0  0  0  0  0  0  0  0  0  0
   14.7083   16.4109    9.3308 O   0  0  0  0  0  0  0  0  0  0  0  0
    8.5717   14.2126    9.4000 C   0  0  2  0  0  0  0  0  0  0  0  0
    8.1749   15.5790    9.7251 N   0  0  0  0  0  0  0  0  0  0  0  0
   12.8829    8.0752    6.0268 C   0  0  0  0  0  0  0  0  0  0  0  0
   12.6420    9.6150    6.1404 N   0  0  0  0  0  0  0  0  0  0  0  0
   11.7341    7.2154    6.6319 C   0  0  0  0  0  0  0  0  0  0  0  0
    6.3701    9.8941   10.3695 O   0  0  0  0  0  0  0  0  0  0  0  0
   14.1426   14.0526    9.3201 C   0  0  2  0  0  0  0  0  0  0  0  0
   15.1494   13.7746    8.3604 O   0  0  0  0  0  0  0  0  0  0  0  0
    9.6286   14.2491    8.3246 C   0  0  2  0  0  0  0  0  0  0  0  0
   12.9545   13.0606    9.1602 C   0  0  2  0  0  0  0  0  0  0  0  0
   11.9211   13.3266   10.1312 O   0  0  0  0  0  0  0  0  0  0  0  0
   10.0686   12.7718    7.9387 C   0  0  2  0  0  0  0  0  0  0  0  0
   11.0936   12.8464    6.9029 O   0  0  0  0  0  0  0  0  0  0  0  0
   13.3858   11.6505    9.3103 C   0  0  0  0  0  0  0  0  0  0  0  0
   14.7356   11.5894    9.3012 N   0  0  0  0  0  0  0  0  0  0  0  0
    8.8147   11.9914    7.4114 C   0  0  1  0  0  0  0  0  0  0  0  0
    9.1735   10.6993    7.0377 O   0  0  0  0  0  0  0  0  0  0  0  0
  1  2  1  6  0  0  0
  1  5  1  0  0  0  0
  1 29  1  0  0  0  0
  3  4  1  6  0  0  0
  3  7  1  0  0  0  0
  3 34  1  0  0  0  0
  5  6  1  6  0  0  0
  5 16  1  0  0  0  0
  7 19  1  0  0  0  0
  8  4  1  0  0  0  0
  8 24  2  0  0  0  0
  9  8  1  1  0  0  0
  9 10  1  0  0  0  0
  9 13  1  0  0  0  0
 10 11  1  0  0  0  0
 11 12  1  0  0  0  0
 14 15  1  0  0  0  0
 14 35  1  0  0  0  0
 15 17  1  0  0  0  0
 16 18  1  1  0  0  0
 16 25  1  0  0  0  0
 19 20  1  6  0  0  0
 19 27  1  0  0  0  0
 21 22  1  0  0  0  0
 21 23  1  0  0  0  0
 23 17  1  0  0  0  0
 25 26  1  6  0  0  0
 25 28  1  0  0  0  0
 27  2  1  1  0  0  0
 27 30  1  0  0  0  0
 28 29  1  0  0  0  0
 28 32  1  1  0  0  0
 30 31  1  6  0  0  0
 30 34  1  0  0  0  0
 32 33  2  0  0  0  0
 34 35  1  1  0  0  0
M  END
>  <CHROM.1>
178.19559121,-102.38014137,-35.09271815,177.02115918,-77.62861066,170.56763152
-173.37154597,-49.76096739,65.58673141,-65.08106311,54.39134279,-11.23548608
-51.11875105,9.92039619,12.03665134,8.23808591,0.60217611,0.03068009,0.43286507

>  <Name>
2f4t_lig

>  <RI>
0

>  <Rbt.Current_Directory>
/home/itssahil/PROJECTS/Mol_Feturizer/New_Systems/rnas/2f4t

>  <Rbt.Executable>
rbdock ($Id: //depot/dev/client3/rdock/2013.1/src/exe/rbdock.cxx#4 $)

>  <Rbt.Library>
libRbt.so (2013.1, Build901 2013/11/27)

>  <Rbt.Parameter_File>
/export/apps/rDock/src/rDock_2013.1_src/data/scripts/dock_solv.prm

>  <Rbt.Receptor>
prm/blind_docking_100.prm

>  <SCORE>
13.9223

>  <SCORE.INTER>
2.59063

>  <SCORE.INTER.CONST>
1

>  <SCORE.INTER.POLAR>
0

>  <SCORE.INTER.ROT>
13

>  <SCORE.INTER.SOLV>
12.9674

>  <SCORE.INTER.VDW>
-14.862

>  <SCORE.INTER.norm>
0.0740179

>  <SCORE.INTRA>
10.5332

>  <SCORE.INTRA.DIHEDRAL>
-18.1446

>  <SCORE.INTRA.DIHEDRAL.0>
23.8882

>  <SCORE.INTRA.POLAR>
0

>  <SCORE.INTRA.POLAR.0>
0

>  <SCORE.INTRA.REPUL>
0

>  <SCORE.INTRA.REPUL.0>
0

>  <SCORE.INTRA.SOLV>
7.22926

>  <SCORE.INTRA.SOLV.lig_0>
-97.6888

>  <SCORE.INTRA.VDW>
15.9909

>  <SCORE.INTRA.VDW.0>
-3.9206

>  <SCORE.INTRA.norm>
0.30095

>  <SCORE.RESTR>
0.798392

>  <SCORE.RESTR.CAVITY>
0.798392

>  <SCORE.RESTR.norm>
0.0228112

>  <SCORE.SYSTEM>
0

>  <SCORE.SYSTEM.CONST>
0

>  <SCORE.SYSTEM.DIHEDRAL>
0

>  <SCORE.SYSTEM.SOLV>
0

>  <SCORE.SYSTEM.norm>
0

>  <SCORE.heavy>
35

>  <SCORE.norm>
0.397779

>  <RMSD>
30.308

$$$$
2f4t_lig
 OpenBabel11021811433D
libRbt.so/2013.1/901 2013/11/27
 35 36  0  0  0  0  0  0  0  0999 V2000
   11.5474   14.7489    9.6611 C   0  0  2  0  0  0  0  0  0  0  0  0
   11.0937   14.9357    8.2803 O   0  0  0  0  0  0  0  0  0  0  0  0
    8.7356   11.3809    7.6024 C   0  0  2  0  0  0  0  0  0  0  0  0
    7.6874   10.4982    7.0688 N   0  0  0  0  0  0  0  0  0  0  0  0
   12.9227   15.4760    9.7593 C   0  0  2  0  0  0  0  0  0  0  0  0
   12.7951   16.8618    9.3737 N   0  0  0  0  0  0  0  0  0  0  0  0
    8.0728   12.6887    8.1714 C   0  0  0  0  0  0  0  0  0  0  0  0
    6.4614   10.2201    8.3091 C   0  0  0  0  0  0  0  0  0  0  0  0
    5.7609    9.3685    7.2735 C   0  0  1  0  0  0  0  0  0  0  0  0
    4.4639    8.8525    7.9009 C   0  0  0  0  0  0  0  0  0  0  0  0
    3.4213    9.9268    8.2529 C   0  0  0  0  0  0  0  0  0  0  0  0
    2.9720   10.5605    7.0097 N   0  0  0  0  0  0  0  0  0  0  0  0
    5.3723   10.1411    6.1680 O   0  0  0  0  0  0  0  0  0  0  0  0
   11.2109    9.8211    5.1833 C   0  0  0  0  0  0  0  0  0  0  0  0
   12.3824    9.3992    6.0568 C   0  0  0  0  0  0  0  0  0  0  0  0
   13.9809   14.7488    8.8628 C   0  0  1  0  0  0  0  0  0  0  0  0
   11.9929    8.5293    7.1883 N   0  0  0  0  0  0  0  0  0  0  0  0
   15.2386   15.3908    8.9415 O   0  0  0  0  0  0  0  0  0  0  0  0
    9.1178   13.6610    8.7362 C   0  0  2  0  0  0  0  0  0  0  0  0
    8.4830   14.8827    9.2204 N   0  0  0  0  0  0  0  0  0  0  0  0
    9.8404    7.4260    6.5709 C   0  0  0  0  0  0  0  0  0  0  0  0
    9.1161    6.1226    6.1033 N   0  0  0  0  0  0  0  0  0  0  0  0
   11.3412    7.2142    6.9288 C   0  0  0  0  0  0  0  0  0  0  0  0
    6.3314   10.5396    9.3191 O   0  0  0  0  0  0  0  0  0  0  0  0
   14.0839   13.2945    9.3341 C   0  0  2  0  0  0  0  0  0  0  0  0
   15.0394   12.5788    8.5682 O   0  0  0  0  0  0  0  0  0  0  0  0
   10.1309   14.0184    7.6774 C   0  0  2  0  0  0  0  0  0  0  0  0
   12.6913   12.6068    9.2408 C   0  0  2  0  0  0  0  0  0  0  0  0
   11.7063   13.3201   10.0170 O   0  0  0  0  0  0  0  0  0  0  0  0
   10.8275   12.7036    7.1198 C   0  0  2  0  0  0  0  0  0  0  0  0
   11.8029   13.0876    6.1048 O   0  0  0  0  0  0  0  0  0  0  0  0
   12.7336   11.2030    9.7147 C   0  0  0  0  0  0  0  0  0  0  0  0
   13.4101   10.4469    8.8223 N   0  0  0  0  0  0  0  0  0  0  0  0
    9.7289   11.7734    6.4977 C   0  0  1  0  0  0  0  0  0  0  0  0
   10.3120   10.6229    5.9739 O   0  0  0  0  0  0  0  0  0  0  0  0
  1  2  1  6  0  0  0
  1  5  1  0  0  0  0
  1 29  1  0  0  0  0
  3  4  1  6  0  0  0
  3  7  1  0  0  0  0
  3 34  1  0  0  0  0
  5  6  1  6  0  0  0
  5 16  1  0  0  0  0
  7 19  1  0  0  0  0
  8  4  1  0  0  0  0
  8 24  2  0  0  0  0
  9  8  1  1  0  0  0
  9 10  1  0  0  0  0
  9 13  1  0  0  0  0
 10 11  1  0  0  0  0
 11 12  1  0  0  0  0
 14 15  1  0  0  0  0
 14 35  1  0  0  0  0
 15 17  1  0  0  0  0
 16 18  1  1  0  0  0
 16 25  1  0  0  0  0
 19 20  1  6  0  0  0
 19 27  1  0  0  0  0
 21 22  1  0  0  0  0
 21 23  1  0  0  0  0
 23 17  1  0  0  0  0
 25 26  1  6  0  0  0
 25 28  1  0  0  0  0
 27  2  1  1  0  0  0
 27 30  1  0  0  0  0
 28 29  1  0  0  0  0
 28 32  1  1  0  0  0
 30 31  1  6  0  0  0
 30 34  1  0  0  0  0
 32 33  2  0  0  0  0
 34 35  1  1  0  0  0
M  END
>  <CHROM.1>
157.12180332,-53.74527194,-178.42052640,64.75309800,64.34395528,63.72782017
96.34989135,60.38699980,172.57943725,-77.72738415,38.69922423,-70.93276916
-172.40204947,10.09717860,11.69169838,7.89998600,0.59762712,0.01921669,0.36598183

>  <Name>
2f4t_lig

>  <RI>
0

>  <Rbt.Current_Directory>
/home/itssahil/PROJECTS/Mol_Feturizer/New_Systems/rnas/2f4t

>  <Rbt.Executable>
rbdock ($Id: //depot/dev/client3/rdock/2013.1/src/exe/rbdock.cxx#4 $)

>  <Rbt.Library>
libRbt.so (2013.1, Build901 2013/11/27)

>  <Rbt.Parameter_File>
/export/apps/rDock/src/rDock_2013.1_src/data/scripts/dock_solv.prm

>  <Rbt.Receptor>
prm/blind_docking_80.prm

>  <SCORE>
3.54656

>  <SCORE.INTER>
0.963531

>  <SCORE.INTER.CONST>
1

>  <SCORE.INTER.POLAR>
0

>  <SCORE.INTER.ROT>
13

>  <SCORE.INTER.SOLV>
9.37591

>  <SCORE.INTER.VDW>
-14.7496

>  <SCORE.INTER.norm>
0.0275295

>  <SCORE.INTRA>
0.116617

>  <SCORE.INTRA.DIHEDRAL>
-11.2886

>  <SCORE.INTRA.DIHEDRAL.0>
23.8882

>  <SCORE.INTRA.POLAR>
0

>  <SCORE.INTRA.POLAR.0>
0

>  <SCORE.INTRA.REPUL>
0

>  <SCORE.INTRA.REPUL.0>
0

>  <SCORE.INTRA.SOLV>
5.683

>  <SCORE.INTRA.SOLV.lig_0>
-97.6888

>  <SCORE.INTRA.VDW>
2.9194

>  <SCORE.INTRA.VDW.0>
-3.9206

>  <SCORE.INTRA.norm>
0.00333191

>  <SCORE.RESTR>
2.46642

>  <SCORE.RESTR.CAVITY>
2.46642

>  <SCORE.RESTR.norm>
0.070469

>  <SCORE.SYSTEM>
0

>  <SCORE.SYSTEM.CONST>
0

>  <SCORE.SYSTEM.DIHEDRAL>
0

>  <SCORE.SYSTEM.SOLV>
0

>  <SCORE.SYSTEM.norm>
0

>  <SCORE.heavy>
35

>  <SCORE.norm>
0.10133

>  <RMSD>
30.328

$$$$
2f4t_lig
 OpenBabel11021811433D
libRbt.so/2013.1/901 2013/11/27
 35 36  0  0  0  0  0  0  0  0999 V2000
   11.9406   15.5612    9.1985 C   0  0  2  0  0  0  0  0  0  0  0  0
   11.3726   15.2841    7.8764 O   0  0  0  0  0  0  0  0  0  0  0  0
    7.9256   12.8859    8.8885 C   0  0  2  0  0  0  0  0  0  0  0  0
    6.5991   12.2595    8.7861 N   0  0  0  0  0  0  0  0  0  0  0  0
   13.4383   15.9161    8.9524 C   0  0  2  0  0  0  0  0  0  0  0  0
   13.5553   17.0199    8.0285 N   0  0  0  0  0  0  0  0  0  0  0  0
    7.7870   14.4355    8.6577 C   0  0  0  0  0  0  0  0  0  0  0  0
    6.2345   11.3997   10.2850 C   0  0  0  0  0  0  0  0  0  0  0  0
    4.9185   11.0390    9.6321 C   0  0  1  0  0  0  0  0  0  0  0  0
    5.1540    9.7918    8.7772 C   0  0  0  0  0  0  0  0  0  0  0  0
    3.9069    9.2104    8.0901 C   0  0  0  0  0  0  0  0  0  0  0  0
    4.2499    7.8928    7.5467 N   0  0  0  0  0  0  0  0  0  0  0  0
    3.9652   10.6710   10.5944 O   0  0  0  0  0  0  0  0  0  0  0  0
    8.5821    9.5647    8.1245 C   0  0  0  0  0  0  0  0  0  0  0  0
    9.8195    8.6803    8.1315 C   0  0  0  0  0  0  0  0  0  0  0  0
   14.2069   14.6623    8.4145 C   0  0  1  0  0  0  0  0  0  0  0  0
   10.7248    8.9212    6.9865 N   0  0  0  0  0  0  0  0  0  0  0  0
   15.5706   14.9621    8.1889 O   0  0  0  0  0  0  0  0  0  0  0  0
    9.1430   15.1501    8.7412 C   0  0  2  0  0  0  0  0  0  0  0  0
    8.9941   16.5790    8.4837 N   0  0  0  0  0  0  0  0  0  0  0  0
   11.1104   10.3431    4.9713 C   0  0  0  0  0  0  0  0  0  0  0  0
   10.3582   11.5394    4.3041 N   0  0  0  0  0  0  0  0  0  0  0  0
   10.1652    9.3166    5.6629 C   0  0  0  0  0  0  0  0  0  0  0  0
    6.7538   11.2430   11.2042 O   0  0  0  0  0  0  0  0  0  0  0  0
   14.0623   13.5380    9.4454 C   0  0  2  0  0  0  0  0  0  0  0  0
   14.7493   12.3708    9.0240 O   0  0  0  0  0  0  0  0  0  0  0  0
   10.1081   14.5669    7.7396 C   0  0  2  0  0  0  0  0  0  0  0  0
   12.5565   13.2240    9.6800 C   0  0  2  0  0  0  0  0  0  0  0  0
   11.8415   14.4001   10.1126 O   0  0  0  0  0  0  0  0  0  0  0  0
   10.2773   13.0063    7.9865 C   0  0  2  0  0  0  0  0  0  0  0  0
   11.2201   12.4788    7.0057 O   0  0  0  0  0  0  0  0  0  0  0  0
   12.3636   12.1599   10.6937 C   0  0  0  0  0  0  0  0  0  0  0  0
   11.9984   11.0135   10.0789 N   0  0  0  0  0  0  0  0  0  0  0  0
    8.8792   12.3140    7.8279 C   0  0  1  0  0  0  0  0  0  0  0  0
    8.9988   10.9392    8.0108 O   0  0  0  0  0  0  0  0  0  0  0  0
  1  2  1  6  0  0  0
  1  5  1  0  0  0  0
  1 29  1  0  0  0  0
  3  4  1  6  0  0  0
  3  7  1  0  0  0  0
  3 34  1  0  0  0  0
  5  6  1  6  0  0  0
  5 16  1  0  0  0  0
  7 19  1  0  0  0  0
  8  4  1  0  0  0  0
  8 24  2  0  0  0  0
  9  8  1  1  0  0  0
  9 10  1  0  0  0  0
  9 13  1  0  0  0  0
 10 11  1  0  0  0  0
 11 12  1  0  0  0  0
 14 15  1  0  0  0  0
 14 35  1  0  0  0  0
 15 17  1  0  0  0  0
 16 18  1  1  0  0  0
 16 25  1  0  0  0  0
 19 20  1  6  0  0  0
 19 27  1  0  0  0  0
 21 22  1  0  0  0  0
 21 23  1  0  0  0  0
 23 17  1  0  0  0  0
 25 26  1  6  0  0  0
 25 28  1  0  0  0  0
 27  2  1  1  0  0  0
 27 30  1  0  0  0  0
 28 29  1  0  0  0  0
 28 32  1  1  0  0  0
 30 31  1  6  0  0  0
 30 34  1  0  0  0  0
 32 33  2  0  0  0  0
 34 35  1  1  0  0  0
M  END
>  <CHROM.1>
162.85610086,-122.31695776,84.69709554,176.47421919,-168.76341736,-53.12587174
169.74584576,-33.20276164,-136.64254837,143.20164597,44.94719249,-105.90846648
58.30347695,9.82912939,12.39530988,8.45939625,0.47761397,0.26322781,0.43371229

>  <Name>
2f4t_lig

>  <RI>
0

>  <Rbt.Current_Directory>
/home/itssahil/PROJECTS/Mol_Feturizer/New_Systems/rnas/2f4t

>  <Rbt.Executable>
rbdock ($Id: //depot/dev/client3/rdock/2013.1/src/exe/rbdock.cxx#4 $)

>  <Rbt.Library>
libRbt.so (2013.1, Build901 2013/11/27)

>  <Rbt.Parameter_File>
/export/apps/rDock/src/rDock_2013.1_src/data/scripts/dock_solv.prm

>  <Rbt.Receptor>
prm/blind_docking_100.prm

>  <SCORE>
0.307757

>  <SCORE.INTER>
2.02287

>  <SCORE.INTER.CONST>
1

>  <SCORE.INTER.POLAR>
0

>  <SCORE.INTER.ROT>
13

>  <SCORE.INTER.SOLV>
11.5489

>  <SCORE.INTER.VDW>
-14.7677

>  <SCORE.INTER.norm>
0.0577962

>  <SCORE.INTRA>
-2.91741

>  <SCORE.INTRA.DIHEDRAL>
-10.9224

>  <SCORE.INTRA.DIHEDRAL.0>
23.8882

>  <SCORE.INTRA.POLAR>
0

>  <SCORE.INTRA.POLAR.0>
0

>  <SCORE.INTRA.REPUL>
0

>  <SCORE.INTRA.REPUL.0>
0

>  <SCORE.INTRA.SOLV>
4.57822

>  <SCORE.INTRA.SOLV.lig_0>
-97.6888

>  <SCORE.INTRA.VDW>
0.254679

>  <SCORE.INTRA.VDW.0>
-3.9206

>  <SCORE.INTRA.norm>
-0.0833545

>  <SCORE.RESTR>
1.2023

>  <SCORE.RESTR.CAVITY>
1.2023

>  <SCORE.RESTR.norm>
0.0343513

>  <SCORE.SYSTEM>
0

>  <SCORE.SYSTEM.CONST>
0

>  <SCORE.SYSTEM.DIHEDRAL>
0

>  <SCORE.SYSTEM.SOLV>
0

>  <SCORE.SYSTEM.norm>
0

>  <SCORE.heavy>
35

>  <SCORE.norm>
0.00879306

>  <RMSD>
30.339

$$$$
2f4t_lig
 OpenBabel11021811433D
libRbt.so/2013.1/901 2013/11/27
 35 36  0  0  0  0  0  0  0  0999 V2000
   12.1611   15.3879    9.9408 C   0  0  2  0  0  0  0  0  0  0  0  0
   11.4914   15.5811    8.6518 O   0  0  0  0  0  0  0  0  0  0  0  0
    8.3697   12.5973    8.7451 C   0  0  2  0  0  0  0  0  0  0  0  0
    7.0685   11.9503    8.5194 N   0  0  0  0  0  0  0  0  0  0  0  0
   13.6374   15.8394    9.7253 C   0  0  2  0  0  0  0  0  0  0  0  0
   13.6891   17.1998    9.2435 N   0  0  0  0  0  0  0  0  0  0  0  0
    8.1395   14.0212    9.3719 C   0  0  0  0  0  0  0  0  0  0  0  0
    6.9611   10.4826    9.4957 C   0  0  0  0  0  0  0  0  0  0  0  0
    5.5794   10.3176    8.9025 C   0  0  1  0  0  0  0  0  0  0  0  0
    5.0335    8.9674    9.3725 C   0  0  0  0  0  0  0  0  0  0  0  0
    4.1352    8.2264    8.3680 C   0  0  0  0  0  0  0  0  0  0  0  0
    4.9939    7.5065    7.4228 N   0  0  0  0  0  0  0  0  0  0  0  0
    4.6976   11.2858    9.4077 O   0  0  0  0  0  0  0  0  0  0  0  0
    9.0158   10.1644    6.4288 C   0  0  0  0  0  0  0  0  0  0  0  0
    9.4974    9.9756    4.9984 C   0  0  0  0  0  0  0  0  0  0  0  0
   14.3552   14.8719    8.7248 C   0  0  1  0  0  0  0  0  0  0  0  0
   10.8480    9.3794    4.9033 N   0  0  0  0  0  0  0  0  0  0  0  0
   15.6991   15.2617    8.5189 O   0  0  0  0  0  0  0  0  0  0  0  0
    9.4633   14.7567    9.6233 C   0  0  2  0  0  0  0  0  0  0  0  0
    9.2222   16.0897   10.1665 N   0  0  0  0  0  0  0  0  0  0  0  0
   12.8738    9.0067    6.3136 C   0  0  0  0  0  0  0  0  0  0  0  0
   12.1069    8.2747    7.4617 N   0  0  0  0  0  0  0  0  0  0  0  0
   12.0088   10.0534    5.5510 C   0  0  0  0  0  0  0  0  0  0  0  0
    7.6149    9.9878   10.1790 O   0  0  0  0  0  0  0  0  0  0  0  0
   14.2841   13.4540    9.3012 C   0  0  2  0  0  0  0  0  0  0  0  0
   14.9301   12.5250    8.4460 O   0  0  0  0  0  0  0  0  0  0  0  0
   10.2480   14.8815    8.3413 C   0  0  2  0  0  0  0  0  0  0  0  0
   12.7991   13.0447    9.5210 C   0  0  2  0  0  0  0  0  0  0  0  0
   12.1263   13.9777   10.3919 O   0  0  0  0  0  0  0  0  0  0  0  0
   10.5115   13.4437    7.7182 C   0  0  2  0  0  0  0  0  0  0  0  0
   11.2761   13.6030    6.4857 O   0  0  0  0  0  0  0  0  0  0  0  0
   12.6789   11.6882   10.1061 C   0  0  0  0  0  0  0  0  0  0  0  0
   11.9982   10.8896    9.2550 N   0  0  0  0  0  0  0  0  0  0  0  0
    9.1319   12.7601    7.4208 C   0  0  1  0  0  0  0  0  0  0  0  0
    9.3288   11.5073    6.8468 O   0  0  0  0  0  0  0  0  0  0  0  0
  1  2  1  6  0  0  0
  1  5  1  0  0  0  0
  1 29  1  0  0  0  0
  3  4  1  6  0  0  0
  3  7  1  0  0  0  0
  3 34  1  0  0  0  0
  5  6  1  6  0  0  0
  5 16  1  0  0  0  0
  7 19  1  0  0  0  0
  8  4  1  0  0  0  0
  8 24  2  0  0  0  0
  9  8  1  1  0  0  0
  9 10  1  0  0  0  0
  9 13  1  0  0  0  0
 10 11  1  0  0  0  0
 11 12  1  0  0  0  0
 14 15  1  0  0  0  0
 14 35  1  0  0  0  0
 15 17  1  0  0  0  0
 16 18  1  1  0  0  0
 16 25  1  0  0  0  0
 19 20  1  6  0  0  0
 19 27  1  0  0  0  0
 21 22  1  0  0  0  0
 21 23  1  0  0  0  0
 23 17  1  0  0  0  0
 25 26  1  6  0  0  0
 25 28  1  0  0  0  0
 27  2  1  1  0  0  0
 27 30  1  0  0  0  0
 28 29  1  0  0  0  0
 28 32  1  1  0  0  0
 30 31  1  6  0  0  0
 30 34  1  0  0  0  0
 32 33  2  0  0  0  0
 34 35  1  1  0  0  0
M  END
>  <CHROM.1>
159.98103659,-117.65276599,174.10606225,-145.89429069,82.58871043,94.50073648
134.43030413,-58.18230232,-61.39931481,135.01896902,34.32874888,-118.91285820
41.79574625,10.24126680,12.25351029,8.38393917,0.57945883,0.23698895,0.49273222

>  <Name>
2f4t_lig

>  <RI>
0

>  <Rbt.Current_Directory>
/home/itssahil/PROJECTS/Mol_Feturizer/New_Systems/rnas/2f4t

>  <Rbt.Executable>
rbdock ($Id: //depot/dev/client3/rdock/2013.1/src/exe/rbdock.cxx#4 $)

>  <Rbt.Library>
libRbt.so (2013.1, Build901 2013/11/27)

>  <Rbt.Parameter_File>
/export/apps/rDock/src/rDock_2013.1_src/data/scripts/dock_solv.prm

>  <Rbt.Receptor>
prm/blind_docking_100.prm

>  <SCORE>
0.524914

>  <SCORE.INTER>
-2.86385

>  <SCORE.INTER.CONST>
1

>  <SCORE.INTER.POLAR>
-0.916515

>  <SCORE.INTER.ROT>
13

>  <SCORE.INTER.SOLV>
10.8964

>  <SCORE.INTER.VDW>
-14.753

>  <SCORE.INTER.norm>
-0.0818242

>  <SCORE.INTRA>
2.13788

>  <SCORE.INTRA.DIHEDRAL>
0.526594

>  <SCORE.INTRA.DIHEDRAL.0>
23.8882

>  <SCORE.INTRA.POLAR>
0

>  <SCORE.INTRA.POLAR.0>
0

>  <SCORE.INTRA.REPUL>
0

>  <SCORE.INTRA.REPUL.0>
0

>  <SCORE.INTRA.SOLV>
5.02186

>  <SCORE.INTRA.SOLV.lig_0>
-97.6888

>  <SCORE.INTRA.VDW>
-0.636343

>  <SCORE.INTRA.VDW.0>
-3.9206

>  <SCORE.INTRA.norm>
0.0610824

>  <SCORE.RESTR>
1.25088

>  <SCORE.RESTR.CAVITY>
1.25088

>  <SCORE.RESTR.norm>
0.0357393

>  <SCORE.SYSTEM>
0

>  <SCORE.SYSTEM.CONST>
0

>  <SCORE.SYSTEM.DIHEDRAL>
0

>  <SCORE.SYSTEM.SOLV>
0

>  <SCORE.SYSTEM.norm>
0

>  <SCORE.heavy>
35

>  <SCORE.norm>
0.0149975

>  <RMSD>
30.358

$$$$
2f4t_lig
 OpenBabel11021811433D
libRbt.so/2013.1/901 2013/11/27
 35 36  0  0  0  0  0  0  0  0999 V2000
   11.0813   15.6631    9.6521 C   0  0  2  0  0  0  0  0  0  0  0  0
   10.3234   14.9183    8.6430 O   0  0  0  0  0  0  0  0  0  0  0  0
    8.8343   10.9310    7.9072 C   0  0  2  0  0  0  0  0  0  0  0  0
    8.7430    9.4634    7.9294 N   0  0  0  0  0  0  0  0  0  0  0  0
   11.3188   17.0795    9.0464 C   0  0  2  0  0  0  0  0  0  0  0  0
   10.0636   17.6987    8.6906 N   0  0  0  0  0  0  0  0  0  0  0  0
   10.2702   11.3545    7.4251 C   0  0  0  0  0  0  0  0  0  0  0  0
    9.2805    8.8146    6.3773 C   0  0  0  0  0  0  0  0  0  0  0  0
    8.9952    7.4522    6.9696 C   0  0  1  0  0  0  0  0  0  0  0  0
    9.1745    6.4180    5.8560 C   0  0  0  0  0  0  0  0  0  0  0  0
   10.5307    5.6931    5.8328 C   0  0  0  0  0  0  0  0  0  0  0  0
   11.5896    6.6970    5.6919 N   0  0  0  0  0  0  0  0  0  0  0  0
    9.9408    7.1251    7.9540 O   0  0  0  0  0  0  0  0  0  0  0  0
    6.2890   10.2555   10.2262 C   0  0  0  0  0  0  0  0  0  0  0  0
    4.9449   10.9160    9.9610 C   0  0  0  0  0  0  0  0  0  0  0  0
   12.2586   16.9799    7.7977 C   0  0  1  0  0  0  0  0  0  0  0  0
    4.8613   11.5770    8.6401 N   0  0  0  0  0  0  0  0  0  0  0  0
   12.4910   18.2566    7.2352 O   0  0  0  0  0  0  0  0  0  0  0  0
   10.4353   12.8802    7.3898 C   0  0  2  0  0  0  0  0  0  0  0  0
   11.7868   13.2474    6.9790 N   0  0  0  0  0  0  0  0  0  0  0  0
    4.0773    9.8110    7.0597 C   0  0  0  0  0  0  0  0  0  0  0  0
    3.8907    8.6876    8.1298 N   0  0  0  0  0  0  0  0  0  0  0  0
    5.2112   10.8215    7.4039 C   0  0  0  0  0  0  0  0  0  0  0  0
    9.6360    9.2454    5.4678 O   0  0  0  0  0  0  0  0  0  0  0  0
   13.5754   16.3363    8.2443 C   0  0  2  0  0  0  0  0  0  0  0  0
   14.4814   16.2272    7.1584 O   0  0  0  0  0  0  0  0  0  0  0  0
   10.1555   13.4717    8.7488 C   0  0  2  0  0  0  0  0  0  0  0  0
   13.2985   14.9345    8.8603 C   0  0  2  0  0  0  0  0  0  0  0  0
   12.3803   15.0264    9.9694 O   0  0  0  0  0  0  0  0  0  0  0  0
    8.6940   13.0739    9.2290 C   0  0  2  0  0  0  0  0  0  0  0  0
    8.4570   13.6670   10.5409 O   0  0  0  0  0  0  0  0  0  0  0  0
   14.5420   14.2824    9.3351 C   0  0  0  0  0  0  0  0  0  0  0  0
   14.7034   13.1025    8.6968 N   0  0  0  0  0  0  0  0  0  0  0  0
    8.5955   11.5109    9.3101 C   0  0  1  0  0  0  0  0  0  0  0  0
    7.3330   11.1302    9.7560 O   0  0  0  0  0  0  0  0  0  0  0  0
  1  2  1  6  0  0  0
  1  5  1  0  0  0  0
  1 29  1  0  0  0  0
  3  4  1  1  0  0  0
  3  7  1  0  0  0  0
  3 34  1  0  0  0  0
  5  6  1  6  0  0  0
  5 16  1  0  0  0  0
  7 19  1  0  0  0  0
  8  4  1  0  0  0  0
  8 24  2  0  0  0  0
  9  8  1  6  0  0  0
  9 10  1  0  0  0  0
  9 13  1  0  0  0  0
 10 11  1  0  0  0  0
 11 12  1  0  0  0  0
 14 15  1  0  0  0  0
 14 35  1  0  0  0  0
 15 17  1  0  0  0  0
 16 18  1  1  0  0  0
 16 25  1  0  0  0  0
 19 20  1  1  0  0  0
 19 27  1  0  0  0  0
 21 22  1  0  0  0  0
 21 23  1  0  0  0  0
 23 17  1  0  0  0  0
 25 26  1  6  0  0  0
 25 28  1  0  0  0  0
 27  2  1  6  0  0  0
 27 30  1  0  0  0  0
 28 29  1  0  0  0  0
 28 32  1  1  0  0  0
 30 31  1  1  0  0  0
 30 34  1  0  0  0  0
 32 33  2  0  0  0  0
 34 35  1  6  0  0  0
M  END
>  <CHROM.1>
167.40899979,-51.09002465,173.42986973,98.14217078,-58.66199824,41.60198076
-159.01012563,52.49505759,-64.62244397,74.13433025,-134.04721982,-121.26460980
69.24429642,9.77829768,12.14474842,8.12153010,0.95325707,0.24668462,0.30764015

>  <Name>
2f4t_lig

>  <RI>
0

>  <Rbt.Current_Directory>
/home/itssahil/PROJECTS/Mol_Feturizer/New_Systems/rnas/2f4t

>  <Rbt.Executable>
rbdock ($Id: //depot/dev/client3/rdock/2013.1/src/exe/rbdock.cxx#4 $)

>  <Rbt.Library>
libRbt.so (2013.1, Build901 2013/11/27)

>  <Rbt.Parameter_File>
/export/apps/rDock/src/rDock_2013.1_src/data/scripts/dock_solv.prm

>  <Rbt.Receptor>
prm/blind_docking_100.prm

>  <SCORE>
7.68182

>  <SCORE.INTER>
-0.569893

>  <SCORE.INTER.CONST>
1

>  <SCORE.INTER.POLAR>
-0.712668

>  <SCORE.INTER.ROT>
13

>  <SCORE.INTER.SOLV>
12.9632

>  <SCORE.INTER.VDW>
-14.5921

>  <SCORE.INTER.norm>
-0.0162827

>  <SCORE.INTRA>
2.87091

>  <SCORE.INTRA.DIHEDRAL>
-7.68652

>  <SCORE.INTRA.DIHEDRAL.0>
23.8882

>  <SCORE.INTRA.POLAR>
0

>  <SCORE.INTRA.POLAR.0>
0

>  <SCORE.INTRA.REPUL>
0

>  <SCORE.INTRA.REPUL.0>
0

>  <SCORE.INTRA.SOLV>
10.0383

>  <SCORE.INTRA.SOLV.lig_0>
-97.6888

>  <SCORE.INTRA.VDW>
1.69502

>  <SCORE.INTRA.VDW.0>
-3.9206

>  <SCORE.INTRA.norm>
0.082026

>  <SCORE.RESTR>
5.3808

>  <SCORE.RESTR.CAVITY>
5.3808

>  <SCORE.RESTR.norm>
0.153737

>  <SCORE.SYSTEM>
0

>  <SCORE.SYSTEM.CONST>
0

>  <SCORE.SYSTEM.DIHEDRAL>
0

>  <SCORE.SYSTEM.SOLV>
0

>  <SCORE.SYSTEM.norm>
0

>  <SCORE.heavy>
35

>  <SCORE.norm>
0.21948

>  <RMSD>
30.362

$$$$
2f4t_lig
 OpenBabel11021811433D
libRbt.so/2013.1/901 2013/11/27
 35 36  0  0  0  0  0  0  0  0999 V2000
   13.0890   13.9244    7.8091 C   0  0  2  0  0  0  0  0  0  0  0  0
   12.6382   12.9605    8.8165 O   0  0  0  0  0  0  0  0  0  0  0  0
    9.2081   10.3433    9.0206 C   0  0  2  0  0  0  0  0  0  0  0  0
    7.8147    9.9002    9.1785 N   0  0  0  0  0  0  0  0  0  0  0  0
   14.4479   14.4816    8.3312 C   0  0  2  0  0  0  0  0  0  0  0  0
   15.3837   13.4066    8.5643 N   0  0  0  0  0  0  0  0  0  0  0  0
    9.6103   11.2386   10.2496 C   0  0  0  0  0  0  0  0  0  0  0  0
    6.7350   11.2929    9.0623 C   0  0  0  0  0  0  0  0  0  0  0  0
    5.6101   10.3023    9.2662 C   0  0  1  0  0  0  0  0  0  0  0  0
    5.5612    9.3989    8.0319 C   0  0  0  0  0  0  0  0  0  0  0  0
    5.2489   10.1052    6.7020 C   0  0  0  0  0  0  0  0  0  0  0  0
    3.9329   10.7413    6.8136 N   0  0  0  0  0  0  0  0  0  0  0  0
    5.8785    9.4549   10.3525 O   0  0  0  0  0  0  0  0  0  0  0  0
    8.7721   10.0560    5.2586 C   0  0  0  0  0  0  0  0  0  0  0  0
   10.1155    9.8535    4.5748 C   0  0  0  0  0  0  0  0  0  0  0  0
   14.2221   15.3104    9.6406 C   0  0  1  0  0  0  0  0  0  0  0  0
   10.9654    8.8357    5.2309 N   0  0  0  0  0  0  0  0  0  0  0  0
   15.4438   15.8295   10.1288 O   0  0  0  0  0  0  0  0  0  0  0  0
   11.0555   11.7444   10.1406 C   0  0  2  0  0  0  0  0  0  0  0  0
   11.3916   12.6049   11.2705 N   0  0  0  0  0  0  0  0  0  0  0  0
   11.3777    7.0410    6.9163 C   0  0  0  0  0  0  0  0  0  0  0  0
   11.9366    8.0166    8.0015 N   0  0  0  0  0  0  0  0  0  0  0  0
   10.3382    7.6972    5.9602 C   0  0  0  0  0  0  0  0  0  0  0  0
    6.8766   12.3402    8.9137 O   0  0  0  0  0  0  0  0  0  0  0  0
   13.2402   16.4428    9.3227 C   0  0  2  0  0  0  0  0  0  0  0  0
   13.0003   17.2438   10.4684 O   0  0  0  0  0  0  0  0  0  0  0  0
   11.2479   12.5163    8.8591 C   0  0  2  0  0  0  0  0  0  0  0  0
   11.9043   15.8517    8.7868 C   0  0  2  0  0  0  0  0  0  0  0  0
   12.1288   15.0357    7.6183 O   0  0  0  0  0  0  0  0  0  0  0  0
   10.8731   11.6074    7.6107 C   0  0  2  0  0  0  0  0  0  0  0  0
   11.0767   12.3832    6.3917 O   0  0  0  0  0  0  0  0  0  0  0  0
   10.9300   16.9124    8.4367 C   0  0  0  0  0  0  0  0  0  0  0  0
    9.7026   16.5593    8.8776 N   0  0  0  0  0  0  0  0  0  0  0  0
    9.3725   11.1695    7.7355 C   0  0  1  0  0  0  0  0  0  0  0  0
    9.0045   10.3934    6.6400 O   0  0  0  0  0  0  0  0  0  0  0  0
  1  2  1  1  0  0  0
  1  5  1  0  0  0  0
  1 29  1  0  0  0  0
  3  4  1  1  0  0  0
  3  7  1  0  0  0  0
  3 34  1  0  0  0  0
  5  6  1  1  0  0  0
  5 16  1  0  0  0  0
  7 19  1  0  0  0  0
  8  4  1  0  0  0  0
  8 24  2  0  0  0  0
  9  8  1  6  0  0  0
  9 10  1  0  0  0  0
  9 13  1  0  0  0  0
 10 11  1  0  0  0  0
 11 12  1  0  0  0  0
 14 15  1  0  0  0  0
 14 35  1  0  0  0  0
 15 17  1  0  0  0  0
 16 18  1  6  0  0  0
 16 25  1  0  0  0  0
 19 20  1  1  0  0  0
 19 27  1  0  0  0  0
 21 22  1  0  0  0  0
 21 23  1  0  0  0  0
 23 17  1  0  0  0  0
 25 26  1  1  0  0  0
 25 28  1  0  0  0  0
 27  2  1  6  0  0  0
 27 30  1  0  0  0  0
 28 29  1  0  0  0  0
 28 32  1  6  0  0  0
 30 31  1  6  0  0  0
 30 34  1  0  0  0  0
 32 33  2  0  0  0  0
 34 35  1  6  0  0  0
M  END
>  <CHROM.1>
162.84162951,66.72601432,-67.00005123,-62.49820735,-60.16746678,56.09209913
73.22422063,29.57843239,60.41492219,-162.20691245,-169.68746399,-137.25661495
-178.83741957,10.29508503,12.09300809,8.25442489,-0.75970167,-0.16904952
-2.68983477

>  <Name>
2f4t_lig

>  <RI>
0

>  <Rbt.Current_Directory>
/home/itssahil/PROJECTS/Mol_Feturizer/New_Systems/rnas/2f4t

>  <Rbt.Executable>
rbdock ($Id: //depot/dev/client3/rdock/2013.1/src/exe/rbdock.cxx#4 $)

>  <Rbt.Library>
libRbt.so (2013.1, Build901 2013/11/27)

>  <Rbt.Parameter_File>
/export/apps/rDock/src/rDock_2013.1_src/data/scripts/dock_solv.prm

>  <Rbt.Receptor>
prm/blind_docking_100.prm

>  <SCORE>
-2.41193

>  <SCORE.INTER>
-0.737119

>  <SCORE.INTER.CONST>
1

>  <SCORE.INTER.POLAR>
-0.818346

>  <SCORE.INTER.ROT>
13

>  <SCORE.INTER.SOLV>
15.2387

>  <SCORE.INTER.VDW>
-15.1098

>  <SCORE.INTER.norm>
-0.0210605

>  <SCORE.INTRA>
-2.32526

>  <SCORE.INTRA.DIHEDRAL>
-18.2992

>  <SCORE.INTRA.DIHEDRAL.0>
23.8882

>  <SCORE.INTRA.POLAR>
0

>  <SCORE.INTRA.POLAR.0>
0

>  <SCORE.INTRA.REPUL>
0

>  <SCORE.INTRA.REPUL.0>
0

>  <SCORE.INTRA.SOLV>
6.52122

>  <SCORE.INTRA.SOLV.lig_0>
-97.6888

>  <SCORE.INTRA.VDW>
3.56374

>  <SCORE.INTRA.VDW.0>
-3.9206

>  <SCORE.INTRA.norm>
-0.066436

>  <SCORE.RESTR>
0.650446

>  <SCORE.RESTR.CAVITY>
0.650446

>  <SCORE.RESTR.norm>
0.0185842

>  <SCORE.SYSTEM>
0

>  <SCORE.SYSTEM.CONST>
0

>  <SCORE.SYSTEM.DIHEDRAL>
0

>  <SCORE.SYSTEM.SOLV>
0

>  <SCORE.SYSTEM.norm>
0

>  <SCORE.heavy>
35

>  <SCORE.norm>
-0.0689124

>  <RMSD>
30.369

$$$$
2f4t_lig
 OpenBabel11021811433D
libRbt.so/2013.1/901 2013/11/27
 35 36  0  0  0  0  0  0  0  0999 V2000
   11.7852   14.9532    9.5836 C   0  0  2  0  0  0  0  0  0  0  0  0
   11.4236   15.1253    8.1740 O   0  0  0  0  0  0  0  0  0  0  0  0
    8.7432   11.8026    7.5168 C   0  0  2  0  0  0  0  0  0  0  0  0
    7.6440   11.0033    6.9550 N   0  0  0  0  0  0  0  0  0  0  0  0
   13.1489   15.6858    9.7658 C   0  0  2  0  0  0  0  0  0  0  0  0
   13.0434   17.0674    9.3592 N   0  0  0  0  0  0  0  0  0  0  0  0
    8.1897   13.2060    7.9615 C   0  0  0  0  0  0  0  0  0  0  0  0
    6.3494   10.8585    8.1474 C   0  0  0  0  0  0  0  0  0  0  0  0
    5.6193   10.0495    7.0983 C   0  0  1  0  0  0  0  0  0  0  0  0
    4.4638    9.3268    7.7942 C   0  0  0  0  0  0  0  0  0  0  0  0
    4.8468    8.0615    8.5800 C   0  0  0  0  0  0  0  0  0  0  0  0
    5.5063    7.1284    7.6617 N   0  0  0  0  0  0  0  0  0  0  0  0
    5.0274   10.8876    6.1405 O   0  0  0  0  0  0  0  0  0  0  0  0
   10.3382    9.4945    5.4097 C   0  0  0  0  0  0  0  0  0  0  0  0
    9.2238    8.6489    6.0068 C   0  0  0  0  0  0  0  0  0  0  0  0
   14.2662   14.9537    8.9485 C   0  0  1  0  0  0  0  0  0  0  0  0
    9.4210    7.1945    5.8209 N   0  0  0  0  0  0  0  0  0  0  0  0
   15.5142   15.6007    9.1043 O   0  0  0  0  0  0  0  0  0  0  0  0
    9.2934   14.0964    8.5491 C   0  0  2  0  0  0  0  0  0  0  0  0
    8.7641   15.4061    8.9163 N   0  0  0  0  0  0  0  0  0  0  0  0
   11.5766    7.0205    7.0676 C   0  0  0  0  0  0  0  0  0  0  0  0
   12.4026    7.1918    5.7522 N   0  0  0  0  0  0  0  0  0  0  0  0
   10.1636    6.4052    6.8440 C   0  0  0  0  0  0  0  0  0  0  0  0
    6.2074   11.2092    9.1454 O   0  0  0  0  0  0  0  0  0  0  0  0
   14.3418   13.5043    9.4398 C   0  0  2  0  0  0  0  0  0  0  0  0
   15.3479   12.7846    8.7459 O   0  0  0  0  0  0  0  0  0  0  0  0
   10.4101   14.2783    7.5516 C   0  0  2  0  0  0  0  0  0  0  0  0
   12.9603   12.8110    9.2609 C   0  0  2  0  0  0  0  0  0  0  0  0
   11.9240   13.5283    9.9631 O   0  0  0  0  0  0  0  0  0  0  0  0
   10.9955   12.8652    7.1211 C   0  0  2  0  0  0  0  0  0  0  0  0
   12.0747   13.0801    6.1629 O   0  0  0  0  0  0  0  0  0  0  0  0
   12.9749   11.4120    9.7502 C   0  0  0  0  0  0  0  0  0  0  0  0
   11.7639   10.8499    9.5424 N   0  0  0  0  0  0  0  0  0  0  0  0
    9.8473   12.0184    6.4701 C   0  0  1  0  0  0  0  0  0  0  0  0
   10.3357   10.7825    6.0557 O   0  0  0  0  0  0  0  0  0  0  0  0
  1  2  1  6  0  0  0
  1  5  1  0  0  0  0
  1 29  1  0  0  0  0
  3  4  1  6  0  0  0
  3  7  1  0  0  0  0
  3 34  1  0  0  0  0
  5  6  1  6  0  0  0
  5 16  1  0  0  0  0
  7 19  1  0  0  0  0
  8  4  1  0  0  0  0
  8 24  2  0  0  0  0
  9  8  1  1  0  0  0
  9 10  1  0  0  0  0
  9 13  1  0  0  0  0
 10 11  1  0  0  0  0
 11 12  1  0  0  0  0
 14 15  1  0  0  0  0
 14 35  1  0  0  0  0
 15 17  1  0  0  0  0
 16 18  1  1  0  0  0
 16 25  1  0  0  0  0
 19 20  1  6  0  0  0
 19 27  1  0  0  0  0
 21 22  1  0  0  0  0
 21 23  1  0  0  0  0
 23 17  1  0  0  0  0
 25 26  1  6  0  0  0
 25 28  1  0  0  0  0
 27  2  1  1  0  0  0
 27 30  1  0  0  0  0
 28 29  1  0  0  0  0
 28 32  1  1  0  0  0
 30 31  1  6  0  0  0
 30 34  1  0  0  0  0
 32 33  2  0  0  0  0
 34 35  1  1  0  0  0
M  END
>  <CHROM.1>
163.00317604,-56.87304409,165.46112392,-78.92526946,-57.41425975,-158.39392826
-59.99265092,89.90986798,-53.67521166,-55.86620754,40.46170232,-178.56365756
69.18251558,10.18616827,11.72699747,7.88359432,0.76034550,-0.00286507,0.31482233

>  <Name>
2f4t_lig

>  <RI>
0

>  <Rbt.Current_Directory>
/home/itssahil/PROJECTS/Mol_Feturizer/New_Systems/rnas/2f4t

>  <Rbt.Executable>
rbdock ($Id: //depot/dev/client3/rdock/2013.1/src/exe/rbdock.cxx#4 $)

>  <Rbt.Library>
libRbt.so (2013.1, Build901 2013/11/27)

>  <Rbt.Parameter_File>
/export/apps/rDock/src/rDock_2013.1_src/data/scripts/dock_solv.prm

>  <Rbt.Receptor>
prm/blind_docking_100.prm

>  <SCORE>
-2.59428

>  <SCORE.INTER>
-1.49247

>  <SCORE.INTER.CONST>
1

>  <SCORE.INTER.POLAR>
-1.09608

>  <SCORE.INTER.ROT>
13

>  <SCORE.INTER.SOLV>
17.5715

>  <SCORE.INTER.VDW>
-15.4652

>  <SCORE.INTER.norm>
-0.0426419

>  <SCORE.INTRA>
-3.08698

>  <SCORE.INTRA.DIHEDRAL>
-13.9688

>  <SCORE.INTRA.DIHEDRAL.0>
23.8882

>  <SCORE.INTRA.POLAR>
0

>  <SCORE.INTRA.POLAR.0>
0

>  <SCORE.INTRA.REPUL>
0

>  <SCORE.INTRA.REPUL.0>
0

>  <SCORE.INTRA.SOLV>
5.55608

>  <SCORE.INTRA.SOLV.lig_0>
-97.6888

>  <SCORE.INTRA.VDW>
1.11938

>  <SCORE.INTRA.VDW.0>
-3.9206

>  <SCORE.INTRA.norm>
-0.0881994

>  <SCORE.RESTR>
1.98517

>  <SCORE.RESTR.CAVITY>
1.98517

>  <SCORE.RESTR.norm>
0.0567191

>  <SCORE.SYSTEM>
0

>  <SCORE.SYSTEM.CONST>
0

>  <SCORE.SYSTEM.DIHEDRAL>
0

>  <SCORE.SYSTEM.SOLV>
0

>  <SCORE.SYSTEM.norm>
0

>  <SCORE.heavy>
35

>  <SCORE.norm>
-0.0741223

>  <RMSD>
30.387

$$$$
2f4t_lig
 OpenBabel11021811433D
libRbt.so/2013.1/901 2013/11/27
 35 36  0  0  0  0  0  0  0  0999 V2000
   12.0482   15.5200    9.4383 C   0  0  2  0  0  0  0  0  0  0  0  0
   11.3267   15.2491    8.1920 O   0  0  0  0  0  0  0  0  0  0  0  0
    7.9868   12.8949    9.5920 C   0  0  2  0  0  0  0  0  0  0  0  0
    6.6435   12.2993    9.6511 N   0  0  0  0  0  0  0  0  0  0  0  0
   13.5300   15.7725    9.0260 C   0  0  2  0  0  0  0  0  0  0  0  0
   13.6153   16.8446    8.0622 N   0  0  0  0  0  0  0  0  0  0  0  0
    7.8566   14.4530    9.4216 C   0  0  0  0  0  0  0  0  0  0  0  0
    6.2068   11.6677    8.0607 C   0  0  0  0  0  0  0  0  0  0  0  0
    4.9073   11.2399    8.7061 C   0  0  1  0  0  0  0  0  0  0  0  0
    3.9678   10.7779    7.5900 C   0  0  0  0  0  0  0  0  0  0  0  0
    4.4146    9.5236    6.8203 C   0  0  0  0  0  0  0  0  0  0  0  0
    4.2303    8.3574    7.6892 N   0  0  0  0  0  0  0  0  0  0  0  0
    5.1016   10.1220    9.5324 O   0  0  0  0  0  0  0  0  0  0  0  0
    9.2508    9.6901    9.1213 C   0  0  0  0  0  0  0  0  0  0  0  0
    8.9953    8.5857    8.1071 C   0  0  0  0  0  0  0  0  0  0  0  0
   14.1588   14.4598    8.4483 C   0  0  1  0  0  0  0  0  0  0  0  0
    9.8525    8.6772    6.9049 N   0  0  0  0  0  0  0  0  0  0  0  0
   15.5064   14.6664    8.0720 O   0  0  0  0  0  0  0  0  0  0  0  0
    9.2287   15.1366    9.3422 C   0  0  2  0  0  0  0  0  0  0  0  0
    9.0820   16.5751    9.1436 N   0  0  0  0  0  0  0  0  0  0  0  0
   10.1998   10.3742    5.1073 C   0  0  0  0  0  0  0  0  0  0  0  0
   11.6039    9.8999    4.6120 N   0  0  0  0  0  0  0  0  0  0  0  0
    9.2975    9.2182    5.6319 C   0  0  0  0  0  0  0  0  0  0  0  0
    6.6895   11.6344    7.1094 O   0  0  0  0  0  0  0  0  0  0  0  0
   14.0563   13.3715    9.5219 C   0  0  2  0  0  0  0  0  0  0  0  0
   14.6218   12.1532    9.0659 O   0  0  0  0  0  0  0  0  0  0  0  0
   10.0381   14.5625    8.2063 C   0  0  2  0  0  0  0  0  0  0  0  0
   12.5677   13.1601    9.9224 C   0  0  2  0  0  0  0  0  0  0  0  0
   11.9762   14.3893   10.3921 O   0  0  0  0  0  0  0  0  0  0  0  0
   10.2005   12.9923    8.3883 C   0  0  2  0  0  0  0  0  0  0  0  0
   10.9918   12.4737    7.2775 O   0  0  0  0  0  0  0  0  0  0  0  0
   12.4192   12.1345   10.9822 C   0  0  0  0  0  0  0  0  0  0  0  0
   11.8623   11.0214   10.4564 N   0  0  0  0  0  0  0  0  0  0  0  0
    8.7772   12.3340    8.3995 C   0  0  1  0  0  0  0  0  0  0  0  0
    8.8864   10.9523    8.5296 O   0  0  0  0  0  0  0  0  0  0  0  0
  1  2  1  6  0  0  0
  1  5  1  0  0  0  0
  1 29  1  0  0  0  0
  3  4  1  6  0  0  0
  3  7  1  0  0  0  0
  3 34  1  0  0  0  0
  5  6  1  6  0  0  0
  5 16  1  0  0  0  0
  7 19  1  0  0  0  0
  8  4  1  0  0  0  0
  8 24  2  0  0  0  0
  9  8  1  6  0  0  0
  9 10  1  0  0  0  0
  9 13  1  0  0  0  0
 10 11  1  0  0  0  0
 11 12  1  0  0  0  0
 14 15  1  0  0  0  0
 14 35  1  0  0  0  0
 15 17  1  0  0  0  0
 16 18  1  1  0  0  0
 16 25  1  0  0  0  0
 19 20  1  6  0  0  0
 19 27  1  0  0  0  0
 21 22  1  0  0  0  0
 21 23  1  0  0  0  0
 23 17  1  0  0  0  0
 25 26  1  6  0  0  0
 25 28  1  0  0  0  0
 27  2  1  1  0  0  0
 27 30  1  0  0  0  0
 28 29  1  0  0  0  0
 28 32  1  1  0  0  0
 30 31  1  6  0  0  0
 30 34  1  0  0  0  0
 32 33  2  0  0  0  0
 34 35  1  1  0  0  0
M  END
>  <CHROM.1>
160.34757937,98.13505946,170.45609081,65.01562160,72.89397174,64.84700840
-170.15276519,-102.25357710,68.79985837,126.53636233,42.67801607,-108.78222035
-60.19523019,9.79072182,12.35942584,8.40151860,0.54387940,0.10428615,0.42166010

>  <Name>
2f4t_lig

>  <RI>
0

>  <Rbt.Current_Directory>
/home/itssahil/PROJECTS/Mol_Feturizer/New_Systems/rnas/2f4t

>  <Rbt.Executable>
rbdock ($Id: //depot/dev/client3/rdock/2013.1/src/exe/rbdock.cxx#4 $)

>  <Rbt.Library>
libRbt.so (2013.1, Build901 2013/11/27)

>  <Rbt.Parameter_File>
/export/apps/rDock/src/rDock_2013.1_src/data/scripts/dock_solv.prm

>  <Rbt.Receptor>
prm/blind_docking_100.prm

>  <SCORE>
-2.6885

>  <SCORE.INTER>
-1.76579

>  <SCORE.INTER.CONST>
1

>  <SCORE.INTER.POLAR>
-0.916515

>  <SCORE.INTER.ROT>
13

>  <SCORE.INTER.SOLV>
10.5803

>  <SCORE.INTER.VDW>
-13.9156

>  <SCORE.INTER.norm>
-0.0504513

>  <SCORE.INTRA>
-1.69346

>  <SCORE.INTRA.DIHEDRAL>
-14.4954

>  <SCORE.INTRA.DIHEDRAL.0>
23.8882

>  <SCORE.INTRA.POLAR>
0

>  <SCORE.INTRA.POLAR.0>
0

>  <SCORE.INTRA.REPUL>
0

>  <SCORE.INTRA.REPUL.0>
0

>  <SCORE.INTRA.SOLV>
6.62372

>  <SCORE.INTRA.SOLV.lig_0>
-97.6888

>  <SCORE.INTRA.VDW>
2.24237

>  <SCORE.INTRA.VDW.0>
-3.9206

>  <SCORE.INTRA.norm>
-0.0483845

>  <SCORE.RESTR>
0.770748

>  <SCORE.RESTR.CAVITY>
0.770748

>  <SCORE.RESTR.norm>
0.0220214

>  <SCORE.SYSTEM>
0

>  <SCORE.SYSTEM.CONST>
0

>  <SCORE.SYSTEM.DIHEDRAL>
0

>  <SCORE.SYSTEM.SOLV>
0

>  <SCORE.SYSTEM.norm>
0

>  <SCORE.heavy>
35

>  <SCORE.norm>
-0.0768144

>  <RMSD>
30.393

$$$$
2f4t_lig
 OpenBabel11021811433D
libRbt.so/2013.1/901 2013/11/27
 35 36  0  0  0  0  0  0  0  0999 V2000
    8.7533    8.8984    6.9248 C   0  0  2  0  0  0  0  0  0  0  0  0
    9.1452    9.2826    8.2835 O   0  0  0  0  0  0  0  0  0  0  0  0
   10.1666   12.9770   10.2748 C   0  0  2  0  0  0  0  0  0  0  0  0
   10.8771   14.2239   10.5957 N   0  0  0  0  0  0  0  0  0  0  0  0
    9.6493    7.6786    6.5521 C   0  0  2  0  0  0  0  0  0  0  0  0
    9.4960    6.6188    7.5210 N   0  0  0  0  0  0  0  0  0  0  0  0
   11.2025   11.7965   10.1900 C   0  0  0  0  0  0  0  0  0  0  0  0
   12.1843   14.4745    9.4350 C   0  0  0  0  0  0  0  0  0  0  0  0
   12.4759   15.7462   10.2004 C   0  0  1  0  0  0  0  0  0  0  0  0
   13.6719   16.4251    9.5291 C   0  0  0  0  0  0  0  0  0  0  0  0
   13.4120   16.9947    8.1244 C   0  0  0  0  0  0  0  0  0  0  0  0
   13.4671   15.8918    7.1603 N   0  0  0  0  0  0  0  0  0  0  0  0
   11.4093   16.6523   10.0929 O   0  0  0  0  0  0  0  0  0  0  0  0
    7.4342   14.9863    8.5772 C   0  0  0  0  0  0  0  0  0  0  0  0
    6.1330   14.2891    8.9437 C   0  0  0  0  0  0  0  0  0  0  0  0
   11.1478    8.1225    6.4522 C   0  0  1  0  0  0  0  0  0  0  0  0
    5.9069   13.0304    8.2000 N   0  0  0  0  0  0  0  0  0  0  0  0
   11.9781    7.0299    6.1099 O   0  0  0  0  0  0  0  0  0  0  0  0
   10.5239   10.4632    9.8463 C   0  0  2  0  0  0  0  0  0  0  0  0
   11.5092    9.3925    9.7333 N   0  0  0  0  0  0  0  0  0  0  0  0
    5.7295   10.9178    9.5179 C   0  0  0  0  0  0  0  0  0  0  0  0
    4.9182    9.5982    9.7235 N   0  0  0  0  0  0  0  0  0  0  0  0
    4.9541   12.0128    8.7272 C   0  0  0  0  0  0  0  0  0  0  0  0
   12.5521   13.9326    8.5922 O   0  0  0  0  0  0  0  0  0  0  0  0
   11.2460    9.2295    5.3974 C   0  0  2  0  0  0  0  0  0  0  0  0
   12.5857    9.6706    5.2472 O   0  0  0  0  0  0  0  0  0  0  0  0
    9.7683   10.5768    8.5458 C   0  0  2  0  0  0  0  0  0  0  0  0
   10.3256   10.4206    5.7914 C   0  0  2  0  0  0  0  0  0  0  0  0
    8.9570    9.9910    5.9458 O   0  0  0  0  0  0  0  0  0  0  0  0
    8.6977   11.7476    8.6348 C   0  0  2  0  0  0  0  0  0  0  0  0
    7.9838   11.8239    7.3645 O   0  0  0  0  0  0  0  0  0  0  0  0
   10.3641   11.5074    4.7843 C   0  0  0  0  0  0  0  0  0  0  0  0
   10.7206   12.6645    5.3842 N   0  0  0  0  0  0  0  0  0  0  0  0
    9.4447   13.0959    8.9236 C   0  0  1  0  0  0  0  0  0  0  0  0
    8.5351   14.1482    8.9795 O   0  0  0  0  0  0  0  0  0  0  0  0
  1  2  1  1  0  0  0
  1  5  1  0  0  0  0
  1 29  1  0  0  0  0
  3  4  1  6  0  0  0
  3  7  1  0  0  0  0
  3 34  1  0  0  0  0
  5  6  1  1  0  0  0
  5 16  1  0  0  0  0
  7 19  1  0  0  0  0
  8  4  1  0  0  0  0
  8 24  2  0  0  0  0
  9  8  1  6  0  0  0
  9 10  1  0  0  0  0
  9 13  1  0  0  0  0
 10 11  1  0  0  0  0
 11 12  1  0  0  0  0
 14 15  1  0  0  0  0
 14 35  1  0  0  0  0
 15 17  1  0  0  0  0
 16 18  1  6  0  0  0
 16 25  1  0  0  0  0
 19 20  1  6  0  0  0
 19 27  1  0  0  0  0
 21 22  1  0  0  0  0
 21 23  1  0  0  0  0
 23 17  1  0  0  0  0
 25 26  1  1  0  0  0
 25 28  1  0  0  0  0
 27  2  1  1  0  0  0
 27 30  1  0  0  0  0
 28 29  1  0  0  0  0
 28 32  1  6  0  0  0
 30 31  1  6  0  0  0
 30 34  1  0  0  0  0
 32 33  2  0  0  0  0
 34 35  1  1  0  0  0
M  END
>  <CHROM.1>
115.16957046,53.68579606,179.72132243,68.57602996,-79.72561469,-65.11688717
77.86097563,159.86381236,-161.84672612,-96.77056554,-158.01410628,-123.86484720
-166.87835613,9.92237713,11.89873784,8.11063305,1.91178652,-0.25488190,-2.74545928

>  <Name>
2f4t_lig

>  <RI>
0

>  <Rbt.Current_Directory>
/home/itssahil/PROJECTS/Mol_Feturizer/New_Systems/rnas/2f4t

>  <Rbt.Executable>
rbdock ($Id: //depot/dev/client3/rdock/2013.1/src/exe/rbdock.cxx#4 $)

>  <Rbt.Library>
libRbt.so (2013.1, Build901 2013/11/27)

>  <Rbt.Parameter_File>
/export/apps/rDock/src/rDock_2013.1_src/data/scripts/dock_solv.prm

>  <Rbt.Receptor>
prm/blind_docking_100.prm

>  <SCORE>
4.21535

>  <SCORE.INTER>
-0.216025

>  <SCORE.INTER.CONST>
1

>  <SCORE.INTER.POLAR>
-1.07703

>  <SCORE.INTER.ROT>
13

>  <SCORE.INTER.SOLV>
11.3386

>  <SCORE.INTER.VDW>
-12.6001

>  <SCORE.INTER.norm>
-0.00617213

>  <SCORE.INTRA>
2.02326

>  <SCORE.INTRA.DIHEDRAL>
-6.77159

>  <SCORE.INTRA.DIHEDRAL.0>
23.8882

>  <SCORE.INTRA.POLAR>
0

>  <SCORE.INTRA.POLAR.0>
0

>  <SCORE.INTRA.REPUL>
0.152227

>  <SCORE.INTRA.REPUL.0>
0

>  <SCORE.INTRA.SOLV>
7.719

>  <SCORE.INTRA.SOLV.lig_0>
-97.6888

>  <SCORE.INTRA.VDW>
0.788418

>  <SCORE.INTRA.VDW.0>
-3.9206

>  <SCORE.INTRA.norm>
0.0578074

>  <SCORE.RESTR>
2.40812

>  <SCORE.RESTR.CAVITY>
2.40812

>  <SCORE.RESTR.norm>
0.0688034

>  <SCORE.SYSTEM>
0

>  <SCORE.SYSTEM.CONST>
0

>  <SCORE.SYSTEM.DIHEDRAL>
0

>  <SCORE.SYSTEM.SOLV>
0

>  <SCORE.SYSTEM.norm>
0

>  <SCORE.heavy>
35

>  <SCORE.norm>
0.120439

>  <RMSD>
30.399

$$$$
2f4t_lig
 OpenBabel11021811433D
libRbt.so/2013.1/901 2013/11/27
 35 36  0  0  0  0  0  0  0  0999 V2000
   12.9803   13.9849    7.8515 C   0  0  2  0  0  0  0  0  0  0  0  0
   12.5323   13.0348    8.8733 O   0  0  0  0  0  0  0  0  0  0  0  0
    9.1663   10.3308    8.7496 C   0  0  2  0  0  0  0  0  0  0  0  0
    7.7907    9.8286    8.8849 N   0  0  0  0  0  0  0  0  0  0  0  0
   14.3736   14.4964    8.3276 C   0  0  2  0  0  0  0  0  0  0  0  0
   15.2808   13.3910    8.5286 N   0  0  0  0  0  0  0  0  0  0  0  0
    9.6093   11.0015   10.1014 C   0  0  0  0  0  0  0  0  0  0  0  0
    6.6852   11.1873    9.1096 C   0  0  0  0  0  0  0  0  0  0  0  0
    5.5885   10.1469    9.1650 C   0  0  1  0  0  0  0  0  0  0  0  0
    5.4630    9.5337    7.7685 C   0  0  0  0  0  0  0  0  0  0  0  0
    4.1097    9.7429    7.0686 C   0  0  0  0  0  0  0  0  0  0  0  0
    3.9134   11.1808    6.8612 N   0  0  0  0  0  0  0  0  0  0  0  0
    5.9419    9.0902   10.0186 O   0  0  0  0  0  0  0  0  0  0  0  0
    8.8549    9.8852    5.3167 C   0  0  0  0  0  0  0  0  0  0  0  0
   10.2404    9.8907    4.6891 C   0  0  0  0  0  0  0  0  0  0  0  0
   14.2194   15.3303    9.6441 C   0  0  1  0  0  0  0  0  0  0  0  0
   11.0819    8.7468    5.1039 N   0  0  0  0  0  0  0  0  0  0  0  0
   15.4733   15.8084   10.0909 O   0  0  0  0  0  0  0  0  0  0  0  0
   11.0377   11.5580   10.0231 C   0  0  2  0  0  0  0  0  0  0  0  0
   11.4107   12.2104   11.2743 N   0  0  0  0  0  0  0  0  0  0  0  0
   11.3586    7.3786    7.1735 C   0  0  0  0  0  0  0  0  0  0  0  0
   11.5804    6.1208    6.2731 N   0  0  0  0  0  0  0  0  0  0  0  0
   11.6926    8.7238    6.4633 C   0  0  0  0  0  0  0  0  0  0  0  0
    6.8023   12.2465    9.1700 O   0  0  0  0  0  0  0  0  0  0  0  0
   13.2651   16.4948    9.3599 C   0  0  2  0  0  0  0  0  0  0  0  0
   13.0904   17.3016   10.5133 O   0  0  0  0  0  0  0  0  0  0  0  0
   11.1544   12.5524    8.8950 C   0  0  2  0  0  0  0  0  0  0  0  0
   11.8932   15.9487    8.8693 C   0  0  2  0  0  0  0  0  0  0  0  0
   12.0511   15.1274    7.6936 O   0  0  0  0  0  0  0  0  0  0  0  0
   10.7381   11.8726    7.5204 C   0  0  2  0  0  0  0  0  0  0  0  0
   10.8687   12.8598    6.4539 O   0  0  0  0  0  0  0  0  0  0  0  0
   10.9429   17.0412    8.5527 C   0  0  0  0  0  0  0  0  0  0  0  0
    9.6789   16.6139    8.7654 N   0  0  0  0  0  0  0  0  0  0  0  0
    9.2538   11.3785    7.6289 C   0  0  1  0  0  0  0  0  0  0  0  0
    8.8490   10.8020    6.4282 O   0  0  0  0  0  0  0  0  0  0  0  0
  1  2  1  1  0  0  0
  1  5  1  0  0  0  0
  1 29  1  0  0  0  0
  3  4  1  1  0  0  0
  3  7  1  0  0  0  0
  3 34  1  0  0  0  0
  5  6  1  1  0  0  0
  5 16  1  0  0  0  0
  7 19  1  0  0  0  0
  8  4  1  0  0  0  0
  8 24  2  0  0  0  0
  9  8  1  6  0  0  0
  9 10  1  0  0  0  0
  9 13  1  0  0  0  0
 10 11  1  0  0  0  0
 11 12  1  0  0  0  0
 14 15  1  0  0  0  0
 14 35  1  0  0  0  0
 15 17  1  0  0  0  0
 16 18  1  6  0  0  0
 16 25  1  0  0  0  0
 19 20  1  1  0  0  0
 19 27  1  0  0  0  0
 21 22  1  0  0  0  0
 21 23  1  0  0  0  0
 23 17  1  0  0  0  0
 25 26  1  1  0  0  0
 25 28  1  0  0  0  0
 27  2  1  6  0  0  0
 27 30  1  0  0  0  0
 28 29  1  0  0  0  0
 28 32  1  6  0  0  0
 30 31  1  6  0  0  0
 30 34  1  0  0  0  0
 32 33  2  0  0  0  0
 34 35  1  6  0  0  0
M  END
>  <CHROM.1>
167.89543044,65.31667895,-68.29099343,-117.52600671,62.90373861,99.96073185
-54.16915776,-75.15804486,46.52229144,128.16930647,177.78210034,-150.57092863
-59.80015224,10.26166961,12.09059371,8.20427287,-0.76932720,-0.14125908,-2.72431713

>  <Name>
2f4t_lig

>  <RI>
0

>  <Rbt.Current_Directory>
/home/itssahil/PROJECTS/Mol_Feturizer/New_Systems/rnas/2f4t

>  <Rbt.Executable>
rbdock ($Id: //depot/dev/client3/rdock/2013.1/src/exe/rbdock.cxx#4 $)

>  <Rbt.Library>
libRbt.so (2013.1, Build901 2013/11/27)

>  <Rbt.Parameter_File>
/export/apps/rDock/src/rDock_2013.1_src/data/scripts/dock_solv.prm

>  <Rbt.Receptor>
prm/blind_docking_100.prm

>  <SCORE>
-5.29842

>  <SCORE.INTER>
-5.59393

>  <SCORE.INTER.CONST>
1

>  <SCORE.INTER.POLAR>
-2.0799

>  <SCORE.INTER.ROT>
13

>  <SCORE.INTER.SOLV>
20.3416

>  <SCORE.INTER.VDW>
-15.8435

>  <SCORE.INTER.norm>
-0.159827

>  <SCORE.INTRA>
-0.522483

>  <SCORE.INTRA.DIHEDRAL>
-9.42688

>  <SCORE.INTRA.DIHEDRAL.0>
23.8882

>  <SCORE.INTRA.POLAR>
0

>  <SCORE.INTRA.POLAR.0>
0

>  <SCORE.INTRA.REPUL>
0

>  <SCORE.INTRA.REPUL.0>
0

>  <SCORE.INTRA.SOLV>
3.41144

>  <SCORE.INTRA.SOLV.lig_0>
-97.6888

>  <SCORE.INTRA.VDW>
2.48524

>  <SCORE.INTRA.VDW.0>
-3.9206

>  <SCORE.INTRA.norm>
-0.0149281

>  <SCORE.RESTR>
0.817989

>  <SCORE.RESTR.CAVITY>
0.817989

>  <SCORE.RESTR.norm>
0.0233711

>  <SCORE.SYSTEM>
0

>  <SCORE.SYSTEM.CONST>
0

>  <SCORE.SYSTEM.DIHEDRAL>
0

>  <SCORE.SYSTEM.SOLV>
0

>  <SCORE.SYSTEM.norm>
0

>  <SCORE.heavy>
35

>  <SCORE.norm>
-0.151383

>  <RMSD>
30.412

$$$$
2f4t_lig
 OpenBabel11021811433D
libRbt.so/2013.1/901 2013/11/27
 35 36  0  0  0  0  0  0  0  0999 V2000
   12.1637   15.3244    9.7374 C   0  0  2  0  0  0  0  0  0  0  0  0
   11.5662   15.4012    8.4016 O   0  0  0  0  0  0  0  0  0  0  0  0
    8.3151   12.5763    8.7300 C   0  0  2  0  0  0  0  0  0  0  0  0
    7.0264   11.9158    8.4738 N   0  0  0  0  0  0  0  0  0  0  0  0
   13.6324   15.8209    9.5759 C   0  0  2  0  0  0  0  0  0  0  0  0
   13.6622   17.1462    9.0031 N   0  0  0  0  0  0  0  0  0  0  0  0
    8.0728   14.1119    8.9686 C   0  0  0  0  0  0  0  0  0  0  0  0
    6.3757   11.2823    9.9884 C   0  0  0  0  0  0  0  0  0  0  0  0
    5.2044   10.8026    9.1601 C   0  0  1  0  0  0  0  0  0  0  0  0
    5.6761    9.5921    8.3513 C   0  0  0  0  0  0  0  0  0  0  0  0
    4.6703    9.0442    7.3250 C   0  0  0  0  0  0  0  0  0  0  0  0
    3.8605    8.0107    7.9770 N   0  0  0  0  0  0  0  0  0  0  0  0
    4.1668   10.3353    9.9817 O   0  0  0  0  0  0  0  0  0  0  0  0
    9.2031    9.7214    6.8125 C   0  0  0  0  0  0  0  0  0  0  0  0
    9.3642    9.7133    5.3001 C   0  0  0  0  0  0  0  0  0  0  0  0
   14.4448   14.8179    8.6892 C   0  0  1  0  0  0  0  0  0  0  0  0
   10.7308    9.3656    4.8529 N   0  0  0  0  0  0  0  0  0  0  0  0
   15.7832   15.2481    8.5339 O   0  0  0  0  0  0  0  0  0  0  0  0
    9.3847   14.8641    9.2322 C   0  0  2  0  0  0  0  0  0  0  0  0
    9.1386   16.2917    9.4099 N   0  0  0  0  0  0  0  0  0  0  0  0
   12.9980    9.4440    5.8946 C   0  0  0  0  0  0  0  0  0  0  0  0
   12.5531    8.8089    7.2513 N   0  0  0  0  0  0  0  0  0  0  0  0
   11.8756   10.2595    5.1872 C   0  0  0  0  0  0  0  0  0  0  0  0
    6.7095   11.2747   11.0022 O   0  0  0  0  0  0  0  0  0  0  0  0
   14.3921   13.4410    9.3592 C   0  0  2  0  0  0  0  0  0  0  0  0
   15.1226   12.4832    8.6102 O   0  0  0  0  0  0  0  0  0  0  0  0
   10.3436   14.6685    8.0845 C   0  0  2  0  0  0  0  0  0  0  0  0
   12.9128   12.9864    9.5215 C   0  0  2  0  0  0  0  0  0  0  0  0
   12.1543   13.9480   10.2842 O   0  0  0  0  0  0  0  0  0  0  0  0
   10.6176   13.1199    7.8575 C   0  0  2  0  0  0  0  0  0  0  0  0
   11.5516   12.9698    6.7465 O   0  0  0  0  0  0  0  0  0  0  0  0
   12.8083   11.6692   10.1930 C   0  0  0  0  0  0  0  0  0  0  0  0
   11.5148   11.4176   10.4914 N   0  0  0  0  0  0  0  0  0  0  0  0
    9.2594   12.4080    7.5295 C   0  0  1  0  0  0  0  0  0  0  0  0
    9.4701   11.0517    7.2972 O   0  0  0  0  0  0  0  0  0  0  0  0
  1  2  1  6  0  0  0
  1  5  1  0  0  0  0
  1 29  1  0  0  0  0
  3  4  1  6  0  0  0
  3  7  1  0  0  0  0
  3 34  1  0  0  0  0
  5  6  1  6  0  0  0
  5 16  1  0  0  0  0
  7 19  1  0  0  0  0
  8  4  1  0  0  0  0
  8 24  2  0  0  0  0
  9  8  1  1  0  0  0
  9 10  1  0  0  0  0
  9 13  1  0  0  0  0
 10 11  1  0  0  0  0
 11 12  1  0  0  0  0
 14 15  1  0  0  0  0
 14 35  1  0  0  0  0
 15 17  1  0  0  0  0
 16 18  1  1  0  0  0
 16 25  1  0  0  0  0
 19 20  1  6  0  0  0
 19 27  1  0  0  0  0
 21 22  1  0  0  0  0
 21 23  1  0  0  0  0
 23 17  1  0  0  0  0
 25 26  1  6  0  0  0
 25 28  1  0  0  0  0
 27  2  1  1  0  0  0
 27 30  1  0  0  0  0
 28 29  1  0  0  0  0
 28 32  1  1  0  0  0
 30 31  1  6  0  0  0
 30 34  1  0  0  0  0
 32 33  2  0  0  0  0
 34 35  1  1  0  0  0
M  END
>  <CHROM.1>
162.18867437,-93.41483990,74.02004019,-173.69645737,-91.04827599,91.30337966
71.98144492,-64.23023190,-61.92812198,126.21063487,44.60968740,170.71420723
80.82069500,10.20500115,12.31488841,8.38886310,0.46990736,0.24255228,0.55224965

>  <Name>
2f4t_lig

>  <RI>
0

>  <Rbt.Current_Directory>
/home/itssahil/PROJECTS/Mol_Feturizer/New_Systems/rnas/2f4t

>  <Rbt.Executable>
rbdock ($Id: //depot/dev/client3/rdock/2013.1/src/exe/rbdock.cxx#4 $)

>  <Rbt.Library>
libRbt.so (2013.1, Build901 2013/11/27)

>  <Rbt.Parameter_File>
/export/apps/rDock/src/rDock_2013.1_src/data/scripts/dock_solv.prm

>  <Rbt.Receptor>
prm/blind_docking_100.prm

>  <SCORE>
-5.35552

>  <SCORE.INTER>
-4.80898

>  <SCORE.INTER.CONST>
1

>  <SCORE.INTER.POLAR>
-0.916515

>  <SCORE.INTER.ROT>
13

>  <SCORE.INTER.SOLV>
9.05499

>  <SCORE.INTER.VDW>
-15.4359

>  <SCORE.INTER.norm>
-0.137399

>  <SCORE.INTRA>
-1.31931

>  <SCORE.INTRA.DIHEDRAL>
-8.00745

>  <SCORE.INTRA.DIHEDRAL.0>
23.8882

>  <SCORE.INTRA.POLAR>
0

>  <SCORE.INTRA.POLAR.0>
0

>  <SCORE.INTRA.REPUL>
0

>  <SCORE.INTRA.REPUL.0>
0

>  <SCORE.INTRA.SOLV>
5.39735

>  <SCORE.INTRA.SOLV.lig_0>
-97.6888

>  <SCORE.INTRA.VDW>
-0.0142523

>  <SCORE.INTRA.VDW.0>
-3.9206

>  <SCORE.INTRA.norm>
-0.0376945

>  <SCORE.RESTR>
0.772761

>  <SCORE.RESTR.CAVITY>
0.772761

>  <SCORE.RESTR.norm>
0.0220789

>  <SCORE.SYSTEM>
0

>  <SCORE.SYSTEM.CONST>
0

>  <SCORE.SYSTEM.DIHEDRAL>
0

>  <SCORE.SYSTEM.SOLV>
0

>  <SCORE.SYSTEM.norm>
0

>  <SCORE.heavy>
35

>  <SCORE.norm>
-0.153015

>  <RMSD>
30.417

$$$$
2f4t_lig
 OpenBabel11021811433D
libRbt.so/2013.1/901 2013/11/27
 35 36  0  0  0  0  0  0  0  0999 V2000
   12.7733   14.1039    7.9044 C   0  0  2  0  0  0  0  0  0  0  0  0
   12.3893   13.0998    8.9001 O   0  0  0  0  0  0  0  0  0  0  0  0
    9.3550   10.0629    8.4237 C   0  0  2  0  0  0  0  0  0  0  0  0
    8.0474    9.3930    8.4881 N   0  0  0  0  0  0  0  0  0  0  0  0
   14.1908   14.5986    8.3235 C   0  0  2  0  0  0  0  0  0  0  0  0
   15.1116   13.4898    8.4133 N   0  0  0  0  0  0  0  0  0  0  0  0
    9.7297   10.6078    9.8507 C   0  0  0  0  0  0  0  0  0  0  0  0
    6.7652   10.6055    8.5572 C   0  0  0  0  0  0  0  0  0  0  0  0
    5.8074    9.4351    8.5918 C   0  0  1  0  0  0  0  0  0  0  0  0
    4.3885    9.9963    8.4746 C   0  0  0  0  0  0  0  0  0  0  0  0
    4.1139   10.8577    7.2306 C   0  0  0  0  0  0  0  0  0  0  0  0
    4.1185    9.9846    6.0530 N   0  0  0  0  0  0  0  0  0  0  0  0
    5.9869    8.6067    7.4730 O   0  0  0  0  0  0  0  0  0  0  0  0
    9.1129   10.0901    4.9191 C   0  0  0  0  0  0  0  0  0  0  0  0
    9.6588    8.6961    5.1878 C   0  0  0  0  0  0  0  0  0  0  0  0
   14.1122   15.3626    9.6883 C   0  0  1  0  0  0  0  0  0  0  0  0
   11.1146    8.6716    5.4496 N   0  0  0  0  0  0  0  0  0  0  0  0
   15.3889   15.8245   10.0847 O   0  0  0  0  0  0  0  0  0  0  0  0
   11.0841   11.3303    9.8499 C   0  0  2  0  0  0  0  0  0  0  0  0
   11.3905   11.8616   11.1743 N   0  0  0  0  0  0  0  0  0  0  0  0
   12.1762    8.6381    7.7087 C   0  0  0  0  0  0  0  0  0  0  0  0
   13.1125    9.8160    7.2868 N   0  0  0  0  0  0  0  0  0  0  0  0
   11.6674    7.7829    6.5107 C   0  0  0  0  0  0  0  0  0  0  0  0
    6.7428   11.6725    8.5669 O   0  0  0  0  0  0  0  0  0  0  0  0
   13.1393   16.5344    9.5214 C   0  0  2  0  0  0  0  0  0  0  0  0
   13.0307   17.2796   10.7234 O   0  0  0  0  0  0  0  0  0  0  0  0
   11.0761   12.4631    8.8542 C   0  0  2  0  0  0  0  0  0  0  0  0
   11.7425   16.0060    9.0847 C   0  0  2  0  0  0  0  0  0  0  0  0
   11.8331   15.2474    7.8608 O   0  0  0  0  0  0  0  0  0  0  0  0
   10.7288   11.9151    7.4037 C   0  0  2  0  0  0  0  0  0  0  0  0
   10.7360   13.0350    6.4683 O   0  0  0  0  0  0  0  0  0  0  0  0
   10.7719   17.1077    8.8816 C   0  0  0  0  0  0  0  0  0  0  0  0
   11.2765   17.9944    7.9957 N   0  0  0  0  0  0  0  0  0  0  0  0
    9.3119   11.2440    7.4418 C   0  0  1  0  0  0  0  0  0  0  0  0
    8.9656   10.7776    6.1767 O   0  0  0  0  0  0  0  0  0  0  0  0
  1  2  1  1  0  0  0
  1  5  1  0  0  0  0
  1 29  1  0  0  0  0
  3  4  1  1  0  0  0
  3  7  1  0  0  0  0
  3 34  1  0  0  0  0
  5  6  1  1  0  0  0
  5 16  1  0  0  0  0
  7 19  1  0  0  0  0
  8  4  1  0  0  0  0
  8 24  2  0  0  0  0
  9  8  1  6  0  0  0
  9 10  1  0  0  0  0
  9 13  1  0  0  0  0
 10 11  1  0  0  0  0
 11 12  1  0  0  0  0
 14 15  1  0  0  0  0
 14 35  1  0  0  0  0
 15 17  1  0  0  0  0
 16 18  1  6  0  0  0
 16 25  1  0  0  0  0
 19 20  1  1  0  0  0
 19 27  1  0  0  0  0
 21 22  1  0  0  0  0
 21 23  1  0  0  0  0
 23 17  1  0  0  0  0
 25 26  1  1  0  0  0
 25 28  1  0  0  0  0
 27  2  1  6  0  0  0
 27 30  1  0  0  0  0
 28 29  1  0  0  0  0
 28 32  1  6  0  0  0
 30 31  1  6  0  0  0
 30 34  1  0  0  0  0
 32 33  2  0  0  0  0
 34 35  1  6  0  0  0
M  END
>  <CHROM.1>
177.04732159,76.29150310,-172.63347010,56.89803101,69.72460292,-78.45827390
47.40810250,139.71755195,-49.69580911,-109.95097672,170.46952988,55.23410774
-70.41400249,10.31645456,12.13038469,8.09083381,-0.77665539,-0.02511870,-2.80059894

>  <Name>
2f4t_lig

>  <RI>
0

>  <Rbt.Current_Directory>
/home/itssahil/PROJECTS/Mol_Feturizer/New_Systems/rnas/2f4t

>  <Rbt.Executable>
rbdock ($Id: //depot/dev/client3/rdock/2013.1/src/exe/rbdock.cxx#4 $)

>  <Rbt.Library>
libRbt.so (2013.1, Build901 2013/11/27)

>  <Rbt.Parameter_File>
/export/apps/rDock/src/rDock_2013.1_src/data/scripts/dock_solv.prm

>  <Rbt.Receptor>
prm/blind_docking_100.prm

>  <SCORE>
-0.384803

>  <SCORE.INTER>
0.864208

>  <SCORE.INTER.CONST>
1

>  <SCORE.INTER.POLAR>
-0.829544

>  <SCORE.INTER.ROT>
13

>  <SCORE.INTER.SOLV>
14.5114

>  <SCORE.INTER.VDW>
-13.7625

>  <SCORE.INTER.norm>
0.0246916

>  <SCORE.INTRA>
-2.5915

>  <SCORE.INTRA.DIHEDRAL>
-15.2221

>  <SCORE.INTRA.DIHEDRAL.0>
23.8882

>  <SCORE.INTRA.POLAR>
0

>  <SCORE.INTRA.POLAR.0>
0

>  <SCORE.INTRA.REPUL>
0

>  <SCORE.INTRA.REPUL.0>
0

>  <SCORE.INTRA.SOLV>
9.50931

>  <SCORE.INTRA.SOLV.lig_0>
-97.6888

>  <SCORE.INTRA.VDW>
0.264905

>  <SCORE.INTRA.VDW.0>
-3.9206

>  <SCORE.INTRA.norm>
-0.074043

>  <SCORE.RESTR>
1.34249

>  <SCORE.RESTR.CAVITY>
1.34249

>  <SCORE.RESTR.norm>
0.038357

>  <SCORE.SYSTEM>
0

>  <SCORE.SYSTEM.CONST>
0

>  <SCORE.SYSTEM.DIHEDRAL>
0

>  <SCORE.SYSTEM.SOLV>
0

>  <SCORE.SYSTEM.norm>
0

>  <SCORE.heavy>
35

>  <SCORE.norm>
-0.0109944

>  <RMSD>
30.483

$$$$
2f4t_lig
 OpenBabel11021811433D
libRbt.so/2013.1/901 2013/11/27
 35 36  0  0  0  0  0  0  0  0999 V2000
   10.4818   16.0249    9.0120 C   0  0  2  0  0  0  0  0  0  0  0  0
   10.3429   14.8043    9.8109 O   0  0  0  0  0  0  0  0  0  0  0  0
    7.7758   11.3391   10.0541 C   0  0  2  0  0  0  0  0  0  0  0  0
    6.7547   10.3465    9.6868 N   0  0  0  0  0  0  0  0  0  0  0  0
   11.0060   15.5640    7.6183 C   0  0  2  0  0  0  0  0  0  0  0  0
   10.1147   14.5885    7.0357 N   0  0  0  0  0  0  0  0  0  0  0  0
    7.1666   12.7831    9.9233 C   0  0  0  0  0  0  0  0  0  0  0  0
    6.5146   10.3655    7.9373 C   0  0  0  0  0  0  0  0  0  0  0  0
    5.4976    9.2708    8.1728 C   0  0  1  0  0  0  0  0  0  0  0  0
    4.1075    9.9022    8.0690 C   0  0  0  0  0  0  0  0  0  0  0  0
    3.8983   10.8606    6.8846 C   0  0  0  0  0  0  0  0  0  0  0  0
    3.9657   10.0838    5.6432 N   0  0  0  0  0  0  0  0  0  0  0  0
    5.5573    8.3035    7.1574 O   0  0  0  0  0  0  0  0  0  0  0  0
   10.4806    8.8846    9.0228 C   0  0  0  0  0  0  0  0  0  0  0  0
   10.7493    8.7393    7.5328 C   0  0  0  0  0  0  0  0  0  0  0  0
   12.4521   14.9787    7.7540 C   0  0  1  0  0  0  0  0  0  0  0  0
   11.3205    9.9555    6.9138 N   0  0  0  0  0  0  0  0  0  0  0  0
   12.9487   14.5585    6.4982 O   0  0  0  0  0  0  0  0  0  0  0  0
    8.1886   13.8703   10.2837 C   0  0  2  0  0  0  0  0  0  0  0  0
    7.6130   15.2010   10.1157 N   0  0  0  0  0  0  0  0  0  0  0  0
   10.1511   10.5608    4.7930 C   0  0  0  0  0  0  0  0  0  0  0  0
    8.9485    9.5740    4.9407 N   0  0  0  0  0  0  0  0  0  0  0  0
   11.4713   10.0390    5.4333 C   0  0  0  0  0  0  0  0  0  0  0  0
    6.9325   10.9244    7.1297 O   0  0  0  0  0  0  0  0  0  0  0  0
   13.3497   16.0648    8.3562 C   0  0  2  0  0  0  0  0  0  0  0  0
   14.6833   15.6023    8.4952 O   0  0  0  0  0  0  0  0  0  0  0  0
    9.4143   13.7501    9.4129 C   0  0  2  0  0  0  0  0  0  0  0  0
   12.7865   16.5137    9.7355 C   0  0  2  0  0  0  0  0  0  0  0  0
   11.4304   16.9906    9.6129 O   0  0  0  0  0  0  0  0  0  0  0  0
   10.0536   12.3032    9.5637 C   0  0  2  0  0  0  0  0  0  0  0  0
   11.2373   12.2258    8.7140 O   0  0  0  0  0  0  0  0  0  0  0  0
   13.6065   17.5868   10.3462 C   0  0  0  0  0  0  0  0  0  0  0  0
   13.6363   17.4225   11.6871 N   0  0  0  0  0  0  0  0  0  0  0  0
    8.9946   11.2333    9.1243 C   0  0  1  0  0  0  0  0  0  0  0  0
    9.5348    9.9538    9.2183 O   0  0  0  0  0  0  0  0  0  0  0  0
  1  2  1  1  0  0  0
  1  5  1  0  0  0  0
  1 29  1  0  0  0  0
  3  4  1  6  0  0  0
  3  7  1  0  0  0  0
  3 34  1  0  0  0  0
  5  6  1  1  0  0  0
  5 16  1  0  0  0  0
  7 19  1  0  0  0  0
  8  4  1  0  0  0  0
  8 24  2  0  0  0  0
  9  8  1  6  0  0  0
  9 10  1  0  0  0  0
  9 13  1  0  0  0  0
 10 11  1  0  0  0  0
 11 12  1  0  0  0  0
 14 15  1  0  0  0  0
 14 35  1  0  0  0  0
 15 17  1  0  0  0  0
 16 18  1  6  0  0  0
 16 25  1  0  0  0  0
 19 20  1  6  0  0  0
 19 27  1  0  0  0  0
 21 22  1  0  0  0  0
 21 23  1  0  0  0  0
 23 17  1  0  0  0  0
 25 26  1  1  0  0  0
 25 28  1  0  0  0  0
 27  2  1  1  0  0  0
 27 30  1  0  0  0  0
 28 29  1  0  0  0  0
 28 32  1  6  0  0  0
 30 31  1  6  0  0  0
 30 34  1  0  0  0  0
 32 33  2  0  0  0  0
 34 35  1  1  0  0  0
M  END
>  <CHROM.1>
-62.33284224,73.32487226,103.15136231,44.78006959,66.61016607,60.50662389
-54.29546095,-171.85718285,-66.41336854,86.41677963,-102.02313109,-144.51019291
-170.39903299,9.53843675,12.58888577,8.31626718,0.76920361,0.28082040,0.56309816

>  <Name>
2f4t_lig

>  <RI>
0

>  <Rbt.Current_Directory>
/home/itssahil/PROJECTS/Mol_Feturizer/New_Systems/rnas/2f4t

>  <Rbt.Executable>
rbdock ($Id: //depot/dev/client3/rdock/2013.1/src/exe/rbdock.cxx#4 $)

>  <Rbt.Library>
libRbt.so (2013.1, Build901 2013/11/27)

>  <Rbt.Parameter_File>
/export/apps/rDock/src/rDock_2013.1_src/data/scripts/dock_solv.prm

>  <Rbt.Receptor>
prm/blind_docking_100.prm

>  <SCORE>
5.17207

>  <SCORE.INTER>
2.92029

>  <SCORE.INTER.CONST>
1

>  <SCORE.INTER.POLAR>
0

>  <SCORE.INTER.ROT>
13

>  <SCORE.INTER.SOLV>
15.7002

>  <SCORE.INTER.VDW>
-15.5532

>  <SCORE.INTER.norm>
0.0834368

>  <SCORE.INTRA>
-0.136609

>  <SCORE.INTRA.DIHEDRAL>
-12.3703

>  <SCORE.INTRA.DIHEDRAL.0>
23.8882

>  <SCORE.INTRA.POLAR>
0

>  <SCORE.INTRA.POLAR.0>
0

>  <SCORE.INTRA.REPUL>
0

>  <SCORE.INTRA.REPUL.0>
0

>  <SCORE.INTRA.SOLV>
12.046

>  <SCORE.INTRA.SOLV.lig_0>
-97.6888

>  <SCORE.INTRA.VDW>
0.0255553

>  <SCORE.INTRA.VDW.0>
-3.9206

>  <SCORE.INTRA.norm>
-0.00390312

>  <SCORE.RESTR>
2.38839

>  <SCORE.RESTR.CAVITY>
2.38839

>  <SCORE.RESTR.norm>
0.0682396

>  <SCORE.SYSTEM>
0

>  <SCORE.SYSTEM.CONST>
0

>  <SCORE.SYSTEM.DIHEDRAL>
0

>  <SCORE.SYSTEM.SOLV>
0

>  <SCORE.SYSTEM.norm>
0

>  <SCORE.heavy>
35

>  <SCORE.norm>
0.147773

>  <RMSD>
30.495

$$$$
2f4t_lig
 OpenBabel11021811433D
libRbt.so/2013.1/901 2013/11/27
 35 36  0  0  0  0  0  0  0  0999 V2000
   11.6299   15.2065   10.5501 C   0  0  2  0  0  0  0  0  0  0  0  0
   10.7785   15.5744    9.4157 O   0  0  0  0  0  0  0  0  0  0  0  0
    9.2016   11.7632    8.1330 C   0  0  2  0  0  0  0  0  0  0  0  0
    8.2640   10.7642    7.5985 N   0  0  0  0  0  0  0  0  0  0  0  0
   12.7848   16.2532   10.5725 C   0  0  2  0  0  0  0  0  0  0  0  0
   12.2556   17.5942   10.6559 N   0  0  0  0  0  0  0  0  0  0  0  0
    8.4915   12.5851    9.2703 C   0  0  0  0  0  0  0  0  0  0  0  0
    6.6364   11.4477    7.5505 C   0  0  0  0  0  0  0  0  0  0  0  0
    6.2095   10.1148    6.9766 C   0  0  1  0  0  0  0  0  0  0  0  0
    5.2579    9.4627    7.9822 C   0  0  0  0  0  0  0  0  0  0  0  0
    5.7570    9.4142    9.4360 C   0  0  0  0  0  0  0  0  0  0  0  0
    4.6605    8.9406   10.2861 N   0  0  0  0  0  0  0  0  0  0  0  0
    5.4641   10.2907    5.8002 O   0  0  0  0  0  0  0  0  0  0  0  0
   10.3860   11.2944    4.7672 C   0  0  0  0  0  0  0  0  0  0  0  0
    9.5496   10.0273    4.8588 C   0  0  0  0  0  0  0  0  0  0  0  0
   13.6816   16.0920    9.2989 C   0  0  1  0  0  0  0  0  0  0  0  0
   10.3549    8.7989    5.0351 N   0  0  0  0  0  0  0  0  0  0  0  0
   14.7397   17.0305    9.3020 O   0  0  0  0  0  0  0  0  0  0  0  0
    9.4163   13.6562    9.8652 C   0  0  2  0  0  0  0  0  0  0  0  0
    8.7227   14.4315   10.8889 N   0  0  0  0  0  0  0  0  0  0  0  0
   11.0245    6.6858    6.1831 C   0  0  0  0  0  0  0  0  0  0  0  0
   10.5990    5.4724    7.0710 N   0  0  0  0  0  0  0  0  0  0  0  0
    9.8876    7.7262    5.9583 C   0  0  0  0  0  0  0  0  0  0  0  0
    6.2105   12.3883    7.8206 O   0  0  0  0  0  0  0  0  0  0  0  0
   14.2268   14.6602    9.2798 C   0  0  2  0  0  0  0  0  0  0  0  0
   15.0616   14.4494    8.1526 O   0  0  0  0  0  0  0  0  0  0  0  0
    9.9034   14.5899    8.7855 C   0  0  2  0  0  0  0  0  0  0  0  0
   13.0485   13.6440    9.2774 C   0  0  2  0  0  0  0  0  0  0  0  0
   12.1895   13.8415   10.4196 O   0  0  0  0  0  0  0  0  0  0  0  0
   10.6498   13.7696    7.6475 C   0  0  2  0  0  0  0  0  0  0  0  0
   11.1111   14.7037    6.6259 O   0  0  0  0  0  0  0  0  0  0  0  0
   13.5266   12.2410    9.2886 C   0  0  0  0  0  0  0  0  0  0  0  0
   12.4664   11.4046    9.3334 N   0  0  0  0  0  0  0  0  0  0  0  0
    9.6471   12.7346    7.0289 C   0  0  1  0  0  0  0  0  0  0  0  0
   10.2639   12.0177    6.0073 O   0  0  0  0  0  0  0  0  0  0  0  0
  1  2  1  6  0  0  0
  1  5  1  0  0  0  0
  1 29  1  0  0  0  0
  3  4  1  6  0  0  0
  3  7  1  0  0  0  0
  3 34  1  0  0  0  0
  5  6  1  6  0  0  0
  5 16  1  0  0  0  0
  7 19  1  0  0  0  0
  8  4  1  0  0  0  0
  8 24  2  0  0  0  0
  9  8  1  1  0  0  0
  9 10  1  0  0  0  0
  9 13  1  0  0  0  0
 10 11  1  0  0  0  0
 11 12  1  0  0  0  0
 14 15  1  0  0  0  0
 14 35  1  0  0  0  0
 15 17  1  0  0  0  0
 16 18  1  1  0  0  0
 16 25  1  0  0  0  0
 19 20  1  1  0  0  0
 19 27  1  0  0  0  0
 21 22  1  0  0  0  0
 21 23  1  0  0  0  0
 23 17  1  0  0  0  0
 25 26  1  6  0  0  0
 25 28  1  0  0  0  0
 27  2  1  1  0  0  0
 27 30  1  0  0  0  0
 28 29  1  0  0  0  0
 28 32  1  1  0  0  0
 30 31  1  6  0  0  0
 30 34  1  0  0  0  0
 32 33  2  0  0  0  0
 34 35  1  6  0  0  0
M  END
>  <CHROM.1>
157.49236971,37.13904091,115.64395922,-49.95284790,172.03245883,-105.53543878
-63.93328813,140.15220289,-176.46394485,-168.89024045,34.18296077,177.86910288
93.14863538,10.12427922,12.33272004,8.18079429,0.87481901,0.19624092,0.53112216

>  <Name>
2f4t_lig

>  <RI>
0

>  <Rbt.Current_Directory>
/home/itssahil/PROJECTS/Mol_Feturizer/New_Systems/rnas/2f4t

>  <Rbt.Executable>
rbdock ($Id: //depot/dev/client3/rdock/2013.1/src/exe/rbdock.cxx#4 $)

>  <Rbt.Library>
libRbt.so (2013.1, Build901 2013/11/27)

>  <Rbt.Parameter_File>
/export/apps/rDock/src/rDock_2013.1_src/data/scripts/dock_solv.prm

>  <Rbt.Receptor>
prm/blind_docking_100.prm

>  <SCORE>
0.0404027

>  <SCORE.INTER>
-4.11373

>  <SCORE.INTER.CONST>
1

>  <SCORE.INTER.POLAR>
-1.37921

>  <SCORE.INTER.ROT>
13

>  <SCORE.INTER.SOLV>
19.9674

>  <SCORE.INTER.VDW>
-17.0676

>  <SCORE.INTER.norm>
-0.117535

>  <SCORE.INTRA>
1.2677

>  <SCORE.INTRA.DIHEDRAL>
-3.51967

>  <SCORE.INTRA.DIHEDRAL.0>
23.8882

>  <SCORE.INTRA.POLAR>
0

>  <SCORE.INTRA.POLAR.0>
0

>  <SCORE.INTRA.REPUL>
0

>  <SCORE.INTRA.REPUL.0>
0

>  <SCORE.INTRA.SOLV>
1.74176

>  <SCORE.INTRA.SOLV.lig_0>
-97.6888

>  <SCORE.INTRA.VDW>
2.15665

>  <SCORE.INTRA.VDW.0>
-3.9206

>  <SCORE.INTRA.norm>
0.03622

>  <SCORE.RESTR>
2.88643

>  <SCORE.RESTR.CAVITY>
2.88643

>  <SCORE.RESTR.norm>
0.0824696

>  <SCORE.SYSTEM>
0

>  <SCORE.SYSTEM.CONST>
0

>  <SCORE.SYSTEM.DIHEDRAL>
0

>  <SCORE.SYSTEM.SOLV>
0

>  <SCORE.SYSTEM.norm>
0

>  <SCORE.heavy>
35

>  <SCORE.norm>
0.00115436

>  <RMSD>
30.556

$$$$
2f4t_lig
 OpenBabel11021811433D
libRbt.so/2013.1/901 2013/11/27
 35 36  0  0  0  0  0  0  0  0999 V2000
   12.2696   15.9297    9.4907 C   0  0  2  0  0  0  0  0  0  0  0  0
   11.9756   14.5620    9.9268 O   0  0  0  0  0  0  0  0  0  0  0  0
    8.7832   11.6675    9.6300 C   0  0  2  0  0  0  0  0  0  0  0  0
    7.5469   11.0148    9.1736 N   0  0  0  0  0  0  0  0  0  0  0  0
   12.3241   15.8775    7.9338 C   0  0  2  0  0  0  0  0  0  0  0  0
   11.0908   15.3509    7.3980 N   0  0  0  0  0  0  0  0  0  0  0  0
    8.4767   13.1685    9.9858 C   0  0  0  0  0  0  0  0  0  0  0  0
    6.7029   12.0745    8.0407 C   0  0  0  0  0  0  0  0  0  0  0  0
    5.6691   10.9741    7.9481 C   0  0  1  0  0  0  0  0  0  0  0  0
    4.8983   10.9526    9.2700 C   0  0  0  0  0  0  0  0  0  0  0  0
    4.7006    9.5650    9.9029 C   0  0  0  0  0  0  0  0  0  0  0  0
    6.0090    8.9114   10.0030 N   0  0  0  0  0  0  0  0  0  0  0  0
    4.7200   11.2596    6.9542 O   0  0  0  0  0  0  0  0  0  0  0  0
   10.5716    8.9497    8.3660 C   0  0  0  0  0  0  0  0  0  0  0  0
   10.3212    8.1865    7.0744 C   0  0  0  0  0  0  0  0  0  0  0  0
   13.5428   15.0119    7.4669 C   0  0  1  0  0  0  0  0  0  0  0  0
   10.4892    9.0116    5.8580 N   0  0  0  0  0  0  0  0  0  0  0  0
   13.6132   14.9556    6.0555 O   0  0  0  0  0  0  0  0  0  0  0  0
    9.7329   13.9122   10.4607 C   0  0  2  0  0  0  0  0  0  0  0  0
    9.4319   15.3116   10.7456 N   0  0  0  0  0  0  0  0  0  0  0  0
   12.9830    8.9009    5.8343 C   0  0  0  0  0  0  0  0  0  0  0  0
   14.3392    9.6582    5.6640 N   0  0  0  0  0  0  0  0  0  0  0  0
   11.7315    9.8122    5.6649 C   0  0  0  0  0  0  0  0  0  0  0  0
    6.8914   13.0460    7.6411 O   0  0  0  0  0  0  0  0  0  0  0  0
   14.8170   15.6324    8.0491 C   0  0  2  0  0  0  0  0  0  0  0  0
   15.9654   14.9005    7.6525 O   0  0  0  0  0  0  0  0  0  0  0  0
   10.8134   13.8445    9.4105 C   0  0  2  0  0  0  0  0  0  0  0  0
   14.7195   15.6861    9.6011 C   0  0  2  0  0  0  0  0  0  0  0  0
   13.5577   16.4300   10.0235 O   0  0  0  0  0  0  0  0  0  0  0  0
   11.1506   12.3298    9.0684 C   0  0  2  0  0  0  0  0  0  0  0  0
   12.2012   12.3035    8.0562 O   0  0  0  0  0  0  0  0  0  0  0  0
   15.9196   16.3067   10.2107 C   0  0  0  0  0  0  0  0  0  0  0  0
   16.8245   15.3463   10.5013 N   0  0  0  0  0  0  0  0  0  0  0  0
    9.8541   11.6319    8.5286 C   0  0  1  0  0  0  0  0  0  0  0  0
   10.1239   10.3082    8.1925 O   0  0  0  0  0  0  0  0  0  0  0  0
  1  2  1  1  0  0  0
  1  5  1  0  0  0  0
  1 29  1  0  0  0  0
  3  4  1  6  0  0  0
  3  7  1  0  0  0  0
  3 34  1  0  0  0  0
  5  6  1  1  0  0  0
  5 16  1  0  0  0  0
  7 19  1  0  0  0  0
  8  4  1  0  0  0  0
  8 24  2  0  0  0  0
  9  8  1  1  0  0  0
  9 10  1  0  0  0  0
  9 13  1  0  0  0  0
 10 11  1  0  0  0  0
 11 12  1  0  0  0  0
 14 15  1  0  0  0  0
 14 35  1  0  0  0  0
 15 17  1  0  0  0  0
 16 18  1  6  0  0  0
 16 25  1  0  0  0  0
 19 20  1  6  0  0  0
 19 27  1  0  0  0  0
 21 22  1  0  0  0  0
 21 23  1  0  0  0  0
 23 17  1  0  0  0  0
 25 26  1  1  0  0  0
 25 28  1  0  0  0  0
 27  2  1  1  0  0  0
 27 30  1  0  0  0  0
 28 29  1  0  0  0  0
 28 32  1  1  0  0  0
 30 31  1  6  0  0  0
 30 34  1  0  0  0  0
 32 33  2  0  0  0  0
 34 35  1  1  0  0  0
M  END
>  <CHROM.1>
-54.29425584,44.81977354,71.57977781,-133.21089589,52.47864554,34.32412644
178.38637357,51.22778236,-179.38313190,52.47992118,-100.85894504,-91.53964833
-64.06198008,10.71467938,12.64499635,8.42711181,0.50330357,0.25579539,0.49287048

>  <Name>
2f4t_lig

>  <RI>
0

>  <Rbt.Current_Directory>
/home/itssahil/PROJECTS/Mol_Feturizer/New_Systems/rnas/2f4t

>  <Rbt.Executable>
rbdock ($Id: //depot/dev/client3/rdock/2013.1/src/exe/rbdock.cxx#4 $)

>  <Rbt.Library>
libRbt.so (2013.1, Build901 2013/11/27)

>  <Rbt.Parameter_File>
/export/apps/rDock/src/rDock_2013.1_src/data/scripts/dock_solv.prm

>  <Rbt.Receptor>
prm/blind_docking_100.prm

>  <SCORE>
14.2807

>  <SCORE.INTER>
4.90925

>  <SCORE.INTER.CONST>
1

>  <SCORE.INTER.POLAR>
0

>  <SCORE.INTER.ROT>
13

>  <SCORE.INTER.SOLV>
13.3895

>  <SCORE.INTER.VDW>
-13.457

>  <SCORE.INTER.norm>
0.140264

>  <SCORE.INTRA>
4.36993

>  <SCORE.INTRA.DIHEDRAL>
-8.74885

>  <SCORE.INTRA.DIHEDRAL.0>
23.8882

>  <SCORE.INTRA.POLAR>
0

>  <SCORE.INTRA.POLAR.0>
0

>  <SCORE.INTRA.REPUL>
0

>  <SCORE.INTRA.REPUL.0>
0

>  <SCORE.INTRA.SOLV>
8.16942

>  <SCORE.INTRA.SOLV.lig_0>
-97.6888

>  <SCORE.INTRA.VDW>
4.65965

>  <SCORE.INTRA.VDW.0>
-3.9206

>  <SCORE.INTRA.norm>
0.124855

>  <SCORE.RESTR>
5.00152

>  <SCORE.RESTR.CAVITY>
5.00152

>  <SCORE.RESTR.norm>
0.142901

>  <SCORE.SYSTEM>
0

>  <SCORE.SYSTEM.CONST>
0

>  <SCORE.SYSTEM.DIHEDRAL>
0

>  <SCORE.SYSTEM.SOLV>
0

>  <SCORE.SYSTEM.norm>
0

>  <SCORE.heavy>
35

>  <SCORE.norm>
0.40802

>  <RMSD>
30.720

$$$$
2f4t_lig
 OpenBabel11021811433D
libRbt.so/2013.1/901 2013/11/27
 35 36  0  0  0  0  0  0  0  0999 V2000
   10.8836    7.7401    6.7805 C   0  0  2  0  0  0  0  0  0  0  0  0
   11.0938    8.5506    5.5780 O   0  0  0  0  0  0  0  0  0  0  0  0
   12.7529   12.1931    7.2018 C   0  0  2  0  0  0  0  0  0  0  0  0
   13.5498   13.4250    7.3015 N   0  0  0  0  0  0  0  0  0  0  0  0
    9.3503    7.4679    6.8477 C   0  0  2  0  0  0  0  0  0  0  0  0
    8.8916    6.8339    5.6341 N   0  0  0  0  0  0  0  0  0  0  0  0
   13.6890   11.0022    6.7786 C   0  0  0  0  0  0  0  0  0  0  0  0
   13.4072   14.0907    8.9310 C   0  0  0  0  0  0  0  0  0  0  0  0
   14.3349   15.1842    8.4498 C   0  0  1  0  0  0  0  0  0  0  0  0
   13.4879   16.2062    7.6882 C   0  0  0  0  0  0  0  0  0  0  0  0
   12.1911   16.6487    8.3866 C   0  0  0  0  0  0  0  0  0  0  0  0
   12.5434   17.5460    9.4911 N   0  0  0  0  0  0  0  0  0  0  0  0
   14.8950   15.8797    9.5327 O   0  0  0  0  0  0  0  0  0  0  0  0
    9.9681   14.2207    7.3351 C   0  0  0  0  0  0  0  0  0  0  0  0
    8.8760   13.3390    7.9212 C   0  0  0  0  0  0  0  0  0  0  0  0
    8.5768    8.8065    7.0975 C   0  0  1  0  0  0  0  0  0  0  0  0
    7.9881   14.0486    8.8682 N   0  0  0  0  0  0  0  0  0  0  0  0
    7.1823    8.5806    7.1666 O   0  0  0  0  0  0  0  0  0  0  0  0
   12.9136    9.6840    6.6459 C   0  0  2  0  0  0  0  0  0  0  0  0
   13.7949    8.6039    6.2135 N   0  0  0  0  0  0  0  0  0  0  0  0
    6.1772   12.3674    8.5141 C   0  0  0  0  0  0  0  0  0  0  0  0
    4.9247   11.6335    9.0925 N   0  0  0  0  0  0  0  0  0  0  0  0
    6.8707   13.3197    9.5326 C   0  0  0  0  0  0  0  0  0  0  0  0
   12.8836   13.8019    9.8151 O   0  0  0  0  0  0  0  0  0  0  0  0
    9.0928    9.4166    8.4049 C   0  0  2  0  0  0  0  0  0  0  0  0
    8.4216   10.6311    8.6984 O   0  0  0  0  0  0  0  0  0  0  0  0
   11.7902    9.8319    5.6504 C   0  0  2  0  0  0  0  0  0  0  0  0
   10.6272    9.6563    8.3090 C   0  0  2  0  0  0  0  0  0  0  0  0
   11.3274    8.4299    8.0137 O   0  0  0  0  0  0  0  0  0  0  0  0
   10.8223   11.0135    6.0882 C   0  0  2  0  0  0  0  0  0  0  0  0
    9.7473   11.1229    5.1077 O   0  0  0  0  0  0  0  0  0  0  0  0
   11.1795   10.2200    9.5636 C   0  0  0  0  0  0  0  0  0  0  0  0
   12.4977   10.4693    9.4030 N   0  0  0  0  0  0  0  0  0  0  0  0
   11.6456   12.3469    6.1475 C   0  0  1  0  0  0  0  0  0  0  0  0
   10.8180   13.4087    6.5017 O   0  0  0  0  0  0  0  0  0  0  0  0
  1  2  1  6  0  0  0
  1  5  1  0  0  0  0
  1 29  1  0  0  0  0
  3  4  1  6  0  0  0
  3  7  1  0  0  0  0
  3 34  1  0  0  0  0
  5  6  1  6  0  0  0
  5 16  1  0  0  0  0
  7 19  1  0  0  0  0
  8  4  1  0  0  0  0
  8 24  2  0  0  0  0
  9  8  1  1  0  0  0
  9 10  1  0  0  0  0
  9 13  1  0  0  0  0
 10 11  1  0  0  0  0
 11 12  1  0  0  0  0
 14 15  1  0  0  0  0
 14 35  1  0  0  0  0
 15 17  1  0  0  0  0
 16 18  1  1  0  0  0
 16 25  1  0  0  0  0
 19 20  1  6  0  0  0
 19 27  1  0  0  0  0
 21 22  1  0  0  0  0
 21 23  1  0  0  0  0
 23 17  1  0  0  0  0
 25 26  1  6  0  0  0
 25 28  1  0  0  0  0
 27  2  1  1  0  0  0
 27 30  1  0  0  0  0
 28 29  1  0  0  0  0
 28 32  1  1  0  0  0
 30 31  1  6  0  0  0
 30 34  1  0  0  0  0
 32 33  2  0  0  0  0
 34 35  1  1  0  0  0
M  END
>  <CHROM.1>
125.55664066,-121.99576424,81.44937833,47.17727530,73.99749771,176.29365326
-52.80941386,-179.74810489,-175.85356695,-40.82748789,38.09354350,-176.99245533
-51.02889553,10.81438333,11.66117953,7.67778251,-2.10521146,0.15750317,0.32478564

>  <Name>
2f4t_lig

>  <RI>
0

>  <Rbt.Current_Directory>
/home/itssahil/PROJECTS/Mol_Feturizer/New_Systems/rnas/2f4t

>  <Rbt.Executable>
rbdock ($Id: //depot/dev/client3/rdock/2013.1/src/exe/rbdock.cxx#4 $)

>  <Rbt.Library>
libRbt.so (2013.1, Build901 2013/11/27)

>  <Rbt.Parameter_File>
/export/apps/rDock/src/rDock_2013.1_src/data/scripts/dock_solv.prm

>  <Rbt.Receptor>
prm/blind_docking_100.prm

>  <SCORE>
15.3344

>  <SCORE.INTER>
2.92283

>  <SCORE.INTER.CONST>
1

>  <SCORE.INTER.POLAR>
-0.598081

>  <SCORE.INTER.ROT>
13

>  <SCORE.INTER.SOLV>
11.6825

>  <SCORE.INTER.VDW>
-12.2187

>  <SCORE.INTER.norm>
0.0835094

>  <SCORE.INTRA>
8.05746

>  <SCORE.INTRA.DIHEDRAL>
-8.07065

>  <SCORE.INTRA.DIHEDRAL.0>
23.8882

>  <SCORE.INTRA.POLAR>
0

>  <SCORE.INTRA.POLAR.0>
0

>  <SCORE.INTRA.REPUL>
0

>  <SCORE.INTRA.REPUL.0>
0

>  <SCORE.INTRA.SOLV>
7.74742

>  <SCORE.INTRA.SOLV.lig_0>
-97.6888

>  <SCORE.INTRA.VDW>
8.21907

>  <SCORE.INTRA.VDW.0>
-3.9206

>  <SCORE.INTRA.norm>
0.230213

>  <SCORE.RESTR>
4.35414

>  <SCORE.RESTR.CAVITY>
4.35414

>  <SCORE.RESTR.norm>
0.124404

>  <SCORE.SYSTEM>
0

>  <SCORE.SYSTEM.CONST>
0

>  <SCORE.SYSTEM.DIHEDRAL>
0

>  <SCORE.SYSTEM.SOLV>
0

>  <SCORE.SYSTEM.norm>
0

>  <SCORE.heavy>
35

>  <SCORE.norm>
0.438126

>  <RMSD>
30.731

$$$$
2f4t_lig
 OpenBabel11021811433D
libRbt.so/2013.1/901 2013/11/27
 35 36  0  0  0  0  0  0  0  0999 V2000
   12.1005    9.0565    7.4444 C   0  0  2  0  0  0  0  0  0  0  0  0
   12.4603   10.4235    7.0581 O   0  0  0  0  0  0  0  0  0  0  0  0
   11.1204   14.4924    7.6112 C   0  0  2  0  0  0  0  0  0  0  0  0
   10.2272   15.6292    7.8804 N   0  0  0  0  0  0  0  0  0  0  0  0
   10.8821    8.6690    6.5528 C   0  0  2  0  0  0  0  0  0  0  0  0
   11.2098    8.8085    5.1533 N   0  0  0  0  0  0  0  0  0  0  0  0
   10.4772   13.5777    6.5052 C   0  0  0  0  0  0  0  0  0  0  0  0
    8.8926   15.1012    8.9094 C   0  0  0  0  0  0  0  0  0  0  0  0
    8.4111   16.5334    8.8366 C   0  0  1  0  0  0  0  0  0  0  0  0
    7.1678   16.5576    7.9447 C   0  0  0  0  0  0  0  0  0  0  0  0
    7.3894   16.1373    6.4820 C   0  0  0  0  0  0  0  0  0  0  0  0
    6.3127   16.7093    5.6680 N   0  0  0  0  0  0  0  0  0  0  0  0
    7.9893   16.9856   10.0966 O   0  0  0  0  0  0  0  0  0  0  0  0
   11.9993   15.5628   10.7911 C   0  0  0  0  0  0  0  0  0  0  0  0
   12.5635   16.7593   10.0403 C   0  0  0  0  0  0  0  0  0  0  0  0
    9.6435    9.5539    6.9205 C   0  0  1  0  0  0  0  0  0  0  0  0
   13.6097   16.4009    9.0576 N   0  0  0  0  0  0  0  0  0  0  0  0
    8.5242    9.2145    6.1252 O   0  0  0  0  0  0  0  0  0  0  0  0
   11.3582   12.3622    6.1842 C   0  0  2  0  0  0  0  0  0  0  0  0
   10.7220   11.5083    5.1861 N   0  0  0  0  0  0  0  0  0  0  0  0
   15.6746   15.1157    8.4956 C   0  0  0  0  0  0  0  0  0  0  0  0
   15.0325   13.6928    8.4246 N   0  0  0  0  0  0  0  0  0  0  0  0
   14.9852   16.0631    9.5215 C   0  0  0  0  0  0  0  0  0  0  0  0
    8.6096   14.1718    9.3514 O   0  0  0  0  0  0  0  0  0  0  0  0
    9.3355    9.3459    8.4070 C   0  0  2  0  0  0  0  0  0  0  0  0
    8.2108   10.1130    8.8049 O   0  0  0  0  0  0  0  0  0  0  0  0
   11.6157   11.5545    7.4317 C   0  0  2  0  0  0  0  0  0  0  0  0
   10.5781    9.7235    9.2640 C   0  0  2  0  0  0  0  0  0  0  0  0
   11.7322    8.9501    8.8749 O   0  0  0  0  0  0  0  0  0  0  0  0
   12.2944   12.4648    8.5433 C   0  0  2  0  0  0  0  0  0  0  0  0
   12.5336   11.6505    9.7303 O   0  0  0  0  0  0  0  0  0  0  0  0
   10.3385    9.5109   10.7112 C   0  0  0  0  0  0  0  0  0  0  0  0
   10.4390   10.6907   11.3621 N   0  0  0  0  0  0  0  0  0  0  0  0
   11.3302   13.6543    8.8819 C   0  0  1  0  0  0  0  0  0  0  0  0
   11.8849   14.4564    9.8752 O   0  0  0  0  0  0  0  0  0  0  0  0
  1  2  1  6  0  0  0
  1  5  1  0  0  0  0
  1 29  1  0  0  0  0
  3  4  1  1  0  0  0
  3  7  1  0  0  0  0
  3 34  1  0  0  0  0
  5  6  1  6  0  0  0
  5 16  1  0  0  0  0
  7 19  1  0  0  0  0
  8  4  1  0  0  0  0
  8 24  2  0  0  0  0
  9  8  1  1  0  0  0
  9 10  1  0  0  0  0
  9 13  1  0  0  0  0
 10 11  1  0  0  0  0
 11 12  1  0  0  0  0
 14 15  1  0  0  0  0
 14 35  1  0  0  0  0
 15 17  1  0  0  0  0
 16 18  1  6  0  0  0
 16 25  1  0  0  0  0
 19 20  1  6  0  0  0
 19 27  1  0  0  0  0
 21 22  1  0  0  0  0
 21 23  1  0  0  0  0
 23 17  1  0  0  0  0
 25 26  1  1  0  0  0
 25 28  1  0  0  0  0
 27  2  1  6  0  0  0
 27 30  1  0  0  0  0
 28 29  1  0  0  0  0
 28 32  1  1  0  0  0
 30 31  1  1  0  0  0
 30 34  1  0  0  0  0
 32 33  2  0  0  0  0
 34 35  1  1  0  0  0
M  END
>  <CHROM.1>
72.13168696,78.09225880,107.81535653,-63.06225808,-157.43283454,-38.48211057
-82.25132733,-76.17532411,-67.86228916,153.33294957,-129.52453824,-118.11258110
57.63842890,10.78128371,12.88996437,8.24998946,-1.51310726,-0.28777643,0.19266648

>  <Name>
2f4t_lig

>  <RI>
0

>  <Rbt.Current_Directory>
/home/itssahil/PROJECTS/Mol_Feturizer/New_Systems/rnas/2f4t

>  <Rbt.Executable>
rbdock ($Id: //depot/dev/client3/rdock/2013.1/src/exe/rbdock.cxx#4 $)

>  <Rbt.Library>
libRbt.so (2013.1, Build901 2013/11/27)

>  <Rbt.Parameter_File>
/export/apps/rDock/src/rDock_2013.1_src/data/scripts/dock_solv.prm

>  <Rbt.Receptor>
prm/blind_docking_100.prm

>  <SCORE>
6.82032

>  <SCORE.INTER>
1.41727

>  <SCORE.INTER.CONST>
1

>  <SCORE.INTER.POLAR>
-0.916515

>  <SCORE.INTER.ROT>
13

>  <SCORE.INTER.SOLV>
14.935

>  <SCORE.INTER.VDW>
-13.2451

>  <SCORE.INTER.norm>
0.0404935

>  <SCORE.INTRA>
2.63307

>  <SCORE.INTRA.DIHEDRAL>
-6.63784

>  <SCORE.INTRA.DIHEDRAL.0>
23.8882

>  <SCORE.INTRA.POLAR>
0

>  <SCORE.INTRA.POLAR.0>
0

>  <SCORE.INTRA.REPUL>
0

>  <SCORE.INTRA.REPUL.0>
0

>  <SCORE.INTRA.SOLV>
13.375

>  <SCORE.INTRA.SOLV.lig_0>
-97.6888

>  <SCORE.INTRA.VDW>
-0.735487

>  <SCORE.INTRA.VDW.0>
-3.9206

>  <SCORE.INTRA.norm>
0.0752305

>  <SCORE.RESTR>
2.76998

>  <SCORE.RESTR.CAVITY>
2.76998

>  <SCORE.RESTR.norm>
0.0791424

>  <SCORE.SYSTEM>
0

>  <SCORE.SYSTEM.CONST>
0

>  <SCORE.SYSTEM.DIHEDRAL>
0

>  <SCORE.SYSTEM.SOLV>
0

>  <SCORE.SYSTEM.norm>
0

>  <SCORE.heavy>
35

>  <SCORE.norm>
0.194866

>  <RMSD>
31.055

$$$$
2f4t_lig
 OpenBabel11021811433D
libRbt.so/2013.1/901 2013/11/27
 35 36  0  0  0  0  0  0  0  0999 V2000
    4.6284    6.0701   -3.8839 C   0  0  2  0  0  0  0  0  0  0  0  0
    4.9102    7.2855   -3.1155 O   0  0  0  0  0  0  0  0  0  0  0  0
    4.5048   11.5447   -3.7090 C   0  0  2  0  0  0  0  0  0  0  0  0
    3.9883   12.8280   -4.2080 N   0  0  0  0  0  0  0  0  0  0  0  0
    3.9020    5.1035   -2.9002 C   0  0  2  0  0  0  0  0  0  0  0  0
    2.7218    5.7282   -2.3503 N   0  0  0  0  0  0  0  0  0  0  0  0
    4.7756   10.5858   -4.9258 C   0  0  0  0  0  0  0  0  0  0  0  0
    4.9865   14.1472   -3.5898 C   0  0  0  0  0  0  0  0  0  0  0  0
    4.0671   15.0638   -4.3663 C   0  0  1  0  0  0  0  0  0  0  0  0
    4.1796   16.4602   -3.7504 C   0  0  0  0  0  0  0  0  0  0  0  0
    3.4681   17.5861   -4.5192 C   0  0  0  0  0  0  0  0  0  0  0  0
    3.8374   18.8674   -3.9101 N   0  0  0  0  0  0  0  0  0  0  0  0
    4.4956   15.1946   -5.6965 O   0  0  0  0  0  0  0  0  0  0  0  0
    3.5021   12.6084   -0.5973 C   0  0  0  0  0  0  0  0  0  0  0  0
    4.0211   11.7843    0.5711 C   0  0  0  0  0  0  0  0  0  0  0  0
    4.8785    4.6659   -1.7567 C   0  0  1  0  0  0  0  0  0  0  0  0
    2.9924   11.4966    1.5947 N   0  0  0  0  0  0  0  0  0  0  0  0
    4.2395    3.7836   -0.8547 O   0  0  0  0  0  0  0  0  0  0  0  0
    5.3083    9.2200   -4.4707 C   0  0  2  0  0  0  0  0  0  0  0  0
    5.5129    8.3349   -5.6131 N   0  0  0  0  0  0  0  0  0  0  0  0
    2.2482   11.1009    3.9444 C   0  0  0  0  0  0  0  0  0  0  0  0
    2.5184    9.5625    3.9912 N   0  0  0  0  0  0  0  0  0  0  0  0
    3.2258   11.8803    3.0159 C   0  0  0  0  0  0  0  0  0  0  0  0
    5.8427   14.2050   -2.9552 O   0  0  0  0  0  0  0  0  0  0  0  0
    6.0951    3.9943   -2.4020 C   0  0  2  0  0  0  0  0  0  0  0  0
    7.0182    3.5605   -1.4164 O   0  0  0  0  0  0  0  0  0  0  0  0
    4.3420    8.5709   -3.5115 C   0  0  2  0  0  0  0  0  0  0  0  0
    6.7828    4.9798   -3.3904 C   0  0  2  0  0  0  0  0  0  0  0  0
    5.8588    5.4297   -4.4030 O   0  0  0  0  0  0  0  0  0  0  0  0
    4.0876    9.5211   -2.2635 C   0  0  2  0  0  0  0  0  0  0  0  0
    3.1553    8.8597   -1.3566 O   0  0  0  0  0  0  0  0  0  0  0  0
    7.9512    4.3644   -4.0635 C   0  0  0  0  0  0  0  0  0  0  0  0
    8.8215    3.9150   -3.1327 N   0  0  0  0  0  0  0  0  0  0  0  0
    3.4855   10.8764   -2.7733 C   0  0  1  0  0  0  0  0  0  0  0  0
    3.2245   11.7220   -1.6988 O   0  0  0  0  0  0  0  0  0  0  0  0
  1  2  1  1  0  0  0
  1  5  1  0  0  0  0
  1 29  1  0  0  0  0
  3  4  1  6  0  0  0
  3  7  1  0  0  0  0
  3 34  1  0  0  0  0
  5  6  1  1  0  0  0
  5 16  1  0  0  0  0
  7 19  1  0  0  0  0
  8  4  1  0  0  0  0
  8 24  2  0  0  0  0
  9  8  1  1  0  0  0
  9 10  1  0  0  0  0
  9 13  1  0  0  0  0
 10 11  1  0  0  0  0
 11 12  1  0  0  0  0
 14 15  1  0  0  0  0
 14 35  1  0  0  0  0
 15 17  1  0  0  0  0
 16 18  1  1  0  0  0
 16 25  1  0  0  0  0
 19 20  1  6  0  0  0
 19 27  1  0  0  0  0
 21 22  1  0  0  0  0
 21 23  1  0  0  0  0
 23 17  1  0  0  0  0
 25 26  1  1  0  0  0
 25 28  1  0  0  0  0
 27  2  1  1  0  0  0
 27 30  1  0  0  0  0
 28 29  1  0  0  0  0
 28 32  1  6  0  0  0
 30 31  1  1  0  0  0
 30 34  1  0  0  0  0
 32 33  2  0  0  0  0
 34 35  1  1  0  0  0
M  END
>  <CHROM.1>
-118.62723150,-125.66049729,158.57765069,171.88017281,-171.79801261,-99.78371890
-74.12125337,-124.22454784,67.08878132,-162.37503801,-89.42120591,-56.07538236
-47.93396878,4.55587269,9.73720547,-2.39588307,-1.09289168,1.18140008,-0.48541217

>  <Name>
2f4t_lig

>  <RI>
0

>  <Rbt.Current_Directory>
/home/itssahil/PROJECTS/Mol_Feturizer/New_Systems/rnas/2f4t

>  <Rbt.Executable>
rbdock ($Id: //depot/dev/client3/rdock/2013.1/src/exe/rbdock.cxx#4 $)

>  <Rbt.Library>
libRbt.so (2013.1, Build901 2013/11/27)

>  <Rbt.Parameter_File>
/export/apps/rDock/src/rDock_2013.1_src/data/scripts/dock_solv.prm

>  <Rbt.Receptor>
prm/blind_docking_20.prm

>  <SCORE>
13.0366

>  <SCORE.INTER>
4.74156

>  <SCORE.INTER.CONST>
1

>  <SCORE.INTER.POLAR>
-0.220382

>  <SCORE.INTER.ROT>
13

>  <SCORE.INTER.SOLV>
23.3758

>  <SCORE.INTER.VDW>
-16.1629

>  <SCORE.INTER.norm>
0.135473

>  <SCORE.INTRA>
1.37874

>  <SCORE.INTRA.DIHEDRAL>
-1.05007

>  <SCORE.INTRA.DIHEDRAL.0>
23.8882

>  <SCORE.INTRA.POLAR>
0

>  <SCORE.INTRA.POLAR.0>
0

>  <SCORE.INTRA.REPUL>
0

>  <SCORE.INTRA.REPUL.0>
0

>  <SCORE.INTRA.SOLV>
3.10678

>  <SCORE.INTRA.SOLV.lig_0>
-97.6888

>  <SCORE.INTRA.VDW>
0.350381

>  <SCORE.INTRA.VDW.0>
-3.9206

>  <SCORE.INTRA.norm>
0.0393925

>  <SCORE.RESTR>
6.9163

>  <SCORE.RESTR.CAVITY>
6.9163

>  <SCORE.RESTR.norm>
0.197609

>  <SCORE.SYSTEM>
0

>  <SCORE.SYSTEM.CONST>
0

>  <SCORE.SYSTEM.DIHEDRAL>
0

>  <SCORE.SYSTEM.SOLV>
0

>  <SCORE.SYSTEM.norm>
0

>  <SCORE.heavy>
35

>  <SCORE.norm>
0.372474

>  <RMSD>
36.995

$$$$
2f4t_lig
 OpenBabel11021811433D
libRbt.so/2013.1/901 2013/11/27
 35 36  0  0  0  0  0  0  0  0999 V2000
    4.9391    5.8793   -4.7480 C   0  0  2  0  0  0  0  0  0  0  0  0
    5.4934    7.2232   -4.9321 O   0  0  0  0  0  0  0  0  0  0  0  0
    4.3138   11.3708   -4.6808 C   0  0  2  0  0  0  0  0  0  0  0  0
    3.4635   12.5583   -4.5088 N   0  0  0  0  0  0  0  0  0  0  0  0
    4.5333    5.7884   -3.2458 C   0  0  2  0  0  0  0  0  0  0  0  0
    3.6132    6.8468   -2.9015 N   0  0  0  0  0  0  0  0  0  0  0  0
    3.6570   10.4111   -5.7396 C   0  0  0  0  0  0  0  0  0  0  0  0
    4.4785   13.9767   -4.2321 C   0  0  0  0  0  0  0  0  0  0  0  0
    3.1838   14.7553   -4.1557 C   0  0  1  0  0  0  0  0  0  0  0  0
    3.5417   16.2236   -3.9152 C   0  0  0  0  0  0  0  0  0  0  0  0
    4.5020   16.4916   -2.7442 C   0  0  0  0  0  0  0  0  0  0  0  0
    3.8731   16.0103   -1.5106 N   0  0  0  0  0  0  0  0  0  0  0  0
    2.5046   14.7213   -5.3836 O   0  0  0  0  0  0  0  0  0  0  0  0
    5.1780   12.6232   -1.5715 C   0  0  0  0  0  0  0  0  0  0  0  0
    3.8253   12.9699   -0.9687 C   0  0  0  0  0  0  0  0  0  0  0  0
    5.8088    5.8493   -2.3394 C   0  0  1  0  0  0  0  0  0  0  0  0
    3.1956   11.8450   -0.2430 N   0  0  0  0  0  0  0  0  0  0  0  0
    5.4625    5.7634   -0.9708 O   0  0  0  0  0  0  0  0  0  0  0  0
    4.4929    9.1423   -5.9583 C   0  0  2  0  0  0  0  0  0  0  0  0
    3.8433    8.2501   -6.9133 N   0  0  0  0  0  0  0  0  0  0  0  0
    2.8767   10.8008    2.0019 C   0  0  0  0  0  0  0  0  0  0  0  0
    2.4287   10.9784    3.4884 N   0  0  0  0  0  0  0  0  0  0  0  0
    2.6284   12.0591    1.1185 C   0  0  0  0  0  0  0  0  0  0  0  0
    5.5304   14.1430   -4.1617 O   0  0  0  0  0  0  0  0  0  0  0  0
    6.7313    4.6929   -2.7388 C   0  0  2  0  0  0  0  0  0  0  0  0
    7.9059    4.6822   -1.9439 O   0  0  0  0  0  0  0  0  0  0  0  0
    4.6891    8.4098   -4.6545 C   0  0  2  0  0  0  0  0  0  0  0  0
    7.0996    4.8048   -4.2464 C   0  0  2  0  0  0  0  0  0  0  0  0
    5.9160    4.8141   -5.0714 O   0  0  0  0  0  0  0  0  0  0  0  0
    5.3812    9.3641   -3.5889 C   0  0  2  0  0  0  0  0  0  0  0  0
    5.5601    8.6218   -2.3455 O   0  0  0  0  0  0  0  0  0  0  0  0
    7.9695    3.6892   -4.6887 C   0  0  0  0  0  0  0  0  0  0  0  0
    7.7417    3.4316   -5.9954 N   0  0  0  0  0  0  0  0  0  0  0  0
    4.4606   10.6115   -3.3530 C   0  0  1  0  0  0  0  0  0  0  0  0
    5.0268   11.4550   -2.4013 O   0  0  0  0  0  0  0  0  0  0  0  0
  1  2  1  1  0  0  0
  1  5  1  0  0  0  0
  1 29  1  0  0  0  0
  3  4  1  1  0  0  0
  3  7  1  0  0  0  0
  3 34  1  0  0  0  0
  5  6  1  1  0  0  0
  5 16  1  0  0  0  0
  7 19  1  0  0  0  0
  8  4  1  0  0  0  0
  8 24  2  0  0  0  0
  9  8  1  6  0  0  0
  9 10  1  0  0  0  0
  9 13  1  0  0  0  0
 10 11  1  0  0  0  0
 11 12  1  0  0  0  0
 14 15  1  0  0  0  0
 14 35  1  0  0  0  0
 15 17  1  0  0  0  0
 16 18  1  1  0  0  0
 16 25  1  0  0  0  0
 19 20  1  6  0  0  0
 19 27  1  0  0  0  0
 21 22  1  0  0  0  0
 21 23  1  0  0  0  0
 23 17  1  0  0  0  0
 25 26  1  1  0  0  0
 25 28  1  0  0  0  0
 27  2  1  6  0  0  0
 27 30  1  0  0  0  0
 28 29  1  0  0  0  0
 28 32  1  6  0  0  0
 30 31  1  1  0  0  0
 30 34  1  0  0  0  0
 32 33  2  0  0  0  0
 34 35  1  1  0  0  0
M  END
>  <CHROM.1>
-59.47418665,-144.61157036,-179.31467478,-51.34339516,-60.61286593,54.33292213
45.19353855,132.21577162,174.87545129,-143.48012159,-115.31231063,150.19344426
55.58034432,4.74802134,9.75286152,-3.13189158,-0.31118740,1.27446958,-1.07744674

>  <Name>
2f4t_lig

>  <RI>
0

>  <Rbt.Current_Directory>
/home/itssahil/PROJECTS/Mol_Feturizer/New_Systems/rnas/2f4t

>  <Rbt.Executable>
rbdock ($Id: //depot/dev/client3/rdock/2013.1/src/exe/rbdock.cxx#4 $)

>  <Rbt.Library>
libRbt.so (2013.1, Build901 2013/11/27)

>  <Rbt.Parameter_File>
/export/apps/rDock/src/rDock_2013.1_src/data/scripts/dock_solv.prm

>  <Rbt.Receptor>
prm/blind_docking_20.prm

>  <SCORE>
7.66754

>  <SCORE.INTER>
-0.775902

>  <SCORE.INTER.CONST>
1

>  <SCORE.INTER.POLAR>
-1.10843

>  <SCORE.INTER.ROT>
13

>  <SCORE.INTER.SOLV>
19.4342

>  <SCORE.INTER.VDW>
-15.5673

>  <SCORE.INTER.norm>
-0.0221686

>  <SCORE.INTRA>
1.08914

>  <SCORE.INTRA.DIHEDRAL>
-10.4679

>  <SCORE.INTRA.DIHEDRAL.0>
23.8882

>  <SCORE.INTRA.POLAR>
0

>  <SCORE.INTRA.POLAR.0>
0

>  <SCORE.INTRA.REPUL>
0

>  <SCORE.INTRA.REPUL.0>
0

>  <SCORE.INTRA.SOLV>
8.4222

>  <SCORE.INTRA.SOLV.lig_0>
-97.6888

>  <SCORE.INTRA.VDW>
2.11199

>  <SCORE.INTRA.VDW.0>
-3.9206

>  <SCORE.INTRA.norm>
0.0311183

>  <SCORE.RESTR>
7.3543

>  <SCORE.RESTR.CAVITY>
7.3543

>  <SCORE.RESTR.norm>
0.210123

>  <SCORE.SYSTEM>
0

>  <SCORE.SYSTEM.CONST>
0

>  <SCORE.SYSTEM.DIHEDRAL>
0

>  <SCORE.SYSTEM.SOLV>
0

>  <SCORE.SYSTEM.norm>
0

>  <SCORE.heavy>
35

>  <SCORE.norm>
0.219072

>  <RMSD>
37.501

$$$$
2f4t_lig
 OpenBabel11021811433D
libRbt.so/2013.1/901 2013/11/27
 35 36  0  0  0  0  0  0  0  0999 V2000
    4.4453   13.4309   -1.9868 C   0  0  2  0  0  0  0  0  0  0  0  0
    3.1664   12.7823   -2.2884 O   0  0  0  0  0  0  0  0  0  0  0  0
    4.3087    8.6205   -2.4660 C   0  0  2  0  0  0  0  0  0  0  0  0
    4.1987    7.1621   -2.6195 N   0  0  0  0  0  0  0  0  0  0  0  0
    4.1069   14.6162   -1.0328 C   0  0  2  0  0  0  0  0  0  0  0  0
    3.4063   14.1439    0.1383 N   0  0  0  0  0  0  0  0  0  0  0  0
    3.2347    9.1157   -1.4292 C   0  0  0  0  0  0  0  0  0  0  0  0
    5.7956    6.4278   -2.4476 C   0  0  0  0  0  0  0  0  0  0  0  0
    5.0934    5.1061   -2.6671 C   0  0  1  0  0  0  0  0  0  0  0  0
    5.8012    4.3935   -3.8216 C   0  0  0  0  0  0  0  0  0  0  0  0
    7.3258    4.2491   -3.6802 C   0  0  0  0  0  0  0  0  0  0  0  0
    7.6039    3.3828   -2.5307 N   0  0  0  0  0  0  0  0  0  0  0  0
    5.2403    4.2684   -1.5504 O   0  0  0  0  0  0  0  0  0  0  0  0
    5.5924    8.0263   -5.7294 C   0  0  0  0  0  0  0  0  0  0  0  0
    5.2199    8.5425   -7.1108 C   0  0  0  0  0  0  0  0  0  0  0  0
    3.2548   15.6898   -1.7901 C   0  0  1  0  0  0  0  0  0  0  0  0
    3.8264    9.0304   -7.2037 N   0  0  0  0  0  0  0  0  0  0  0  0
    2.9406   16.7776   -0.9425 O   0  0  0  0  0  0  0  0  0  0  0  0
    3.2896   10.6369   -1.2307 C   0  0  2  0  0  0  0  0  0  0  0  0
    2.2582   11.0766   -0.2963 N   0  0  0  0  0  0  0  0  0  0  0  0
    2.8758    8.2324   -9.3696 C   0  0  0  0  0  0  0  0  0  0  0  0
    4.0372    7.2063   -9.5703 N   0  0  0  0  0  0  0  0  0  0  0  0
    3.2762    9.4723   -8.5165 C   0  0  0  0  0  0  0  0  0  0  0  0
    6.7782    6.8045   -2.2692 O   0  0  0  0  0  0  0  0  0  0  0  0
    4.0588   16.1639   -3.0052 C   0  0  2  0  0  0  0  0  0  0  0  0
    3.3460   17.1515   -3.7322 O   0  0  0  0  0  0  0  0  0  0  0  0
    3.0969   11.3470   -2.5473 C   0  0  2  0  0  0  0  0  0  0  0  0
    4.3948   14.9538   -3.9238 C   0  0  2  0  0  0  0  0  0  0  0  0
    5.1233   13.9394   -3.2014 O   0  0  0  0  0  0  0  0  0  0  0  0
    4.1983   10.8747   -3.5908 C   0  0  2  0  0  0  0  0  0  0  0  0
    3.9849   11.5851   -4.8473 O   0  0  0  0  0  0  0  0  0  0  0  0
    5.1990   15.3583   -5.1013 C   0  0  0  0  0  0  0  0  0  0  0  0
    5.8849   16.4860   -4.8120 N   0  0  0  0  0  0  0  0  0  0  0  0
    4.0601    9.3276   -3.8074 C   0  0  1  0  0  0  0  0  0  0  0  0
    4.9950    8.8864   -4.7397 O   0  0  0  0  0  0  0  0  0  0  0  0
  1  2  1  6  0  0  0
  1  5  1  0  0  0  0
  1 29  1  0  0  0  0
  3  4  1  6  0  0  0
  3  7  1  0  0  0  0
  3 34  1  0  0  0  0
  5  6  1  1  0  0  0
  5 16  1  0  0  0  0
  7 19  1  0  0  0  0
  8  4  1  0  0  0  0
  8 24  2  0  0  0  0
  9  8  1  1  0  0  0
  9 10  1  0  0  0  0
  9 13  1  0  0  0  0
 10 11  1  0  0  0  0
 11 12  1  0  0  0  0
 14 15  1  0  0  0  0
 14 35  1  0  0  0  0
 15 17  1  0  0  0  0
 16 18  1  1  0  0  0
 16 25  1  0  0  0  0
 19 20  1  1  0  0  0
 19 27  1  0  0  0  0
 21 22  1  0  0  0  0
 21 23  1  0  0  0  0
 23 17  1  0  0  0  0
 25 26  1  6  0  0  0
 25 28  1  0  0  0  0
 27  2  1  1  0  0  0
 27 30  1  0  0  0  0
 28 29  1  0  0  0  0
 28 32  1  6  0  0  0
 30 31  1  6  0  0  0
 30 34  1  0  0  0  0
 32 33  2  0  0  0  0
 34 35  1  6  0  0  0
M  END
>  <CHROM.1>
-148.71111474,-130.17027365,126.05342077,52.59757268,64.71575345,-39.30460733
96.43439522,-175.37118495,-55.03777410,78.87584669,73.11227710,25.33287095
82.10041040,4.44290794,10.44495919,-3.59628753,-2.77373549,1.38923744,-1.78034785

>  <Name>
2f4t_lig

>  <RI>
0

>  <Rbt.Current_Directory>
/home/itssahil/PROJECTS/Mol_Feturizer/New_Systems/rnas/2f4t

>  <Rbt.Executable>
rbdock ($Id: //depot/dev/client3/rdock/2013.1/src/exe/rbdock.cxx#4 $)

>  <Rbt.Library>
libRbt.so (2013.1, Build901 2013/11/27)

>  <Rbt.Parameter_File>
/export/apps/rDock/src/rDock_2013.1_src/data/scripts/dock_solv.prm

>  <Rbt.Receptor>
prm/blind_docking_20.prm

>  <SCORE>
11.1854

>  <SCORE.INTER>
3.26838

>  <SCORE.INTER.CONST>
1

>  <SCORE.INTER.POLAR>
-0.376356

>  <SCORE.INTER.ROT>
13

>  <SCORE.INTER.SOLV>
18.2281

>  <SCORE.INTER.VDW>
-14.9093

>  <SCORE.INTER.norm>
0.0933822

>  <SCORE.INTRA>
2.66725

>  <SCORE.INTRA.DIHEDRAL>
-5.48345

>  <SCORE.INTRA.DIHEDRAL.0>
23.8882

>  <SCORE.INTRA.POLAR>
0

>  <SCORE.INTRA.POLAR.0>
0

>  <SCORE.INTRA.REPUL>
0

>  <SCORE.INTRA.REPUL.0>
0

>  <SCORE.INTRA.SOLV>
8.87022

>  <SCORE.INTRA.SOLV.lig_0>
-97.6888

>  <SCORE.INTRA.VDW>
0.973862

>  <SCORE.INTRA.VDW.0>
-3.9206

>  <SCORE.INTRA.norm>
0.076207

>  <SCORE.RESTR>
5.24978

>  <SCORE.RESTR.CAVITY>
5.24978

>  <SCORE.RESTR.norm>
0.149994

>  <SCORE.SYSTEM>
0

>  <SCORE.SYSTEM.CONST>
0

>  <SCORE.SYSTEM.DIHEDRAL>
0

>  <SCORE.SYSTEM.SOLV>
0

>  <SCORE.SYSTEM.norm>
0

>  <SCORE.heavy>
35

>  <SCORE.norm>
0.319583

>  <RMSD>
37.829

$$$$
2f4t_lig
 OpenBabel11021811433D
libRbt.so/2013.1/901 2013/11/27
 35 36  0  0  0  0  0  0  0  0999 V2000
    4.8469   13.5467   -3.4135 C   0  0  2  0  0  0  0  0  0  0  0  0
    3.6022   12.9570   -2.9134 O   0  0  0  0  0  0  0  0  0  0  0  0
    4.4270    8.7449   -2.4282 C   0  0  2  0  0  0  0  0  0  0  0  0
    4.2010    7.2966   -2.3101 N   0  0  0  0  0  0  0  0  0  0  0  0
    5.3765   14.4595   -2.2664 C   0  0  2  0  0  0  0  0  0  0  0  0
    5.5427   13.7023   -1.0480 N   0  0  0  0  0  0  0  0  0  0  0  0
    3.4855    9.5009   -1.4204 C   0  0  0  0  0  0  0  0  0  0  0  0
    5.7545    6.4621   -2.2145 C   0  0  0  0  0  0  0  0  0  0  0  0
    4.9432    5.1897   -2.1104 C   0  0  1  0  0  0  0  0  0  0  0  0
    4.9660    4.5141   -3.4834 C   0  0  0  0  0  0  0  0  0  0  0  0
    6.3419    4.4408   -4.1665 C   0  0  0  0  0  0  0  0  0  0  0  0
    7.1531    3.4400   -3.4668 N   0  0  0  0  0  0  0  0  0  0  0  0
    5.5450    4.2818   -1.2252 O   0  0  0  0  0  0  0  0  0  0  0  0
    5.4670    8.1596   -6.0337 C   0  0  0  0  0  0  0  0  0  0  0  0
    4.4090    7.3624   -6.7811 C   0  0  0  0  0  0  0  0  0  0  0  0
    4.3984   15.6614   -2.0403 C   0  0  1  0  0  0  0  0  0  0  0  0
    3.4696    8.2050   -7.5532 N   0  0  0  0  0  0  0  0  0  0  0  0
    4.8636   16.5056   -1.0053 O   0  0  0  0  0  0  0  0  0  0  0  0
    3.6652   11.0233   -1.5014 C   0  0  2  0  0  0  0  0  0  0  0  0
    2.7531   11.7036   -0.5873 N   0  0  0  0  0  0  0  0  0  0  0  0
    2.8759    9.2114   -9.7591 C   0  0  0  0  0  0  0  0  0  0  0  0
    4.0172   10.2766   -9.6885 N   0  0  0  0  0  0  0  0  0  0  0  0
    3.1965    7.8982   -8.9859 C   0  0  0  0  0  0  0  0  0  0  0  0
    6.7750    6.7745   -2.2291 O   0  0  0  0  0  0  0  0  0  0  0  0
    4.2815   16.4335   -3.3585 C   0  0  2  0  0  0  0  0  0  0  0  0
    3.4154   17.5481   -3.2194 O   0  0  0  0  0  0  0  0  0  0  0  0
    3.4089   11.5097   -2.9059 C   0  0  2  0  0  0  0  0  0  0  0  0
    3.7696   15.4880   -4.4833 C   0  0  2  0  0  0  0  0  0  0  0  0
    4.6408   14.3489   -4.6413 O   0  0  0  0  0  0  0  0  0  0  0  0
    4.3786   10.7727   -3.9263 C   0  0  2  0  0  0  0  0  0  0  0  0
    4.1070   11.2715   -5.2704 O   0  0  0  0  0  0  0  0  0  0  0  0
    3.6675   16.1836   -5.7882 C   0  0  0  0  0  0  0  0  0  0  0  0
    3.1827   15.3299   -6.7166 N   0  0  0  0  0  0  0  0  0  0  0  0
    4.1129    9.2289   -3.8523 C   0  0  1  0  0  0  0  0  0  0  0  0
    4.9290    8.5557   -4.7570 O   0  0  0  0  0  0  0  0  0  0  0  0
  1  2  1  1  0  0  0
  1  5  1  0  0  0  0
  1 29  1  0  0  0  0
  3  4  1  6  0  0  0
  3  7  1  0  0  0  0
  3 34  1  0  0  0  0
  5  6  1  1  0  0  0
  5 16  1  0  0  0  0
  7 19  1  0  0  0  0
  8  4  1  0  0  0  0
  8 24  2  0  0  0  0
  9  8  1  6  0  0  0
  9 10  1  0  0  0  0
  9 13  1  0  0  0  0
 10 11  1  0  0  0  0
 11 12  1  0  0  0  0
 14 15  1  0  0  0  0
 14 35  1  0  0  0  0
 15 17  1  0  0  0  0
 16 18  1  1  0  0  0
 16 25  1  0  0  0  0
 19 20  1  1  0  0  0
 19 27  1  0  0  0  0
 21 22  1  0  0  0  0
 21 23  1  0  0  0  0
 23 17  1  0  0  0  0
 25 26  1  1  0  0  0
 25 28  1  0  0  0  0
 27  2  1  1  0  0  0
 27 30  1  0  0  0  0
 28 29  1  0  0  0  0
 28 32  1  6  0  0  0
 30 31  1  6  0  0  0
 30 34  1  0  0  0  0
 32 33  2  0  0  0  0
 34 35  1  6  0  0  0
M  END
>  <CHROM.1>
-125.67710963,-133.16787412,101.79664104,45.64341953,72.64223413,86.10538608
-68.16888483,129.77553972,58.09198990,-149.24703504,100.44822442,-178.21502254
177.05747029,4.46443539,10.51808968,-3.93073238,-2.17688251,1.34945451,-2.49307768

>  <Name>
2f4t_lig

>  <RI>
0

>  <Rbt.Current_Directory>
/home/itssahil/PROJECTS/Mol_Feturizer/New_Systems/rnas/2f4t

>  <Rbt.Executable>
rbdock ($Id: //depot/dev/client3/rdock/2013.1/src/exe/rbdock.cxx#4 $)

>  <Rbt.Library>
libRbt.so (2013.1, Build901 2013/11/27)

>  <Rbt.Parameter_File>
/export/apps/rDock/src/rDock_2013.1_src/data/scripts/dock_solv.prm

>  <Rbt.Receptor>
prm/blind_docking_20.prm

>  <SCORE>
12.0816

>  <SCORE.INTER>
5.53405

>  <SCORE.INTER.CONST>
1

>  <SCORE.INTER.POLAR>
-0.499688

>  <SCORE.INTER.ROT>
13

>  <SCORE.INTER.SOLV>
23.053

>  <SCORE.INTER.VDW>
-14.596

>  <SCORE.INTER.norm>
0.158116

>  <SCORE.INTRA>
2.83017

>  <SCORE.INTRA.DIHEDRAL>
-0.724976

>  <SCORE.INTRA.DIHEDRAL.0>
23.8882

>  <SCORE.INTRA.POLAR>
0

>  <SCORE.INTRA.POLAR.0>
0

>  <SCORE.INTRA.REPUL>
0

>  <SCORE.INTRA.REPUL.0>
0

>  <SCORE.INTRA.SOLV>
6.52448

>  <SCORE.INTRA.SOLV.lig_0>
-97.6888

>  <SCORE.INTRA.VDW>
-0.0695884

>  <SCORE.INTRA.VDW.0>
-3.9206

>  <SCORE.INTRA.norm>
0.0808619

>  <SCORE.RESTR>
3.71736

>  <SCORE.RESTR.CAVITY>
3.71736

>  <SCORE.RESTR.norm>
0.10621

>  <SCORE.SYSTEM>
0

>  <SCORE.SYSTEM.CONST>
0

>  <SCORE.SYSTEM.DIHEDRAL>
0

>  <SCORE.SYSTEM.SOLV>
0

>  <SCORE.SYSTEM.norm>
0

>  <SCORE.heavy>
35

>  <SCORE.norm>
0.345188

>  <RMSD>
38.132

$$$$
2f4t_lig
 OpenBabel11021811433D
libRbt.so/2013.1/901 2013/11/27
 35 36  0  0  0  0  0  0  0  0999 V2000
    4.8392   13.5130   -3.4365 C   0  0  2  0  0  0  0  0  0  0  0  0
    3.5812   12.9444   -2.9451 O   0  0  0  0  0  0  0  0  0  0  0  0
    4.3864    8.7276   -2.4687 C   0  0  2  0  0  0  0  0  0  0  0  0
    4.1519    7.2828   -2.3263 N   0  0  0  0  0  0  0  0  0  0  0  0
    5.3830   14.4059   -2.2805 C   0  0  2  0  0  0  0  0  0  0  0  0
    5.5298   13.6358   -1.0676 N   0  0  0  0  0  0  0  0  0  0  0  0
    3.5084    9.5019   -1.4184 C   0  0  0  0  0  0  0  0  0  0  0  0
    5.7001    6.4344   -2.2827 C   0  0  0  0  0  0  0  0  0  0  0  0
    4.8818    5.1710   -2.1333 C   0  0  1  0  0  0  0  0  0  0  0  0
    5.7820    3.9911   -2.5066 C   0  0  0  0  0  0  0  0  0  0  0  0
    6.1743    3.8964   -3.9906 C   0  0  0  0  0  0  0  0  0  0  0  0
    7.2422    4.8667   -4.2497 N   0  0  0  0  0  0  0  0  0  0  0  0
    4.5151    4.9662   -0.7939 O   0  0  0  0  0  0  0  0  0  0  0  0
    5.1183    7.4636   -5.7383 C   0  0  0  0  0  0  0  0  0  0  0  0
    4.2842    7.6171   -7.0009 C   0  0  0  0  0  0  0  0  0  0  0  0
    4.4284   15.6253   -2.0479 C   0  0  1  0  0  0  0  0  0  0  0  0
    4.3934    8.9551   -7.6225 N   0  0  0  0  0  0  0  0  0  0  0  0
    4.9070   16.4518   -1.0047 O   0  0  0  0  0  0  0  0  0  0  0  0
    3.6994   11.0215   -1.5220 C   0  0  2  0  0  0  0  0  0  0  0  0
    2.8449   11.7191   -0.5663 N   0  0  0  0  0  0  0  0  0  0  0  0
    3.1074    8.4303   -9.6967 C   0  0  0  0  0  0  0  0  0  0  0  0
    4.4351    7.9695  -10.3799 N   0  0  0  0  0  0  0  0  0  0  0  0
    3.3206    9.4444   -8.5342 C   0  0  0  0  0  0  0  0  0  0  0  0
    6.7221    6.7368   -2.3408 O   0  0  0  0  0  0  0  0  0  0  0  0
    4.3315   16.4099   -3.3604 C   0  0  2  0  0  0  0  0  0  0  0  0
    3.4875   17.5406   -3.2152 O   0  0  0  0  0  0  0  0  0  0  0  0
    3.3733   11.4995   -2.9149 C   0  0  2  0  0  0  0  0  0  0  0  0
    3.8046   15.4839   -4.4943 C   0  0  2  0  0  0  0  0  0  0  0  0
    4.6533   14.3288   -4.6586 O   0  0  0  0  0  0  0  0  0  0  0  0
    4.2791   10.7437   -3.9794 C   0  0  2  0  0  0  0  0  0  0  0  0
    3.9411   11.2347   -5.3113 O   0  0  0  0  0  0  0  0  0  0  0  0
    3.7209   16.1917   -5.7939 C   0  0  0  0  0  0  0  0  0  0  0  0
    3.5134   17.5090   -5.5764 N   0  0  0  0  0  0  0  0  0  0  0  0
    4.0015    9.2036   -3.8781 C   0  0  1  0  0  0  0  0  0  0  0  0
    4.7608    8.5142   -4.8194 O   0  0  0  0  0  0  0  0  0  0  0  0
  1  2  1  1  0  0  0
  1  5  1  0  0  0  0
  1 29  1  0  0  0  0
  3  4  1  6  0  0  0
  3  7  1  0  0  0  0
  3 34  1  0  0  0  0
  5  6  1  1  0  0  0
  5 16  1  0  0  0  0
  7 19  1  0  0  0  0
  8  4  1  0  0  0  0
  8 24  2  0  0  0  0
  9  8  1  1  0  0  0
  9 10  1  0  0  0  0
  9 13  1  0  0  0  0
 10 11  1  0  0  0  0
 11 12  1  0  0  0  0
 14 15  1  0  0  0  0
 14 35  1  0  0  0  0
 15 17  1  0  0  0  0
 16 18  1  1  0  0  0
 16 25  1  0  0  0  0
 19 20  1  1  0  0  0
 19 27  1  0  0  0  0
 21 22  1  0  0  0  0
 21 23  1  0  0  0  0
 23 17  1  0  0  0  0
 25 26  1  1  0  0  0
 25 28  1  0  0  0  0
 27  2  1  1  0  0  0
 27 30  1  0  0  0  0
 28 29  1  0  0  0  0
 28 32  1  6  0  0  0
 30 31  1  6  0  0  0
 30 34  1  0  0  0  0
 32 33  2  0  0  0  0
 34 35  1  6  0  0  0
M  END
>  <CHROM.1>
-123.94719018,-132.33474189,161.40400522,-68.67810395,78.17235324,54.77578254
76.19568599,-157.96491465,-47.79393458,-55.87947337,96.46487584,-28.28660816
88.47718346,4.48336348,10.56160887,-3.89523223,-2.32364600,1.40426608,-2.31828205

>  <Name>
2f4t_lig

>  <RI>
0

>  <Rbt.Current_Directory>
/home/itssahil/PROJECTS/Mol_Feturizer/New_Systems/rnas/2f4t

>  <Rbt.Executable>
rbdock ($Id: //depot/dev/client3/rdock/2013.1/src/exe/rbdock.cxx#4 $)

>  <Rbt.Library>
libRbt.so (2013.1, Build901 2013/11/27)

>  <Rbt.Parameter_File>
/export/apps/rDock/src/rDock_2013.1_src/data/scripts/dock_solv.prm

>  <Rbt.Receptor>
prm/blind_docking_20.prm

>  <SCORE>
16.6669

>  <SCORE.INTER>
6.98286

>  <SCORE.INTER.CONST>
1

>  <SCORE.INTER.POLAR>
0

>  <SCORE.INTER.ROT>
13

>  <SCORE.INTER.SOLV>
26.0315

>  <SCORE.INTER.VDW>
-16.2886

>  <SCORE.INTER.norm>
0.19951

>  <SCORE.INTRA>
6.43898

>  <SCORE.INTRA.DIHEDRAL>
-1.41239

>  <SCORE.INTRA.DIHEDRAL.0>
23.8882

>  <SCORE.INTRA.POLAR>
0

>  <SCORE.INTRA.POLAR.0>
0

>  <SCORE.INTRA.REPUL>
0

>  <SCORE.INTRA.REPUL.0>
0

>  <SCORE.INTRA.SOLV>
9.06081

>  <SCORE.INTRA.SOLV.lig_0>
-97.6888

>  <SCORE.INTRA.VDW>
2.61477

>  <SCORE.INTRA.VDW.0>
-3.9206

>  <SCORE.INTRA.norm>
0.183971

>  <SCORE.RESTR>
3.24505

>  <SCORE.RESTR.CAVITY>
3.24505

>  <SCORE.RESTR.norm>
0.0927156

>  <SCORE.SYSTEM>
0

>  <SCORE.SYSTEM.CONST>
0

>  <SCORE.SYSTEM.DIHEDRAL>
0

>  <SCORE.SYSTEM.SOLV>
0

>  <SCORE.SYSTEM.norm>
0

>  <SCORE.heavy>
35

>  <SCORE.norm>
0.476197

>  <RMSD>
38.147

$$$$
2f4t_lig
 OpenBabel11021811433D
libRbt.so/2013.1/901 2013/11/27
 35 36  0  0  0  0  0  0  0  0999 V2000
    4.6776   13.9093   -3.4588 C   0  0  2  0  0  0  0  0  0  0  0  0
    3.4452   13.2755   -2.9828 O   0  0  0  0  0  0  0  0  0  0  0  0
    4.5193    9.0920   -2.9402 C   0  0  2  0  0  0  0  0  0  0  0  0
    4.3930    7.6336   -2.7993 N   0  0  0  0  0  0  0  0  0  0  0  0
    5.0841   14.9320   -2.3550 C   0  0  2  0  0  0  0  0  0  0  0  0
    5.2270   14.2734   -1.0777 N   0  0  0  0  0  0  0  0  0  0  0  0
    3.9514    9.7892   -1.6499 C   0  0  0  0  0  0  0  0  0  0  0  0
    5.9783    6.9333   -2.4597 C   0  0  0  0  0  0  0  0  0  0  0  0
    5.2623    5.6014   -2.4197 C   0  0  1  0  0  0  0  0  0  0  0  0
    6.1687    4.5697   -3.0950 C   0  0  0  0  0  0  0  0  0  0  0  0
    7.5025    4.2880   -2.3831 C   0  0  0  0  0  0  0  0  0  0  0  0
    8.3268    3.4503   -3.2593 N   0  0  0  0  0  0  0  0  0  0  0  0
    5.0964    5.1604   -1.0975 O   0  0  0  0  0  0  0  0  0  0  0  0
    4.6718    8.8449   -6.6652 C   0  0  0  0  0  0  0  0  0  0  0  0
    3.7659    9.6711   -7.5653 C   0  0  0  0  0  0  0  0  0  0  0  0
    4.0225   16.0801   -2.2682 C   0  0  1  0  0  0  0  0  0  0  0  0
    3.9906    9.4342   -9.0081 N   0  0  0  0  0  0  0  0  0  0  0  0
    4.3755   17.0225   -1.2745 O   0  0  0  0  0  0  0  0  0  0  0  0
    4.0444   11.3189   -1.7379 C   0  0  2  0  0  0  0  0  0  0  0  0
    3.4748   11.9435   -0.5481 N   0  0  0  0  0  0  0  0  0  0  0  0
    4.3865    7.0806   -9.7400 C   0  0  0  0  0  0  0  0  0  0  0  0
    4.7157    6.4594   -8.3444 N   0  0  0  0  0  0  0  0  0  0  0  0
    3.3678    8.2569   -9.6771 C   0  0  0  0  0  0  0  0  0  0  0  0
    6.9632    7.3286   -2.3460 O   0  0  0  0  0  0  0  0  0  0  0  0
    3.9335   16.7497   -3.6435 C   0  0  2  0  0  0  0  0  0  0  0  0
    2.9940   17.8122   -3.6312 O   0  0  0  0  0  0  0  0  0  0  0  0
    3.3120   11.8216   -2.9569 C   0  0  2  0  0  0  0  0  0  0  0  0
    3.5454   15.6972   -4.7217 C   0  0  2  0  0  0  0  0  0  0  0  0
    4.4926   14.6093   -4.7508 O   0  0  0  0  0  0  0  0  0  0  0  0
    3.9016   11.1447   -4.2680 C   0  0  2  0  0  0  0  0  0  0  0  0
    3.1750   11.6580   -5.4246 O   0  0  0  0  0  0  0  0  0  0  0  0
    3.4750   16.2926   -6.0773 C   0  0  0  0  0  0  0  0  0  0  0  0
    3.1512   15.3346   -6.9734 N   0  0  0  0  0  0  0  0  0  0  0  0
    3.7260    9.5903   -4.1582 C   0  0  1  0  0  0  0  0  0  0  0  0
    4.2084    8.9686   -5.3066 O   0  0  0  0  0  0  0  0  0  0  0  0
  1  2  1  1  0  0  0
  1  5  1  0  0  0  0
  1 29  1  0  0  0  0
  3  4  1  1  0  0  0
  3  7  1  0  0  0  0
  3 34  1  0  0  0  0
  5  6  1  1  0  0  0
  5 16  1  0  0  0  0
  7 19  1  0  0  0  0
  8  4  1  0  0  0  0
  8 24  2  0  0  0  0
  9  8  1  1  0  0  0
  9 10  1  0  0  0  0
  9 13  1  0  0  0  0
 10 11  1  0  0  0  0
 11 12  1  0  0  0  0
 14 15  1  0  0  0  0
 14 35  1  0  0  0  0
 15 17  1  0  0  0  0
 16 18  1  1  0  0  0
 16 25  1  0  0  0  0
 19 20  1  1  0  0  0
 19 27  1  0  0  0  0
 21 22  1  0  0  0  0
 21 23  1  0  0  0  0
 23 17  1  0  0  0  0
 25 26  1  1  0  0  0
 25 28  1  0  0  0  0
 27  2  1  6  0  0  0
 27 30  1  0  0  0  0
 28 29  1  0  0  0  0
 28 32  1  6  0  0  0
 30 31  1  6  0  0  0
 30 34  1  0  0  0  0
 32 33  2  0  0  0  0
 34 35  1  6  0  0  0
M  END
>  <CHROM.1>
-129.42694581,-105.10147112,140.64789186,64.68334054,-171.24827574,-169.69187989
-43.30385437,81.69001926,68.73674664,-96.26449287,78.96586116,179.26515687
-134.54776806,4.49312060,10.75142097,-4.08697322,-2.32559307,1.28801287,-2.33657908

>  <Name>
2f4t_lig

>  <RI>
0

>  <Rbt.Current_Directory>
/home/itssahil/PROJECTS/Mol_Feturizer/New_Systems/rnas/2f4t

>  <Rbt.Executable>
rbdock ($Id: //depot/dev/client3/rdock/2013.1/src/exe/rbdock.cxx#4 $)

>  <Rbt.Library>
libRbt.so (2013.1, Build901 2013/11/27)

>  <Rbt.Parameter_File>
/export/apps/rDock/src/rDock_2013.1_src/data/scripts/dock_solv.prm

>  <Rbt.Receptor>
prm/blind_docking_20.prm

>  <SCORE>
5.6739

>  <SCORE.INTER>
-1.78559

>  <SCORE.INTER.CONST>
1

>  <SCORE.INTER.POLAR>
-1.17612

>  <SCORE.INTER.ROT>
13

>  <SCORE.INTER.SOLV>
23.9097

>  <SCORE.INTER.VDW>
-17.5066

>  <SCORE.INTER.norm>
-0.051017

>  <SCORE.INTRA>
3.17457

>  <SCORE.INTRA.DIHEDRAL>
-0.901022

>  <SCORE.INTRA.DIHEDRAL.0>
23.8882

>  <SCORE.INTRA.POLAR>
0

>  <SCORE.INTRA.POLAR.0>
0

>  <SCORE.INTRA.REPUL>
0

>  <SCORE.INTRA.REPUL.0>
0

>  <SCORE.INTRA.SOLV>
5.69741

>  <SCORE.INTRA.SOLV.lig_0>
-97.6888

>  <SCORE.INTRA.VDW>
0.776376

>  <SCORE.INTRA.VDW.0>
-3.9206

>  <SCORE.INTRA.norm>
0.0907019

>  <SCORE.RESTR>
4.28493

>  <SCORE.RESTR.CAVITY>
4.28493

>  <SCORE.RESTR.norm>
0.122426

>  <SCORE.SYSTEM>
0

>  <SCORE.SYSTEM.CONST>
0

>  <SCORE.SYSTEM.DIHEDRAL>
0

>  <SCORE.SYSTEM.SOLV>
0

>  <SCORE.SYSTEM.norm>
0

>  <SCORE.heavy>
35

>  <SCORE.norm>
0.162111

>  <RMSD>
38.395

$$$$
2f4t_lig
 OpenBabel11021811433D
libRbt.so/2013.1/901 2013/11/27
 35 36  0  0  0  0  0  0  0  0999 V2000
    2.8512   14.3154   -3.3361 C   0  0  2  0  0  0  0  0  0  0  0  0
    3.7065   13.2292   -3.8216 O   0  0  0  0  0  0  0  0  0  0  0  0
    4.4512    9.1073   -2.7667 C   0  0  2  0  0  0  0  0  0  0  0  0
    4.2216    7.7486   -2.2531 N   0  0  0  0  0  0  0  0  0  0  0  0
    2.6240   15.2567   -4.5575 C   0  0  2  0  0  0  0  0  0  0  0  0
    2.0580   14.5250   -5.6665 N   0  0  0  0  0  0  0  0  0  0  0  0
    4.0313   10.1542   -1.6707 C   0  0  0  0  0  0  0  0  0  0  0  0
    5.4549    6.6587   -2.8933 C   0  0  0  0  0  0  0  0  0  0  0  0
    4.7623    5.5779   -2.0931 C   0  0  1  0  0  0  0  0  0  0  0  0
    5.3522    4.2337   -2.5255 C   0  0  0  0  0  0  0  0  0  0  0  0
    6.8535    4.0459   -2.2497 C   0  0  0  0  0  0  0  0  0  0  0  0
    7.4676    3.4313   -3.4305 N   0  0  0  0  0  0  0  0  0  0  0  0
    5.0519    5.7027   -0.7254 O   0  0  0  0  0  0  0  0  0  0  0  0
    4.8168    7.6890   -5.9049 C   0  0  0  0  0  0  0  0  0  0  0  0
    5.2851    8.6244   -7.0091 C   0  0  0  0  0  0  0  0  0  0  0  0
    3.9737   15.9330   -4.9739 C   0  0  1  0  0  0  0  0  0  0  0  0
    4.2044    9.4648   -7.5699 N   0  0  0  0  0  0  0  0  0  0  0  0
    3.7884   16.7959   -6.0790 O   0  0  0  0  0  0  0  0  0  0  0  0
    4.2370   11.5980   -2.1498 C   0  0  2  0  0  0  0  0  0  0  0  0
    3.8027   12.5501   -1.1324 N   0  0  0  0  0  0  0  0  0  0  0  0
    3.2172    8.1536   -9.4507 C   0  0  0  0  0  0  0  0  0  0  0  0
    3.9395    6.8553   -8.9664 N   0  0  0  0  0  0  0  0  0  0  0  0
    3.9457    9.4666   -9.0377 C   0  0  0  0  0  0  0  0  0  0  0  0
    6.2895    6.7740   -3.5485 O   0  0  0  0  0  0  0  0  0  0  0  0
    4.5099   16.7072   -3.7653 C   0  0  2  0  0  0  0  0  0  0  0  0
    5.7307   17.3575   -4.0794 O   0  0  0  0  0  0  0  0  0  0  0  0
    3.4624   11.8467   -3.4199 C   0  0  2  0  0  0  0  0  0  0  0  0
    4.7059   15.7414   -2.5612 C   0  0  2  0  0  0  0  0  0  0  0  0
    3.4725   15.0726   -2.2251 O   0  0  0  0  0  0  0  0  0  0  0  0
    3.9040   10.8122   -4.5422 C   0  0  2  0  0  0  0  0  0  0  0  0
    3.1403   11.0861   -5.7550 O   0  0  0  0  0  0  0  0  0  0  0  0
    5.1970   16.4508   -1.3560 C   0  0  0  0  0  0  0  0  0  0  0  0
    4.3474   17.4552   -1.0476 N   0  0  0  0  0  0  0  0  0  0  0  0
    3.6157    9.3576   -4.0318 C   0  0  1  0  0  0  0  0  0  0  0  0
    3.9664    8.4269   -5.0058 O   0  0  0  0  0  0  0  0  0  0  0  0
  1  2  1  6  0  0  0
  1  5  1  0  0  0  0
  1 29  1  0  0  0  0
  3  4  1  1  0  0  0
  3  7  1  0  0  0  0
  3 34  1  0  0  0  0
  5  6  1  6  0  0  0
  5 16  1  0  0  0  0
  7 19  1  0  0  0  0
  8  4  1  0  0  0  0
  8 24  2  0  0  0  0
  9  8  1  6  0  0  0
  9 10  1  0  0  0  0
  9 13  1  0  0  0  0
 10 11  1  0  0  0  0
 11 12  1  0  0  0  0
 14 15  1  0  0  0  0
 14 35  1  0  0  0  0
 15 17  1  0  0  0  0
 16 18  1  6  0  0  0
 16 25  1  0  0  0  0
 19 20  1  1  0  0  0
 19 27  1  0  0  0  0
 21 22  1  0  0  0  0
 21 23  1  0  0  0  0
 23 17  1  0  0  0  0
 25 26  1  6  0  0  0
 25 28  1  0  0  0  0
 27  2  1  6  0  0  0
 27 30  1  0  0  0  0
 28 29  1  0  0  0  0
 28 32  1  1  0  0  0
 30 31  1  6  0  0  0
 30 34  1  0  0  0  0
 32 33  2  0  0  0  0
 34 35  1  6  0  0  0
M  END
>  <CHROM.1>
-138.96564402,-146.22980243,169.46965176,62.60573714,-136.52487656,-45.08281826
-69.77317233,-125.61678102,-52.51846691,75.21428845,-89.15906890,56.03837565
-56.04117407,4.36024942,10.80789576,-4.06430194,-2.18249241,1.33894117,-2.49801531

>  <Name>
2f4t_lig

>  <RI>
0

>  <Rbt.Current_Directory>
/home/itssahil/PROJECTS/Mol_Feturizer/New_Systems/rnas/2f4t

>  <Rbt.Executable>
rbdock ($Id: //depot/dev/client3/rdock/2013.1/src/exe/rbdock.cxx#4 $)

>  <Rbt.Library>
libRbt.so (2013.1, Build901 2013/11/27)

>  <Rbt.Parameter_File>
/export/apps/rDock/src/rDock_2013.1_src/data/scripts/dock_solv.prm

>  <Rbt.Receptor>
prm/blind_docking_20.prm

>  <SCORE>
12.9603

>  <SCORE.INTER>
4.6066

>  <SCORE.INTER.CONST>
1

>  <SCORE.INTER.POLAR>
-0.19635

>  <SCORE.INTER.ROT>
13

>  <SCORE.INTER.SOLV>
17.3981

>  <SCORE.INTER.VDW>
-14.3405

>  <SCORE.INTER.norm>
0.131617

>  <SCORE.INTRA>
2.81051

>  <SCORE.INTRA.DIHEDRAL>
-3.91627

>  <SCORE.INTRA.DIHEDRAL.0>
23.8882

>  <SCORE.INTRA.POLAR>
0

>  <SCORE.INTRA.POLAR.0>
0

>  <SCORE.INTRA.REPUL>
0

>  <SCORE.INTRA.REPUL.0>
0

>  <SCORE.INTRA.SOLV>
9.16027

>  <SCORE.INTRA.SOLV.lig_0>
-97.6888

>  <SCORE.INTRA.VDW>
0.188509

>  <SCORE.INTRA.VDW.0>
-3.9206

>  <SCORE.INTRA.norm>
0.0803003

>  <SCORE.RESTR>
5.54323

>  <SCORE.RESTR.CAVITY>
5.54323

>  <SCORE.RESTR.norm>
0.158378

>  <SCORE.SYSTEM>
0

>  <SCORE.SYSTEM.CONST>
0

>  <SCORE.SYSTEM.DIHEDRAL>
0

>  <SCORE.SYSTEM.SOLV>
0

>  <SCORE.SYSTEM.norm>
0

>  <SCORE.heavy>
35

>  <SCORE.norm>
0.370295

>  <RMSD>
38.413

$$$$
2f4t_lig
 OpenBabel11021811433D
libRbt.so/2013.1/901 2013/11/27
 35 36  0  0  0  0  0  0  0  0999 V2000
    4.9635   13.0124   -2.0283 C   0  0  2  0  0  0  0  0  0  0  0  0
    3.8010   12.5408   -2.7856 O   0  0  0  0  0  0  0  0  0  0  0  0
    3.0345    9.4047   -5.6551 C   0  0  2  0  0  0  0  0  0  0  0  0
    3.1351    8.5964   -6.8796 N   0  0  0  0  0  0  0  0  0  0  0  0
    4.6108   12.7920   -0.5261 C   0  0  2  0  0  0  0  0  0  0  0  0
    4.2799   11.4083   -0.2780 N   0  0  0  0  0  0  0  0  0  0  0  0
    2.8412   10.9160   -6.0453 C   0  0  0  0  0  0  0  0  0  0  0  0
    4.8355    8.3626   -7.2952 C   0  0  0  0  0  0  0  0  0  0  0  0
    4.3266    7.5591   -8.4715 C   0  0  1  0  0  0  0  0  0  0  0  0
    4.2920    8.4897   -9.6858 C   0  0  0  0  0  0  0  0  0  0  0  0
    3.4947    9.7921   -9.5040 C   0  0  0  0  0  0  0  0  0  0  0  0
    3.4284   10.4786  -10.7976 N   0  0  0  0  0  0  0  0  0  0  0  0
    5.2222    6.5299   -8.8012 O   0  0  0  0  0  0  0  0  0  0  0  0
    4.1918    6.6350   -3.9423 C   0  0  0  0  0  0  0  0  0  0  0  0
    5.4771    5.9902   -3.4465 C   0  0  0  0  0  0  0  0  0  0  0  0
    3.4252   13.7263   -0.1092 C   0  0  1  0  0  0  0  0  0  0  0  0
    6.3765    5.5510   -4.5359 N   0  0  0  0  0  0  0  0  0  0  0  0
    3.0922   13.5451    1.2534 O   0  0  0  0  0  0  0  0  0  0  0  0
    2.7396   11.8181   -4.8075 C   0  0  2  0  0  0  0  0  0  0  0  0
    2.6016   13.2185   -5.1949 N   0  0  0  0  0  0  0  0  0  0  0  0
    7.7440    3.9615   -3.1813 C   0  0  0  0  0  0  0  0  0  0  0  0
    6.8419    3.4905   -1.9955 N   0  0  0  0  0  0  0  0  0  0  0  0
    6.9649    4.1818   -4.5117 C   0  0  0  0  0  0  0  0  0  0  0  0
    5.7614    8.6752   -6.8663 O   0  0  0  0  0  0  0  0  0  0  0  0
    3.8454   15.1753   -0.3766 C   0  0  2  0  0  0  0  0  0  0  0  0
    2.8165   16.0790   -0.0074 O   0  0  0  0  0  0  0  0  0  0  0  0
    3.9653   11.6648   -3.9421 C   0  0  2  0  0  0  0  0  0  0  0  0
    4.2082   15.3535   -1.8792 C   0  0  2  0  0  0  0  0  0  0  0  0
    5.2564   14.4435   -2.2724 O   0  0  0  0  0  0  0  0  0  0  0  0
    4.1497   10.1445   -3.5180 C   0  0  2  0  0  0  0  0  0  0  0  0
    5.3386   10.0357   -2.6790 O   0  0  0  0  0  0  0  0  0  0  0  0
    4.6502   16.7354   -2.1824 C   0  0  0  0  0  0  0  0  0  0  0  0
    5.5000   16.7159   -3.2327 N   0  0  0  0  0  0  0  0  0  0  0  0
    4.3126    9.2739   -4.8121 C   0  0  1  0  0  0  0  0  0  0  0  0
    4.5046    7.9376   -4.4727 O   0  0  0  0  0  0  0  0  0  0  0  0
  1  2  1  6  0  0  0
  1  5  1  0  0  0  0
  1 29  1  0  0  0  0
  3  4  1  6  0  0  0
  3  7  1  0  0  0  0
  3 34  1  0  0  0  0
  5  6  1  6  0  0  0
  5 16  1  0  0  0  0
  7 19  1  0  0  0  0
  8  4  1  0  0  0  0
  8 24  2  0  0  0  0
  9  8  1  1  0  0  0
  9 10  1  0  0  0  0
  9 13  1  0  0  0  0
 10 11  1  0  0  0  0
 11 12  1  0  0  0  0
 14 15  1  0  0  0  0
 14 35  1  0  0  0  0
 15 17  1  0  0  0  0
 16 18  1  1  0  0  0
 16 25  1  0  0  0  0
 19 20  1  6  0  0  0
 19 27  1  0  0  0  0
 21 22  1  0  0  0  0
 21 23  1  0  0  0  0
 23 17  1  0  0  0  0
 25 26  1  6  0  0  0
 25 28  1  0  0  0  0
 27  2  1  1  0  0  0
 27 30  1  0  0  0  0
 28 29  1  0  0  0  0
 28 32  1  1  0  0  0
 30 31  1  1  0  0  0
 30 34  1  0  0  0  0
 32 33  2  0  0  0  0
 34 35  1  1  0  0  0
M  END
>  <CHROM.1>
-133.06885252,94.95523275,96.38582178,-54.59433052,-173.21269380,-72.41448427
-149.98114738,-131.73589960,84.93507435,-56.09407665,-157.06760306,151.84690057
-53.83942661,4.46767849,10.39681945,-4.14031262,-2.01649550,1.25094793,-2.15160135

>  <Name>
2f4t_lig

>  <RI>
0

>  <Rbt.Current_Directory>
/home/itssahil/PROJECTS/Mol_Feturizer/New_Systems/rnas/2f4t

>  <Rbt.Executable>
rbdock ($Id: //depot/dev/client3/rdock/2013.1/src/exe/rbdock.cxx#4 $)

>  <Rbt.Library>
libRbt.so (2013.1, Build901 2013/11/27)

>  <Rbt.Parameter_File>
/export/apps/rDock/src/rDock_2013.1_src/data/scripts/dock_solv.prm

>  <Rbt.Receptor>
prm/blind_docking_20.prm

>  <SCORE>
9.69685

>  <SCORE.INTER>
-6.92984

>  <SCORE.INTER.CONST>
1

>  <SCORE.INTER.POLAR>
-2.33734

>  <SCORE.INTER.ROT>
13

>  <SCORE.INTER.SOLV>
24.7782

>  <SCORE.INTER.VDW>
-17.3548

>  <SCORE.INTER.norm>
-0.197995

>  <SCORE.INTRA>
3.56664

>  <SCORE.INTRA.DIHEDRAL>
-3.45664

>  <SCORE.INTRA.DIHEDRAL.0>
23.8882

>  <SCORE.INTRA.POLAR>
0

>  <SCORE.INTRA.POLAR.0>
0

>  <SCORE.INTRA.REPUL>
0

>  <SCORE.INTRA.REPUL.0>
0

>  <SCORE.INTRA.SOLV>
4.06052

>  <SCORE.INTRA.SOLV.lig_0>
-97.6888

>  <SCORE.INTRA.VDW>
3.2647

>  <SCORE.INTRA.VDW.0>
-3.9206

>  <SCORE.INTRA.norm>
0.101904

>  <SCORE.RESTR>
13.06

>  <SCORE.RESTR.CAVITY>
13.06

>  <SCORE.RESTR.norm>
0.373144

>  <SCORE.SYSTEM>
0

>  <SCORE.SYSTEM.CONST>
0

>  <SCORE.SYSTEM.DIHEDRAL>
0

>  <SCORE.SYSTEM.SOLV>
0

>  <SCORE.SYSTEM.norm>
0

>  <SCORE.heavy>
35

>  <SCORE.norm>
0.277053

>  <RMSD>
38.550

$$$$
