2be0_lig
 OpenBabel02221317003D

 52 56  0  0  1  0  0  0  0  0999 V2000
   44.7640    7.4440   -7.3990 C   0  0  2  0  0  0  0  0  0  0  0  0
   45.7660    6.5190   -7.7500 O   0  0  0  0  0  0  0  0  0  0  0  0
   49.1910    4.5750   -5.7850 C   0  0  2  0  0  0  0  0  0  0  0  0
   50.3680    4.3930   -4.8900 N   0  0  0  0  0  0  0  0  0  0  0  0
   44.5150    4.3410   -4.9540 C   0  0  2  0  0  0  0  0  0  0  0  0
   43.2280    4.6350   -5.5350 O   0  0  0  0  0  0  0  0  0  0  0  0
   42.6090    6.3580   -1.0900 C   0  0  1  0  0  0  0  0  0  0  0  0
   40.5680   -1.4510   -5.5590 C   0  0  0  0  0  0  0  0  0  0  0  0
   43.4560    7.2280   -8.2640 C   0  0  2  0  0  0  0  0  0  0  0  0
   43.0120    5.8370   -8.1520 N   0  0  0  0  0  0  0  0  0  0  0  0
   49.4450    5.8340   -6.7330 C   0  0  0  0  0  0  0  0  0  0  0  0
   44.2930    4.1860   -3.4410 C   0  0  2  0  0  0  0  0  0  0  0  0
   43.8800    2.7560   -3.2930 O   0  0  0  0  0  0  0  0  0  0  0  0
   42.6310    5.6980    0.3950 C   0  0  2  0  0  0  0  0  0  0  0  0
   41.3690    4.9140    0.5910 N   0  0  0  0  0  0  0  0  0  0  0  0
   39.7510   -0.3650   -6.0150 C   0  0  0  0  0  0  0  0  0  0  0  0
   38.9020   -0.5470   -7.1380 N   0  0  0  0  0  0  0  0  0  0  0  0
   43.7400    7.6450   -9.7810 C   0  0  1  0  0  0  0  0  0  0  0  0
   42.5590    7.4370  -10.5400 O   0  0  0  0  0  0  0  0  0  0  0  0
   48.1680    6.0770   -7.7230 C   0  0  2  0  0  0  0  0  0  0  0  0
   48.3850    7.2060   -8.5830 N   0  0  0  0  0  0  0  0  0  0  0  0
   43.2560    5.3070   -3.2390 C   0  0  2  0  0  0  0  0  0  0  0  0
   42.5020    5.2790   -2.0360 O   0  0  0  0  0  0  0  0  0  0  0  0
   42.7330    6.8570    1.4320 C   0  0  1  0  0  0  0  0  0  0  0  0
   44.0070    7.5420    1.1580 O   0  0  0  0  0  0  0  0  0  0  0  0
   38.8160   -1.7750   -7.8540 C   0  0  0  0  0  0  0  0  0  0  0  0
   44.1920    9.1340   -9.8090 C   0  0  2  0  0  0  0  0  0  0  0  0
   44.4750    9.5790  -11.1950 O   0  0  0  0  0  0  0  0  0  0  0  0
   46.8580    6.3090   -6.8630 C   0  0  2  0  0  0  0  0  0  0  0  0
   42.3930    5.2310   -4.5210 C   0  0  1  0  0  0  0  0  0  0  0  0
   41.4720    7.8700    1.2600 C   0  0  2  0  0  0  0  0  0  0  0  0
   40.1950    7.1920    1.5320 O   0  0  0  0  0  0  0  0  0  0  0  0
   39.5990   -2.8840   -7.4490 C   0  0  0  0  0  0  0  0  0  0  0  0
   45.4950    9.3290   -8.9420 C   0  0  2  0  0  0  0  0  0  0  0  0
   45.1560    8.8740   -7.6030 O   0  0  0  0  0  0  0  0  0  0  0  0
   46.6610    5.0530   -5.9450 C   0  0  2  0  0  0  0  0  0  0  0  0
   45.4660    5.3620   -5.2380 O   0  0  0  0  0  0  0  0  0  0  0  0
   41.9870    6.6120   -5.0330 C   0  0  0  0  0  0  0  0  0  0  0  0
   42.4810    7.7020   -4.2920 O   0  0  0  0  0  0  0  0  0  0  0  0
   41.4610    8.4570   -0.2260 C   0  0  1  0  0  0  0  0  0  0  0  0
   41.4090    7.2980   -1.2000 O   0  0  0  0  0  0  0  0  0  0  0  0
   40.5020   -2.7450   -6.2830 C   0  0  0  0  0  0  0  0  0  0  0  0
   45.8600   10.7540   -8.9890 C   0  0  0  0  0  0  0  0  0  0  0  0
   46.9710   10.9540   -8.2690 O   0  0  0  0  0  0  0  0  0  0  0  0
   47.9040    4.8650   -4.9770 C   0  0  1  0  0  0  0  0  0  0  0  0
   47.7190    3.7430   -4.1780 O   0  0  0  0  0  0  0  0  0  0  0  0
   42.5410    2.2170   -2.9570 C   0  0  0  0  0  0  0  0  0  0  0  0
   40.2350    9.4040   -0.3340 C   0  0  0  0  0  0  0  0  0  0  0  0
   40.1520    9.9780   -1.6540 N   0  0  0  0  0  0  0  0  0  0  0  0
   42.6530    0.6890   -2.9630 C   0  0  0  0  0  0  0  0  0  0  0  0
   42.2290    0.1630   -4.3010 N   0  0  0  0  0  0  0  0  0  0  0  0
   41.5180   -1.2170   -4.2850 C   0  0  0  0  0  0  0  0  0  0  0  0
  1  2  1  6  0  0  0
  1  9  1  0  0  0  0
  1 35  1  0  0  0  0
  3  4  1  1  0  0  0
  3 11  1  0  0  0  0
  3 45  1  0  0  0  0
  5  6  1  0  0  0  0
  5 12  1  0  0  0  0
  5 37  1  1  0  0  0
  6 30  1  0  0  0  0
  7 14  1  0  0  0  0
  7 41  1  0  0  0  0
  7 23  1  1  0  0  0
  8 16  2  0  0  0  0
  8 42  1  0  0  0  0
  9 10  1  6  0  0  0
  9 18  1  0  0  0  0
 11 20  1  0  0  0  0
 12 13  1  6  0  0  0
 12 22  1  0  0  0  0
 13 47  1  0  0  0  0
 14 15  1  6  0  0  0
 14 24  1  0  0  0  0
 16 17  1  0  0  0  0
 17 26  2  0  0  0  0
 18 19  1  1  0  0  0
 18 27  1  0  0  0  0
 20 21  1  1  0  0  0
 20 29  1  0  0  0  0
 22 23  1  1  0  0  0
 22 30  1  0  0  0  0
 24 25  1  6  0  0  0
 24 31  1  0  0  0  0
 26 33  1  0  0  0  0
 27 28  1  6  0  0  0
 27 34  1  0  0  0  0
 29  2  1  6  0  0  0
 29 36  1  0  0  0  0
 30 38  1  6  0  0  0
 31 32  1  6  0  0  0
 31 40  1  0  0  0  0
 33 42  2  0  0  0  0
 34 35  1  0  0  0  0
 34 43  1  1  0  0  0
 36 37  1  1  0  0  0
 36 45  1  0  0  0  0
 38 39  1  0  0  0  0
 40 41  1  0  0  0  0
 40 48  1  1  0  0  0
 43 44  1  0  0  0  0
 45 46  1  6  0  0  0
 47 50  1  0  0  0  0
 48 49  1  0  0  0  0
 50 51  1  0  0  0  0
 51 52  1  0  0  0  0
 52  8  1  0  0  0  0
M  END
$$$$
